MODEL 1
REMARK VINA RESULT:      -7.2      0.000      0.000
REMARK  10 active torsions:
REMARK  status: ('A' for Active; 'I' for Inactive)
REMARK    1  A    between atoms: C_1  and  C_20 
REMARK    2  A    between atoms: N_4  and  C_20 
REMARK       I    between atoms: N_4  and  C_5 
REMARK    3  A    between atoms: C_5  and  C_11 
REMARK       I    between atoms: N_6  and  C_16 
REMARK    4  A    between atoms: N_7  and  C_11 
REMARK    5  A    between atoms: C_10  and  C_18 
REMARK    6  A    between atoms: C_11  and  C_12 
REMARK    7  A    between atoms: C_12  and  C_13 
REMARK    8  A    between atoms: C_13  and  C_14 
REMARK    9  A    between atoms: C_14  and  N_17 
REMARK       I    between atoms: N_15  and  C_16 
REMARK   10  A    between atoms: C_18  and  C_20 
ROOT
HETATM    1  C           1     -33.101  -4.467 -16.654  0.00  0.00     0.274 C 
ENDROOT
BRANCH   1   2
HETATM    2  C           1     -33.949  -4.511 -15.408  0.00  0.00     0.249 C 
HETATM    3  N           1     -33.476  -3.976 -14.239  0.00  0.00    -0.344 N 
HETATM    4  H           1     -32.556  -3.553 -14.212  0.00  0.00     0.163 HD
HETATM    5  O           1     -35.045  -5.016 -15.439  0.00  0.00    -0.271 OA
BRANCH   3   6
HETATM    6  C           1     -34.290  -4.019 -13.040  0.00  0.00     0.189 C 
BRANCH   6   7
HETATM    7  C           1     -34.994  -2.695 -12.865  0.00  0.00     0.197 C 
HETATM    8  O           1     -34.772  -1.759 -13.662  0.00  0.00    -0.646 OA
HETATM    9  O           1     -35.800  -2.536 -11.923  0.00  0.00    -0.646 OA
ENDBRANCH   6   7
BRANCH   6  10
HETATM   10  C           1     -33.400  -4.284 -11.832  0.00  0.00     0.014 C 
HETATM   11  C           1     -32.843  -2.964 -11.315  0.00  0.00     0.012 C 
BRANCH  10  12
HETATM   12  C           1     -34.220  -4.954 -10.737  0.00  0.00     0.002 C 
HETATM   13  C           1     -34.104  -6.467 -10.868  0.00  0.00     0.005 C 
ENDBRANCH  10  12
ENDBRANCH   6  10
ENDBRANCH   3   6
ENDBRANCH   1   2
BRANCH   1  14
HETATM   14  N           1     -33.227  -3.118 -17.297  0.00  0.00    -0.067 N 
HETATM   15  H           1     -33.440  -2.402 -16.566  0.00  0.00     0.275 HD
HETATM   16  H           1     -32.329  -2.873 -17.773  0.00  0.00     0.275 HD
HETATM   17  H           1     -34.000  -3.138 -17.999  0.00  0.00     0.275 HD
ENDBRANCH   1  14
BRANCH   1  18
HETATM   18  C           1     -31.645  -4.722 -16.289  0.00  0.00     0.044 C 
BRANCH  18  19
HETATM   19  C           1     -30.740  -4.094 -17.342  0.00  0.00     0.023 C 
BRANCH  19  20
HETATM   20  C           1     -29.492  -4.950 -17.513  0.00  0.00     0.138 C 
BRANCH  20  21
HETATM   21  N           1     -29.829  -6.163 -18.272  0.00  0.00    -0.227 N 
HETATM   22  C           1     -29.414  -7.292 -17.877  0.00  0.00     0.665 C 
HETATM   23  N           1     -28.692  -7.380 -16.800  0.00  0.00    -0.235 N 
HETATM   24  N           1     -29.705  -8.338 -18.530  0.00  0.00    -0.235 N 
HETATM   25  H           1     -28.351  -8.312 -16.473  0.00  0.00     0.174 HD
HETATM   26  H           1     -28.453  -6.517 -16.259  0.00  0.00     0.174 HD
HETATM   27  H           1     -29.362  -9.274 -18.203  0.00  0.00     0.174 HD
HETATM   28  H           1     -30.289  -8.267 -19.401  0.00  0.00     0.174 HD
HETATM   29  H           1     -30.411  -6.093 -19.142  0.00  0.00     0.177 HD
ENDBRANCH  20  21
ENDBRANCH  19  20
ENDBRANCH  18  19
ENDBRANCH   1  18
TORSDOF 10
ENDMDL
MODEL 2
REMARK VINA RESULT:      -6.8     13.777     15.054
REMARK  10 active torsions:
REMARK  status: ('A' for Active; 'I' for Inactive)
REMARK    1  A    between atoms: C_1  and  C_20 
REMARK    2  A    between atoms: N_4  and  C_20 
REMARK       I    between atoms: N_4  and  C_5 
REMARK    3  A    between atoms: C_5  and  C_11 
REMARK       I    between atoms: N_6  and  C_16 
REMARK    4  A    between atoms: N_7  and  C_11 
REMARK    5  A    between atoms: C_10  and  C_18 
REMARK    6  A    between atoms: C_11  and  C_12 
REMARK    7  A    between atoms: C_12  and  C_13 
REMARK    8  A    between atoms: C_13  and  C_14 
REMARK    9  A    between atoms: C_14  and  N_17 
REMARK       I    between atoms: N_15  and  C_16 
REMARK   10  A    between atoms: C_18  and  C_20 
ROOT
HETATM    1  C           1     -20.580  -5.224  -6.215  0.00  0.00     0.274 C 
ENDROOT
BRANCH   1   2
HETATM    2  C           1     -21.421  -6.046  -5.271  0.00  0.00     0.249 C 
HETATM    3  N           1     -20.818  -6.869  -4.357  0.00  0.00    -0.344 N 
HETATM    4  H           1     -19.809  -6.926  -4.315  0.00  0.00     0.163 HD
HETATM    5  O           1     -22.626  -5.980  -5.321  0.00  0.00    -0.271 OA
BRANCH   3   6
HETATM    6  C           1     -21.626  -7.660  -3.450  0.00  0.00     0.189 C 
BRANCH   6   7
HETATM    7  C           1     -21.691  -6.974  -2.107  0.00  0.00     0.197 C 
HETATM    8  O           1     -22.278  -5.877  -1.994  0.00  0.00    -0.646 OA
HETATM    9  O           1     -21.157  -7.504  -1.109  0.00  0.00    -0.646 OA
ENDBRANCH   6   7
BRANCH   6  10
HETATM   10  C           1     -21.001  -9.040  -3.286  0.00  0.00     0.014 C 
HETATM   11  C           1     -21.903 -10.084  -3.931  0.00  0.00     0.012 C 
BRANCH  10  12
HETATM   12  C           1     -19.635  -9.061  -3.960  0.00  0.00     0.002 C 
HETATM   13  C           1     -18.560  -9.357  -2.923  0.00  0.00     0.005 C 
ENDBRANCH  10  12
ENDBRANCH   6  10
ENDBRANCH   3   6
ENDBRANCH   1   2
BRANCH   1  14
HETATM   14  N           1     -19.855  -6.135  -7.161  0.00  0.00    -0.067 N 
HETATM   15  H           1     -20.245  -6.020  -8.124  0.00  0.00     0.275 HD
HETATM   16  H           1     -18.838  -5.894  -7.167  0.00  0.00     0.275 HD
HETATM   17  H           1     -19.978  -7.125  -6.853  0.00  0.00     0.275 HD
ENDBRANCH   1  14
BRANCH   1  18
HETATM   18  C           1     -21.477  -4.281  -7.006  0.00  0.00     0.044 C 
BRANCH  18  19
HETATM   19  C           1     -21.756  -4.878  -8.380  0.00  0.00     0.023 C 
BRANCH  19  20
HETATM   20  C           1     -22.227  -3.781  -9.324  0.00  0.00     0.138 C 
BRANCH  20  21
HETATM   21  N           1     -23.634  -3.460  -9.041  0.00  0.00    -0.227 N 
HETATM   22  C           1     -24.538  -3.802  -9.860  0.00  0.00     0.665 C 
HETATM   23  N           1     -24.222  -4.436 -10.949  0.00  0.00    -0.235 N 
HETATM   24  N           1     -25.749  -3.527  -9.616  0.00  0.00    -0.235 N 
HETATM   25  H           1     -24.968  -4.719 -11.625  0.00  0.00     0.174 HD
HETATM   26  H           1     -23.221  -4.665 -11.150  0.00  0.00     0.174 HD
HETATM   27  H           1     -26.499  -3.810 -10.294  0.00  0.00     0.174 HD
HETATM   28  H           1     -26.005  -3.014  -8.735  0.00  0.00     0.174 HD
HETATM   29  H           1     -23.889  -2.948  -8.162  0.00  0.00     0.177 HD
ENDBRANCH  20  21
ENDBRANCH  19  20
ENDBRANCH  18  19
ENDBRANCH   1  18
TORSDOF 10
ENDMDL
MODEL 3
REMARK VINA RESULT:      -6.7     14.852     16.094
REMARK  10 active torsions:
REMARK  status: ('A' for Active; 'I' for Inactive)
REMARK    1  A    between atoms: C_1  and  C_20 
REMARK    2  A    between atoms: N_4  and  C_20 
REMARK       I    between atoms: N_4  and  C_5 
REMARK    3  A    between atoms: C_5  and  C_11 
REMARK       I    between atoms: N_6  and  C_16 
REMARK    4  A    between atoms: N_7  and  C_11 
REMARK    5  A    between atoms: C_10  and  C_18 
REMARK    6  A    between atoms: C_11  and  C_12 
REMARK    7  A    between atoms: C_12  and  C_13 
REMARK    8  A    between atoms: C_13  and  C_14 
REMARK    9  A    between atoms: C_14  and  N_17 
REMARK       I    between atoms: N_15  and  C_16 
REMARK   10  A    between atoms: C_18  and  C_20 
ROOT
HETATM    1  C           1     -21.366  -6.991  -5.661  0.00  0.00     0.274 C 
ENDROOT
BRANCH   1   2
HETATM    2  C           1     -20.736  -7.686  -4.479  0.00  0.00     0.249 C 
HETATM    3  N           1     -21.434  -7.815  -3.309  0.00  0.00    -0.344 N 
HETATM    4  H           1     -22.373  -7.443  -3.235  0.00  0.00     0.163 HD
HETATM    5  O           1     -19.616  -8.130  -4.566  0.00  0.00    -0.271 OA
BRANCH   3   6
HETATM    6  C           1     -20.829  -8.482  -2.173  0.00  0.00     0.189 C 
BRANCH   6   7
HETATM    7  C           1     -21.280  -9.922  -2.138  0.00  0.00     0.197 C 
HETATM    8  O           1     -20.515 -10.806  -1.697  0.00  0.00    -0.646 OA
HETATM    9  O           1     -22.419 -10.230  -2.550  0.00  0.00    -0.646 OA
ENDBRANCH   6   7
BRANCH   6  10
HETATM   10  C           1     -21.257  -7.785  -0.888  0.00  0.00     0.014 C 
HETATM   11  C           1     -22.259  -6.687  -1.217  0.00  0.00     0.012 C 
BRANCH  10  12
HETATM   12  C           1     -21.902  -8.799   0.049  0.00  0.00     0.002 C 
HETATM   13  C           1     -23.201  -8.227   0.601  0.00  0.00     0.005 C 
ENDBRANCH  10  12
ENDBRANCH   6  10
ENDBRANCH   3   6
ENDBRANCH   1   2
BRANCH   1  14
HETATM   14  N           1     -22.472  -6.097  -5.183  0.00  0.00    -0.067 N 
HETATM   15  H           1     -22.204  -5.099  -5.337  0.00  0.00     0.275 HD
HETATM   16  H           1     -23.346  -6.310  -5.715  0.00  0.00     0.275 HD
HETATM   17  H           1     -22.635  -6.261  -4.164  0.00  0.00     0.275 HD
ENDBRANCH   1  14
BRANCH   1  18
HETATM   18  C           1     -20.314  -6.157  -6.380  0.00  0.00     0.044 C 
BRANCH  18  19
HETATM   19  C           1     -20.528  -4.683  -6.059  0.00  0.00     0.023 C 
BRANCH  19  20
HETATM   20  C           1     -20.743  -3.908  -7.351  0.00  0.00     0.138 C 
BRANCH  20  21
HETATM   21  N           1     -22.165  -3.558  -7.484  0.00  0.00    -0.227 N 
HETATM   22  C           1     -22.843  -4.020  -8.447  0.00  0.00     0.665 C 
HETATM   23  N           1     -22.284  -4.804  -9.319  0.00  0.00    -0.235 N 
HETATM   24  N           1     -24.068  -3.719  -8.561  0.00  0.00    -0.235 N 
HETATM   25  H           1     -22.844  -5.187 -10.115  0.00  0.00     0.174 HD
HETATM   26  H           1     -21.272  -5.054  -9.225  0.00  0.00     0.174 HD
HETATM   27  H           1     -24.631  -4.103  -9.360  0.00  0.00     0.174 HD
HETATM   28  H           1     -24.521  -3.085  -7.856  0.00  0.00     0.174 HD
HETATM   29  H           1     -22.617  -2.925  -6.780  0.00  0.00     0.177 HD
ENDBRANCH  20  21
ENDBRANCH  19  20
ENDBRANCH  18  19
ENDBRANCH   1  18
TORSDOF 10
ENDMDL
MODEL 4
REMARK VINA RESULT:      -6.6      4.900      8.512
REMARK  10 active torsions:
REMARK  status: ('A' for Active; 'I' for Inactive)
REMARK    1  A    between atoms: C_1  and  C_20 
REMARK    2  A    between atoms: N_4  and  C_20 
REMARK       I    between atoms: N_4  and  C_5 
REMARK    3  A    between atoms: C_5  and  C_11 
REMARK       I    between atoms: N_6  and  C_16 
REMARK    4  A    between atoms: N_7  and  C_11 
REMARK    5  A    between atoms: C_10  and  C_18 
REMARK    6  A    between atoms: C_11  and  C_12 
REMARK    7  A    between atoms: C_12  and  C_13 
REMARK    8  A    between atoms: C_13  and  C_14 
REMARK    9  A    between atoms: C_14  and  N_17 
REMARK       I    between atoms: N_15  and  C_16 
REMARK   10  A    between atoms: C_18  and  C_20 
ROOT
HETATM    1  C           1     -29.236  -5.288 -16.296  0.00  0.00     0.274 C 
ENDROOT
BRANCH   1   2
HETATM    2  C           1     -28.163  -6.300 -16.612  0.00  0.00     0.249 C 
HETATM    3  N           1     -27.036  -5.914 -17.288  0.00  0.00    -0.344 N 
HETATM    4  H           1     -26.924  -4.950 -17.577  0.00  0.00     0.163 HD
HETATM    5  O           1     -28.295  -7.450 -16.268  0.00  0.00    -0.271 OA
BRANCH   3   6
HETATM    6  C           1     -26.004  -6.886 -17.592  0.00  0.00     0.189 C 
BRANCH   6   7
HETATM    7  C           1     -25.014  -6.939 -16.455  0.00  0.00     0.197 C 
HETATM    8  O           1     -24.637  -5.882 -15.904  0.00  0.00    -0.646 OA
HETATM    9  O           1     -24.570  -8.040 -16.063  0.00  0.00    -0.646 OA
ENDBRANCH   6   7
BRANCH   6  10
HETATM   10  C           1     -25.286  -6.479 -18.872  0.00  0.00     0.014 C 
HETATM   11  C           1     -24.010  -7.297 -19.018  0.00  0.00     0.012 C 
BRANCH  10  12
HETATM   12  C           1     -26.195  -6.737 -20.067  0.00  0.00     0.002 C 
HETATM   13  C           1     -25.541  -7.754 -20.993  0.00  0.00     0.005 C 
ENDBRANCH  10  12
ENDBRANCH   6  10
ENDBRANCH   3   6
ENDBRANCH   1   2
BRANCH   1  14
HETATM   14  N           1     -29.719  -5.495 -14.891  0.00  0.00    -0.067 N 
HETATM   15  H           1     -29.240  -6.326 -14.477  0.00  0.00     0.275 HD
HETATM   16  H           1     -29.502  -4.647 -14.320  0.00  0.00     0.275 HD
HETATM   17  H           1     -30.751  -5.656 -14.898  0.00  0.00     0.275 HD
ENDBRANCH   1  14
BRANCH   1  18
HETATM   18  C           1     -28.668  -3.883 -16.436  0.00  0.00     0.044 C 
BRANCH  18  19
HETATM   19  C           1     -29.549  -3.070 -17.377  0.00  0.00     0.023 C 
BRANCH  19  20
HETATM   20  C           1     -30.735  -3.916 -17.818  0.00  0.00     0.138 C 
BRANCH  20  21
HETATM   21  N           1     -31.973  -3.133 -17.687  0.00  0.00    -0.227 N 
HETATM   22  C           1     -32.983  -3.637 -17.114  0.00  0.00     0.665 C 
HETATM   23  N           1     -32.926  -4.846 -16.641  0.00  0.00    -0.235 N 
HETATM   24  N           1     -34.049  -2.963 -17.000  0.00  0.00    -0.235 N 
HETATM   25  H           1     -33.760  -5.263 -16.167  0.00  0.00     0.174 HD
HETATM   26  H           1     -32.046  -5.403 -16.734  0.00  0.00     0.174 HD
HETATM   27  H           1     -34.887  -3.380 -16.525  0.00  0.00     0.174 HD
HETATM   28  H           1     -34.094  -1.985 -17.383  0.00  0.00     0.174 HD
HETATM   29  H           1     -32.019  -2.157 -18.069  0.00  0.00     0.177 HD
ENDBRANCH  20  21
ENDBRANCH  19  20
ENDBRANCH  18  19
ENDBRANCH   1  18
TORSDOF 10
ENDMDL
MODEL 5
REMARK VINA RESULT:      -6.5     13.627     14.706
REMARK  10 active torsions:
REMARK  status: ('A' for Active; 'I' for Inactive)
REMARK    1  A    between atoms: C_1  and  C_20 
REMARK    2  A    between atoms: N_4  and  C_20 
REMARK       I    between atoms: N_4  and  C_5 
REMARK    3  A    between atoms: C_5  and  C_11 
REMARK       I    between atoms: N_6  and  C_16 
REMARK    4  A    between atoms: N_7  and  C_11 
REMARK    5  A    between atoms: C_10  and  C_18 
REMARK    6  A    between atoms: C_11  and  C_12 
REMARK    7  A    between atoms: C_12  and  C_13 
REMARK    8  A    between atoms: C_13  and  C_14 
REMARK    9  A    between atoms: C_14  and  N_17 
REMARK       I    between atoms: N_15  and  C_16 
REMARK   10  A    between atoms: C_18  and  C_20 
ROOT
HETATM    1  C           1     -21.463  -5.056  -7.576  0.00  0.00     0.274 C 
ENDROOT
BRANCH   1   2
HETATM    2  C           1     -20.707  -5.686  -6.432  0.00  0.00     0.249 C 
HETATM    3  N           1     -21.150  -6.859  -5.882  0.00  0.00    -0.344 N 
HETATM    4  H           1     -21.985  -7.304  -6.242  0.00  0.00     0.163 HD
HETATM    5  O           1     -19.711  -5.155  -6.001  0.00  0.00    -0.271 OA
BRANCH   3   6
HETATM    6  C           1     -20.424  -7.464  -4.782  0.00  0.00     0.189 C 
BRANCH   6   7
HETATM    7  C           1     -19.898  -8.812  -5.210  0.00  0.00     0.197 C 
HETATM    8  O           1     -20.681  -9.672  -5.667  0.00  0.00    -0.646 OA
HETATM    9  O           1     -18.679  -9.068  -5.106  0.00  0.00    -0.646 OA
ENDBRANCH   6   7
BRANCH   6  10
HETATM   10  C           1     -21.359  -7.637  -3.592  0.00  0.00     0.014 C 
HETATM   11  C           1     -20.603  -8.299  -2.448  0.00  0.00     0.012 C 
BRANCH  10  12
HETATM   12  C           1     -21.868  -6.273  -3.144  0.00  0.00     0.002 C 
HETATM   13  C           1     -22.235  -6.327  -1.667  0.00  0.00     0.005 C 
ENDBRANCH  10  12
ENDBRANCH   6  10
ENDBRANCH   3   6
ENDBRANCH   1   2
BRANCH   1  14
HETATM   14  N           1     -22.692  -4.376  -7.048  0.00  0.00    -0.067 N 
HETATM   15  H           1     -22.416  -3.516  -6.524  0.00  0.00     0.275 HD
HETATM   16  H           1     -23.314  -4.114  -7.846  0.00  0.00     0.275 HD
HETATM   17  H           1     -23.200  -5.026  -6.408  0.00  0.00     0.275 HD
ENDBRANCH   1  14
BRANCH   1  18
HETATM   18  C           1     -20.575  -4.032  -8.270  0.00  0.00     0.044 C 
BRANCH  18  19
HETATM   19  C           1     -20.160  -4.564  -9.636  0.00  0.00     0.023 C 
BRANCH  19  20
HETATM   20  C           1     -20.773  -3.696 -10.726  0.00  0.00     0.138 C 
BRANCH  20  21
HETATM   21  N           1     -21.616  -4.526 -11.600  0.00  0.00    -0.227 N 
HETATM   22  C           1     -22.873  -4.533 -11.445  0.00  0.00     0.665 C 
HETATM   23  N           1     -23.418  -3.806 -10.517  0.00  0.00    -0.235 N 
HETATM   24  N           1     -23.599  -5.247 -12.197  0.00  0.00    -0.235 N 
HETATM   25  H           1     -24.456  -3.810 -10.389  0.00  0.00     0.174 HD
HETATM   26  H           1     -22.818  -3.214  -9.896  0.00  0.00     0.174 HD
HETATM   27  H           1     -24.641  -5.253 -12.070  0.00  0.00     0.174 HD
HETATM   28  H           1     -23.158  -5.835 -12.948  0.00  0.00     0.174 HD
HETATM   29  H           1     -21.176  -5.113 -12.349  0.00  0.00     0.177 HD
ENDBRANCH  20  21
ENDBRANCH  19  20
ENDBRANCH  18  19
ENDBRANCH   1  18
TORSDOF 10
ENDMDL
MODEL 6
REMARK VINA RESULT:      -6.5     14.126     15.330
REMARK  10 active torsions:
REMARK  status: ('A' for Active; 'I' for Inactive)
REMARK    1  A    between atoms: C_1  and  C_20 
REMARK    2  A    between atoms: N_4  and  C_20 
REMARK       I    between atoms: N_4  and  C_5 
REMARK    3  A    between atoms: C_5  and  C_11 
REMARK       I    between atoms: N_6  and  C_16 
REMARK    4  A    between atoms: N_7  and  C_11 
REMARK    5  A    between atoms: C_10  and  C_18 
REMARK    6  A    between atoms: C_11  and  C_12 
REMARK    7  A    between atoms: C_12  and  C_13 
REMARK    8  A    between atoms: C_13  and  C_14 
REMARK    9  A    between atoms: C_14  and  N_17 
REMARK       I    between atoms: N_15  and  C_16 
REMARK   10  A    between atoms: C_18  and  C_20 
ROOT
HETATM    1  C           1     -21.696  -5.928  -6.276  0.00  0.00     0.274 C 
ENDROOT
BRANCH   1   2
HETATM    2  C           1     -20.792  -7.086  -5.933  0.00  0.00     0.249 C 
HETATM    3  N           1     -21.184  -8.007  -5.000  0.00  0.00    -0.344 N 
HETATM    4  H           1     -22.081  -7.912  -4.539  0.00  0.00     0.163 HD
HETATM    5  O           1     -19.722  -7.201  -6.482  0.00  0.00    -0.271 OA
BRANCH   3   6
HETATM    6  C           1     -20.315  -9.120  -4.669  0.00  0.00     0.189 C 
BRANCH   6   7
HETATM    7  C           1     -20.905 -10.397  -5.216  0.00  0.00     0.197 C 
HETATM    8  O           1     -20.591 -10.790  -6.360  0.00  0.00    -0.646 OA
HETATM    9  O           1     -21.707 -11.061  -4.525  0.00  0.00    -0.646 OA
ENDBRANCH   6   7
BRANCH   6  10
HETATM   10  C           1     -20.185  -9.229  -3.155  0.00  0.00     0.014 C 
HETATM   11  C           1     -18.711  -9.213  -2.772  0.00  0.00     0.012 C 
BRANCH  10  12
HETATM   12  C           1     -20.893  -8.051  -2.499  0.00  0.00     0.002 C 
HETATM   13  C           1     -20.845  -8.207  -0.985  0.00  0.00     0.005 C 
ENDBRANCH  10  12
ENDBRANCH   6  10
ENDBRANCH   3   6
ENDBRANCH   1   2
BRANCH   1  14
HETATM   14  N           1     -22.750  -5.786  -5.218  0.00  0.00    -0.067 N 
HETATM   15  H           1     -23.231  -6.704  -5.080  0.00  0.00     0.275 HD
HETATM   16  H           1     -22.305  -5.488  -4.321  0.00  0.00     0.275 HD
HETATM   17  H           1     -23.448  -5.070  -5.517  0.00  0.00     0.275 HD
ENDBRANCH   1  14
BRANCH   1  18
HETATM   18  C           1     -20.876  -4.647  -6.351  0.00  0.00     0.044 C 
BRANCH  18  19
HETATM   19  C           1     -21.559  -3.662  -7.292  0.00  0.00     0.023 C 
BRANCH  19  20
HETATM   20  C           1     -22.330  -4.429  -8.358  0.00  0.00     0.138 C 
BRANCH  20  21
HETATM   21  N           1     -23.675  -3.851  -8.502  0.00  0.00    -0.227 N 
HETATM   22  C           1     -24.351  -4.076  -9.548  0.00  0.00     0.665 C 
HETATM   23  N           1     -23.857  -4.817 -10.495  0.00  0.00    -0.235 N 
HETATM   24  N           1     -25.509  -3.579  -9.672  0.00  0.00    -0.235 N 
HETATM   25  H           1     -24.416  -5.004 -11.359  0.00  0.00     0.174 HD
HETATM   26  H           1     -22.901  -5.228 -10.392  0.00  0.00     0.174 HD
HETATM   27  H           1     -26.070  -3.765 -10.540  0.00  0.00     0.174 HD
HETATM   28  H           1     -25.908  -2.980  -8.907  0.00  0.00     0.174 HD
HETATM   29  H           1     -24.073  -3.252  -7.738  0.00  0.00     0.177 HD
ENDBRANCH  20  21
ENDBRANCH  19  20
ENDBRANCH  18  19
ENDBRANCH   1  18
TORSDOF 10
ENDMDL
MODEL 7
REMARK VINA RESULT:      -6.3     14.410     16.174
REMARK  10 active torsions:
REMARK  status: ('A' for Active; 'I' for Inactive)
REMARK    1  A    between atoms: C_1  and  C_20 
REMARK    2  A    between atoms: N_4  and  C_20 
REMARK       I    between atoms: N_4  and  C_5 
REMARK    3  A    between atoms: C_5  and  C_11 
REMARK       I    between atoms: N_6  and  C_16 
REMARK    4  A    between atoms: N_7  and  C_11 
REMARK    5  A    between atoms: C_10  and  C_18 
REMARK    6  A    between atoms: C_11  and  C_12 
REMARK    7  A    between atoms: C_12  and  C_13 
REMARK    8  A    between atoms: C_13  and  C_14 
REMARK    9  A    between atoms: C_14  and  N_17 
REMARK       I    between atoms: N_15  and  C_16 
REMARK   10  A    between atoms: C_18  and  C_20 
ROOT
HETATM    1  C           1     -20.844  -8.319  -5.608  0.00  0.00     0.274 C 
ENDROOT
BRANCH   1   2
HETATM    2  C           1     -20.938  -6.817  -5.704  0.00  0.00     0.249 C 
HETATM    3  N           1     -21.064  -6.216  -6.928  0.00  0.00    -0.344 N 
HETATM    4  H           1     -21.092  -6.779  -7.768  0.00  0.00     0.163 HD
HETATM    5  O           1     -20.904  -6.144  -4.702  0.00  0.00    -0.271 OA
BRANCH   3   6
HETATM    6  C           1     -21.154  -4.771  -7.021  0.00  0.00     0.189 C 
BRANCH   6   7
HETATM    7  C           1     -22.563  -4.380  -7.392  0.00  0.00     0.197 C 
HETATM    8  O           1     -23.516  -4.691  -6.646  0.00  0.00    -0.646 OA
HETATM    9  O           1     -22.777  -3.743  -8.447  0.00  0.00    -0.646 OA
ENDBRANCH   6   7
BRANCH   6  10
HETATM   10  C           1     -20.190  -4.271  -8.088  0.00  0.00     0.014 C 
HETATM   11  C           1     -18.790  -4.167  -7.498  0.00  0.00     0.012 C 
BRANCH  10  12
HETATM   12  C           1     -20.177  -5.247  -9.258  0.00  0.00     0.002 C 
HETATM   13  C           1     -20.265  -4.474 -10.567  0.00  0.00     0.005 C 
ENDBRANCH  10  12
ENDBRANCH   6  10
ENDBRANCH   3   6
ENDBRANCH   1   2
BRANCH   1  14
HETATM   14  N           1     -19.405  -8.722  -5.477  0.00  0.00    -0.067 N 
HETATM   15  H           1     -18.859  -8.327  -6.276  0.00  0.00     0.275 HD
HETATM   16  H           1     -19.021  -8.355  -4.577  0.00  0.00     0.275 HD
HETATM   17  H           1     -19.333  -9.764  -5.488  0.00  0.00     0.275 HD
ENDBRANCH   1  14
BRANCH   1  18
HETATM   18  C           1     -21.619  -8.801  -4.389  0.00  0.00     0.044 C 
BRANCH  18  19
HETATM   19  C           1     -20.660  -9.460  -3.405  0.00  0.00     0.023 C 
BRANCH  19  20
HETATM   20  C           1     -20.820  -8.820  -2.033  0.00  0.00     0.138 C 
BRANCH  20  21
HETATM   21  N           1     -21.111  -7.387  -2.191  0.00  0.00    -0.227 N 
HETATM   22  C           1     -21.989  -6.836  -1.464  0.00  0.00     0.665 C 
HETATM   23  N           1     -22.633  -7.536  -0.578  0.00  0.00    -0.235 N 
HETATM   24  N           1     -22.240  -5.602  -1.600  0.00  0.00    -0.235 N 
HETATM   25  H           1     -23.358  -7.081   0.023  0.00  0.00     0.174 HD
HETATM   26  H           1     -22.425  -8.555  -0.465  0.00  0.00     0.174 HD
HETATM   27  H           1     -22.968  -5.144  -0.997  0.00  0.00     0.174 HD
HETATM   28  H           1     -21.720  -5.036  -2.316  0.00  0.00     0.174 HD
HETATM   29  H           1     -20.592  -6.822  -2.906  0.00  0.00     0.177 HD
ENDBRANCH  20  21
ENDBRANCH  19  20
ENDBRANCH  18  19
ENDBRANCH   1  18
TORSDOF 10
ENDMDL
MODEL 8
REMARK VINA RESULT:      -6.2     14.742     16.092
REMARK  10 active torsions:
REMARK  status: ('A' for Active; 'I' for Inactive)
REMARK    1  A    between atoms: C_1  and  C_20 
REMARK    2  A    between atoms: N_4  and  C_20 
REMARK       I    between atoms: N_4  and  C_5 
REMARK    3  A    between atoms: C_5  and  C_11 
REMARK       I    between atoms: N_6  and  C_16 
REMARK    4  A    between atoms: N_7  and  C_11 
REMARK    5  A    between atoms: C_10  and  C_18 
REMARK    6  A    between atoms: C_11  and  C_12 
REMARK    7  A    between atoms: C_12  and  C_13 
REMARK    8  A    between atoms: C_13  and  C_14 
REMARK    9  A    between atoms: C_14  and  N_17 
REMARK       I    between atoms: N_15  and  C_16 
REMARK   10  A    between atoms: C_18  and  C_20 
ROOT
HETATM    1  C           1     -19.929  -7.163  -5.320  0.00  0.00     0.274 C 
ENDROOT
BRANCH   1   2
HETATM    2  C           1     -21.036  -7.577  -4.382  0.00  0.00     0.249 C 
HETATM    3  N           1     -20.797  -7.661  -3.036  0.00  0.00    -0.344 N 
HETATM    4  H           1     -19.878  -7.445  -2.671  0.00  0.00     0.163 HD
HETATM    5  O           1     -22.133  -7.834  -4.817  0.00  0.00    -0.271 OA
BRANCH   3   6
HETATM    6  C           1     -21.860  -8.059  -2.134  0.00  0.00     0.189 C 
BRANCH   6   7
HETATM    7  C           1     -22.363  -6.849  -1.386  0.00  0.00     0.197 C 
HETATM    8  O           1     -22.367  -5.728  -1.939  0.00  0.00    -0.646 OA
HETATM    9  O           1     -22.775  -6.967  -0.212  0.00  0.00    -0.646 OA
ENDBRANCH   6   7
BRANCH   6  10
HETATM   10  C           1     -21.326  -9.084  -1.142  0.00  0.00     0.014 C 
HETATM   11  C           1     -22.358 -10.188  -0.951  0.00  0.00     0.012 C 
BRANCH  10  12
HETATM   12  C           1     -20.033  -9.684  -1.680  0.00  0.00     0.002 C 
HETATM   13  C           1     -19.920 -11.134  -1.230  0.00  0.00     0.005 C 
ENDBRANCH  10  12
ENDBRANCH   6  10
ENDBRANCH   3   6
ENDBRANCH   1   2
BRANCH   1  14
HETATM   14  N           1     -19.294  -8.386  -5.914  0.00  0.00    -0.067 N 
HETATM   15  H           1     -18.265  -8.232  -6.009  0.00  0.00     0.275 HD
HETATM   16  H           1     -19.468  -9.206  -5.291  0.00  0.00     0.275 HD
HETATM   17  H           1     -19.707  -8.569  -6.856  0.00  0.00     0.275 HD
ENDBRANCH   1  14
BRANCH   1  18
HETATM   18  C           1     -20.504  -6.298  -6.434  0.00  0.00     0.044 C 
BRANCH  18  19
HETATM   19  C           1     -20.397  -4.829  -6.042  0.00  0.00     0.023 C 
BRANCH  19  20
HETATM   20  C           1     -20.766  -3.958  -7.234  0.00  0.00     0.138 C 
BRANCH  20  21
HETATM   21  N           1     -22.229  -3.834  -7.318  0.00  0.00    -0.227 N 
HETATM   22  C           1     -22.811  -3.958  -8.436  0.00  0.00     0.665 C 
HETATM   23  N           1     -22.117  -4.194  -9.509  0.00  0.00    -0.235 N 
HETATM   24  N           1     -24.071  -3.852  -8.509  0.00  0.00    -0.235 N 
HETATM   25  H           1     -22.597  -4.297 -10.432  0.00  0.00     0.174 HD
HETATM   26  H           1     -21.076  -4.282  -9.449  0.00  0.00     0.174 HD
HETATM   27  H           1     -24.555  -3.955  -9.435  0.00  0.00     0.174 HD
HETATM   28  H           1     -24.633  -3.662  -7.641  0.00  0.00     0.174 HD
HETATM   29  H           1     -22.790  -3.644  -6.453  0.00  0.00     0.177 HD
ENDBRANCH  20  21
ENDBRANCH  19  20
ENDBRANCH  18  19
ENDBRANCH   1  18
TORSDOF 10
ENDMDL
MODEL 9
REMARK VINA RESULT:      -6.2     14.083     15.332
REMARK  10 active torsions:
REMARK  status: ('A' for Active; 'I' for Inactive)
REMARK    1  A    between atoms: C_1  and  C_20 
REMARK    2  A    between atoms: N_4  and  C_20 
REMARK       I    between atoms: N_4  and  C_5 
REMARK    3  A    between atoms: C_5  and  C_11 
REMARK       I    between atoms: N_6  and  C_16 
REMARK    4  A    between atoms: N_7  and  C_11 
REMARK    5  A    between atoms: C_10  and  C_18 
REMARK    6  A    between atoms: C_11  and  C_12 
REMARK    7  A    between atoms: C_12  and  C_13 
REMARK    8  A    between atoms: C_13  and  C_14 
REMARK    9  A    between atoms: C_14  and  N_17 
REMARK       I    between atoms: N_15  and  C_16 
REMARK   10  A    between atoms: C_18  and  C_20 
ROOT
HETATM    1  C           1     -20.725  -5.646  -6.164  0.00  0.00     0.274 C 
ENDROOT
BRANCH   1   2
HETATM    2  C           1     -21.560  -6.359  -5.130  0.00  0.00     0.249 C 
HETATM    3  N           1     -20.956  -7.137  -4.178  0.00  0.00    -0.344 N 
HETATM    4  H           1     -19.948  -7.233  -4.169  0.00  0.00     0.163 HD
HETATM    5  O           1     -22.763  -6.245  -5.140  0.00  0.00    -0.271 OA
BRANCH   3   6
HETATM    6  C           1     -21.758  -7.823  -3.185  0.00  0.00     0.189 C 
BRANCH   6   7
HETATM    7  C           1     -21.765  -7.022  -1.905  0.00  0.00     0.197 C 
HETATM    8  O           1     -21.322  -7.525  -0.851  0.00  0.00    -0.646 OA
HETATM    9  O           1     -22.214  -5.856  -1.901  0.00  0.00    -0.646 OA
ENDBRANCH   6   7
BRANCH   6  10
HETATM   10  C           1     -21.166  -9.201  -2.918  0.00  0.00     0.014 C 
HETATM   11  C           1     -22.050 -10.264  -3.557  0.00  0.00     0.012 C 
BRANCH  10  12
HETATM   12  C           1     -19.767  -9.276  -3.517  0.00  0.00     0.002 C 
HETATM   13  C           1     -18.870 -10.110  -2.612  0.00  0.00     0.005 C 
ENDBRANCH  10  12
ENDBRANCH   6  10
ENDBRANCH   3   6
ENDBRANCH   1   2
BRANCH   1  14
HETATM   14  N           1     -19.781  -6.621  -6.802  0.00  0.00    -0.067 N 
HETATM   15  H           1     -20.325  -7.321  -7.355  0.00  0.00     0.275 HD
HETATM   16  H           1     -19.127  -6.109  -7.436  0.00  0.00     0.275 HD
HETATM   17  H           1     -19.235  -7.113  -6.060  0.00  0.00     0.275 HD
ENDBRANCH   1  14
BRANCH   1  18
HETATM   18  C           1     -21.635  -5.049  -7.229  0.00  0.00     0.044 C 
BRANCH  18  19
HETATM   19  C           1     -21.028  -3.750  -7.745  0.00  0.00     0.023 C 
BRANCH  19  20
HETATM   20  C           1     -20.334  -4.007  -9.075  0.00  0.00     0.138 C 
BRANCH  20  21
HETATM   21  N           1     -21.299  -4.573 -10.031  0.00  0.00    -0.227 N 
HETATM   22  C           1     -21.341  -4.138 -11.219  0.00  0.00     0.665 C 
HETATM   23  N           1     -20.532  -3.193 -11.595  0.00  0.00    -0.235 N 
HETATM   24  N           1     -22.171  -4.624 -12.042  0.00  0.00    -0.235 N 
HETATM   25  H           1     -20.566  -2.833 -12.576  0.00  0.00     0.174 HD
HETATM   26  H           1     -19.846  -2.791 -10.916  0.00  0.00     0.174 HD
HETATM   27  H           1     -22.207  -4.264 -13.028  0.00  0.00     0.174 HD
HETATM   28  H           1     -22.825  -5.388 -11.738  0.00  0.00     0.174 HD
HETATM   29  H           1     -21.952  -5.335  -9.727  0.00  0.00     0.177 HD
ENDBRANCH  20  21
ENDBRANCH  19  20
ENDBRANCH  18  19
ENDBRANCH   1  18
TORSDOF 10
ENDMDL
