MODEL 1
REMARK VINA RESULT:      -6.2      0.000      0.000
REMARK  5 active torsions:
REMARK  status: ('A' for Active; 'I' for Inactive)
REMARK    1  A    between atoms: C_1  and  C_4 
REMARK    2  A    between atoms: C_4  and  C_17 
REMARK    3  A    between atoms: C_4  and  N_7 
REMARK       I    between atoms: N_7  and  C_8 
REMARK    4  A    between atoms: C_8  and  C_12 
REMARK    5  A    between atoms: O_16  and  C_17 
ROOT
HETATM    1  O           1     -36.894  -1.052 -12.995  0.00  0.00    -0.271 OA
HETATM    2  N           1     -34.734  -1.568 -13.218  0.00  0.00    -0.342 N 
HETATM    3  C           1     -35.852  -0.865 -13.576  0.00  0.00     0.251 C 
HETATM    4  H           1     -33.860  -1.411 -13.705  0.00  0.00     0.163 HD
ENDROOT
BRANCH   2   5
HETATM    5  C           1     -34.799  -2.535 -12.140  0.00  0.00     0.214 C 
BRANCH   5   6
HETATM    6  C           1     -34.405  -1.871 -10.844  0.00  0.00     0.199 C 
HETATM    7  O           1     -35.285  -1.402 -10.089  0.00  0.00    -0.646 OA
HETATM    8  O           1     -33.199  -1.790 -10.524  0.00  0.00    -0.646 OA
ENDBRANCH   5   6
BRANCH   5   9
HETATM    9  C           1     -33.844  -3.685 -12.431  0.00  0.00     0.147 C 
HETATM   10  C           1     -34.301  -4.928 -11.679  0.00  0.00     0.042 C 
BRANCH   9  11
HETATM   11  O           1     -33.837  -3.949 -13.807  0.00  0.00    -0.393 OA
HETATM   12  H           1     -33.455  -3.198 -14.228  0.00  0.00     0.210 HD
ENDBRANCH   9  11
ENDBRANCH   5   9
ENDBRANCH   2   5
BRANCH   3  13
HETATM   13  C           1     -35.785   0.141 -14.699  0.00  0.00     0.311 C 
HETATM   14  N           1     -34.843  -0.290 -15.727  0.00  0.00     0.097 N 
HETATM   15  H           1     -34.590   0.489 -16.336  0.00  0.00     0.317 HD
HETATM   16  C           1     -35.564  -1.297 -16.501  0.00  0.00     0.271 C 
HETATM   17  C           1     -36.968  -0.730 -16.617  0.00  0.00     0.033 C 
HETATM   18  C           1     -37.112   0.220 -15.433  0.00  0.00     0.047 C 
ENDBRANCH   3  13
TORSDOF 5
ENDMDL
MODEL 2
REMARK VINA RESULT:      -5.9      3.527      5.419
REMARK  5 active torsions:
REMARK  status: ('A' for Active; 'I' for Inactive)
REMARK    1  A    between atoms: C_1  and  C_4 
REMARK    2  A    between atoms: C_4  and  C_17 
REMARK    3  A    between atoms: C_4  and  N_7 
REMARK       I    between atoms: N_7  and  C_8 
REMARK    4  A    between atoms: C_8  and  C_12 
REMARK    5  A    between atoms: O_16  and  C_17 
ROOT
HETATM    1  O           1     -36.106   1.108 -10.449  0.00  0.00    -0.271 OA
HETATM    2  N           1     -36.663  -1.014 -10.865  0.00  0.00    -0.342 N 
HETATM    3  C           1     -36.862   0.189 -10.243  0.00  0.00     0.251 C 
HETATM    4  H           1     -37.296  -1.784 -10.692  0.00  0.00     0.163 HD
ENDROOT
BRANCH   2   5
HETATM    5  C           1     -35.544  -1.186 -11.772  0.00  0.00     0.214 C 
BRANCH   5   6
HETATM    6  C           1     -36.030  -1.065 -13.195  0.00  0.00     0.199 C 
HETATM    7  O           1     -35.244  -1.280 -14.145  0.00  0.00    -0.646 OA
HETATM    8  O           1     -37.218  -0.752 -13.427  0.00  0.00    -0.646 OA
ENDBRANCH   5   6
BRANCH   5   9
HETATM    9  C           1     -34.926  -2.561 -11.561  0.00  0.00     0.147 C 
HETATM   10  C           1     -33.713  -2.438 -10.649  0.00  0.00     0.042 C 
BRANCH   9  11
HETATM   11  O           1     -35.869  -3.412 -10.971  0.00  0.00    -0.393 OA
HETATM   12  H           1     -36.117  -4.043 -11.625  0.00  0.00     0.210 HD
ENDBRANCH   9  11
ENDBRANCH   5   9
ENDBRANCH   2   5
BRANCH   3  13
HETATM   13  C           1     -38.025   0.367  -9.298  0.00  0.00     0.311 C 
HETATM   14  N           1     -37.850  -0.446  -8.099  0.00  0.00     0.097 N 
HETATM   15  H           1     -38.732  -0.544  -7.596  0.00  0.00     0.317 HD
HETATM   16  C           1     -36.899   0.296  -7.275  0.00  0.00     0.271 C 
HETATM   17  C           1     -37.331   1.743  -7.438  0.00  0.00     0.033 C 
HETATM   18  C           1     -38.075   1.790  -8.767  0.00  0.00     0.047 C 
ENDBRANCH   3  13
TORSDOF 5
ENDMDL
MODEL 3
REMARK VINA RESULT:      -5.5     24.855     25.587
REMARK  5 active torsions:
REMARK  status: ('A' for Active; 'I' for Inactive)
REMARK    1  A    between atoms: C_1  and  C_4 
REMARK    2  A    between atoms: C_4  and  C_17 
REMARK    3  A    between atoms: C_4  and  N_7 
REMARK       I    between atoms: N_7  and  C_8 
REMARK    4  A    between atoms: C_8  and  C_12 
REMARK    5  A    between atoms: O_16  and  C_17 
ROOT
HETATM    1  O           1     -12.774   7.675 -20.913  0.00  0.00    -0.271 OA
HETATM    2  N           1     -12.102   5.564 -20.634  0.00  0.00    -0.342 N 
HETATM    3  C           1     -12.002   6.907 -20.391  0.00  0.00     0.251 C 
HETATM    4  H           1     -11.455   4.920 -20.197  0.00  0.00     0.163 HD
ENDROOT
BRANCH   2   5
HETATM    5  C           1     -13.136   5.062 -21.518  0.00  0.00     0.214 C 
BRANCH   5   6
HETATM    6  C           1     -14.437   4.958 -20.761  0.00  0.00     0.199 C 
HETATM    7  O           1     -14.442   4.546 -19.581  0.00  0.00    -0.646 OA
HETATM    8  O           1     -15.510   5.287 -21.313  0.00  0.00    -0.646 OA
ENDBRANCH   5   6
BRANCH   5   9
HETATM    9  C           1     -12.738   3.687 -22.036  0.00  0.00     0.147 C 
HETATM   10  C           1     -11.710   3.069 -21.098  0.00  0.00     0.042 C 
BRANCH   9  11
HETATM   11  O           1     -13.871   2.863 -22.094  0.00  0.00    -0.393 OA
HETATM   12  H           1     -14.060   2.595 -21.211  0.00  0.00     0.210 HD
ENDBRANCH   9  11
ENDBRANCH   5   9
ENDBRANCH   2   5
BRANCH   3  13
HETATM   13  C           1     -10.925   7.430 -19.471  0.00  0.00     0.311 C 
HETATM   14  N           1      -9.611   6.947 -19.883  0.00  0.00     0.097 N 
HETATM   15  H           1      -8.930   7.062 -19.131  0.00  0.00     0.317 HD
HETATM   16  C           1      -9.235   7.790 -21.014  0.00  0.00     0.271 C 
HETATM   17  C           1      -9.697   9.177 -20.601  0.00  0.00     0.033 C 
HETATM   18  C           1     -10.806   8.940 -19.583  0.00  0.00     0.047 C 
ENDBRANCH   3  13
TORSDOF 5
ENDMDL
MODEL 4
REMARK VINA RESULT:      -5.2     15.297     16.809
REMARK  5 active torsions:
REMARK  status: ('A' for Active; 'I' for Inactive)
REMARK    1  A    between atoms: C_1  and  C_4 
REMARK    2  A    between atoms: C_4  and  C_17 
REMARK    3  A    between atoms: C_4  and  N_7 
REMARK       I    between atoms: N_7  and  C_8 
REMARK    4  A    between atoms: C_8  and  C_12 
REMARK    5  A    between atoms: O_16  and  C_17 
ROOT
HETATM    1  O           1     -22.663  -5.483  -5.956  0.00  0.00    -0.271 OA
HETATM    2  N           1     -20.725  -6.083  -5.025  0.00  0.00    -0.342 N 
HETATM    3  C           1     -21.480  -5.278  -5.834  0.00  0.00     0.251 C 
HETATM    4  H           1     -19.733  -5.911  -4.922  0.00  0.00     0.163 HD
ENDROOT
BRANCH   2   5
HETATM    5  C           1     -21.347  -7.183  -4.313  0.00  0.00     0.214 C 
BRANCH   5   6
HETATM    6  C           1     -21.492  -6.820  -2.856  0.00  0.00     0.199 C 
HETATM    7  O           1     -22.359  -5.991  -2.502  0.00  0.00    -0.646 OA
HETATM    8  O           1     -20.748  -7.350  -2.003  0.00  0.00    -0.646 OA
ENDBRANCH   5   6
BRANCH   5   9
HETATM    9  C           1     -20.478  -8.427  -4.442  0.00  0.00     0.147 C 
HETATM   10  C           1     -21.366  -9.654  -4.597  0.00  0.00     0.042 C 
BRANCH   9  11
HETATM   11  O           1     -19.651  -8.305  -5.567  0.00  0.00    -0.393 OA
HETATM   12  H           1     -20.191  -7.985  -6.270  0.00  0.00     0.210 HD
ENDBRANCH   9  11
ENDBRANCH   5   9
ENDBRANCH   2   5
BRANCH   3  13
HETATM   13  C           1     -20.833  -4.133  -6.575  0.00  0.00     0.311 C 
HETATM   14  N           1     -19.620  -4.575  -7.256  0.00  0.00     0.097 N 
HETATM   15  H           1     -19.042  -3.776  -7.521  0.00  0.00     0.317 HD
HETATM   16  C           1     -20.088  -5.259  -8.458  0.00  0.00     0.271 C 
HETATM   17  C           1     -21.238  -4.393  -8.943  0.00  0.00     0.033 C 
HETATM   18  C           1     -21.726  -3.649  -7.705  0.00  0.00     0.047 C 
ENDBRANCH   3  13
TORSDOF 5
ENDMDL
MODEL 5
REMARK VINA RESULT:      -5.2      3.023      4.452
REMARK  5 active torsions:
REMARK  status: ('A' for Active; 'I' for Inactive)
REMARK    1  A    between atoms: C_1  and  C_4 
REMARK    2  A    between atoms: C_4  and  C_17 
REMARK    3  A    between atoms: C_4  and  N_7 
REMARK       I    between atoms: N_7  and  C_8 
REMARK    4  A    between atoms: C_8  and  C_12 
REMARK    5  A    between atoms: O_16  and  C_17 
ROOT
HETATM    1  O           1     -35.487  -0.220 -11.641  0.00  0.00    -0.271 OA
HETATM    2  N           1     -35.441  -2.393 -11.130  0.00  0.00    -0.342 N 
HETATM    3  C           1     -36.008  -1.149 -11.071  0.00  0.00     0.251 C 
HETATM    4  H           1     -35.877  -3.171 -10.652  0.00  0.00     0.163 HD
ENDROOT
BRANCH   2   5
HETATM    5  C           1     -34.215  -2.597 -11.878  0.00  0.00     0.214 C 
BRANCH   5   6
HETATM    6  C           1     -34.539  -3.230 -13.208  0.00  0.00     0.199 C 
HETATM    7  O           1     -34.692  -4.469 -13.291  0.00  0.00    -0.646 OA
HETATM    8  O           1     -34.656  -2.517 -14.228  0.00  0.00    -0.646 OA
ENDBRANCH   5   6
BRANCH   5   9
HETATM    9  C           1     -33.287  -3.513 -11.092  0.00  0.00     0.147 C 
HETATM   10  C           1     -34.107  -4.598 -10.406  0.00  0.00     0.042 C 
BRANCH   9  11
HETATM   11  O           1     -32.366  -4.106 -11.964  0.00  0.00    -0.393 OA
HETATM   12  H           1     -32.105  -3.442 -12.580  0.00  0.00     0.210 HD
ENDBRANCH   9  11
ENDBRANCH   5   9
ENDBRANCH   2   5
BRANCH   3  13
HETATM   13  C           1     -37.283  -0.936 -10.292  0.00  0.00     0.311 C 
HETATM   14  N           1     -37.046  -1.076  -8.859  0.00  0.00     0.097 N 
HETATM   15  H           1     -37.925  -1.205  -8.358  0.00  0.00     0.317 HD
HETATM   16  C           1     -36.434   0.186  -8.452  0.00  0.00     0.271 C 
HETATM   17  C           1     -37.211   1.233  -9.231  0.00  0.00     0.033 C 
HETATM   18  C           1     -37.773   0.495 -10.440  0.00  0.00     0.047 C 
ENDBRANCH   3  13
TORSDOF 5
ENDMDL
MODEL 6
REMARK VINA RESULT:      -5.1     17.347     19.223
REMARK  5 active torsions:
REMARK  status: ('A' for Active; 'I' for Inactive)
REMARK    1  A    between atoms: C_1  and  C_4 
REMARK    2  A    between atoms: C_4  and  C_17 
REMARK    3  A    between atoms: C_4  and  N_7 
REMARK       I    between atoms: N_7  and  C_8 
REMARK    4  A    between atoms: C_8  and  C_12 
REMARK    5  A    between atoms: O_16  and  C_17 
ROOT
HETATM    1  O           1     -22.366 -10.480  -2.566  0.00  0.00    -0.271 OA
HETATM    2  N           1     -21.108  -8.712  -3.092  0.00  0.00    -0.342 N 
HETATM    3  C           1     -21.657  -9.579  -2.187  0.00  0.00     0.251 C 
HETATM    4  H           1     -20.515  -7.956  -2.774  0.00  0.00     0.163 HD
ENDROOT
BRANCH   2   5
HETATM    5  C           1     -21.377  -8.875  -4.508  0.00  0.00     0.214 C 
BRANCH   5   6
HETATM    6  C           1     -20.156  -9.441  -5.189  0.00  0.00     0.199 C 
HETATM    7  O           1     -19.017  -9.035  -4.870  0.00  0.00    -0.646 OA
HETATM    8  O           1     -20.282 -10.319  -6.070  0.00  0.00    -0.646 OA
ENDBRANCH   5   6
BRANCH   5   9
HETATM    9  C           1     -21.718  -7.523  -5.119  0.00  0.00     0.147 C 
HETATM   10  C           1     -21.371  -6.417  -4.132  0.00  0.00     0.042 C 
BRANCH   9  11
HETATM   11  O           1     -20.983  -7.344  -6.298  0.00  0.00    -0.393 OA
HETATM   12  H           1     -20.131  -7.032  -6.045  0.00  0.00     0.210 HD
ENDBRANCH   9  11
ENDBRANCH   5   9
ENDBRANCH   2   5
BRANCH   3  13
HETATM   13  C           1     -21.378  -9.409  -0.713  0.00  0.00     0.311 C 
HETATM   14  N           1     -21.043  -8.022  -0.405  0.00  0.00     0.097 N 
HETATM   15  H           1     -20.595  -7.953   0.510  0.00  0.00     0.317 HD
HETATM   16  C           1     -22.323  -7.321  -0.376  0.00  0.00     0.271 C 
HETATM   17  C           1     -23.254  -8.295   0.325  0.00  0.00     0.033 C 
HETATM   18  C           1     -22.630  -9.668   0.106  0.00  0.00     0.047 C 
ENDBRANCH   3  13
TORSDOF 5
ENDMDL
MODEL 7
REMARK VINA RESULT:      -5.0     25.177     25.924
REMARK  5 active torsions:
REMARK  status: ('A' for Active; 'I' for Inactive)
REMARK    1  A    between atoms: C_1  and  C_4 
REMARK    2  A    between atoms: C_4  and  C_17 
REMARK    3  A    between atoms: C_4  and  N_7 
REMARK       I    between atoms: N_7  and  C_8 
REMARK    4  A    between atoms: C_8  and  C_12 
REMARK    5  A    between atoms: O_16  and  C_17 
ROOT
HETATM    1  O           1     -13.337   7.655 -22.168  0.00  0.00    -0.271 OA
HETATM    2  N           1     -11.826   6.123 -21.572  0.00  0.00    -0.342 N 
HETATM    3  C           1     -12.179   7.390 -21.952  0.00  0.00     0.251 C 
HETATM    4  H           1     -10.855   5.901 -21.392  0.00  0.00     0.163 HD
ENDROOT
BRANCH   2   5
HETATM    5  C           1     -12.842   5.099 -21.427  0.00  0.00     0.214 C 
BRANCH   5   6
HETATM    6  C           1     -13.146   4.897 -19.963  0.00  0.00     0.199 C 
HETATM    7  O           1     -14.314   4.644 -19.596  0.00  0.00    -0.646 OA
HETATM    8  O           1     -12.229   4.981 -19.117  0.00  0.00    -0.646 OA
ENDBRANCH   5   6
BRANCH   5   9
HETATM    9  C           1     -12.337   3.794 -22.026  0.00  0.00     0.147 C 
HETATM   10  C           1     -10.835   3.890 -22.259  0.00  0.00     0.042 C 
BRANCH   9  11
HETATM   11  O           1     -12.605   2.739 -21.143  0.00  0.00    -0.393 OA
HETATM   12  H           1     -13.358   2.285 -21.480  0.00  0.00     0.210 HD
ENDBRANCH   9  11
ENDBRANCH   5   9
ENDBRANCH   2   5
BRANCH   3  13
HETATM   13  C           1     -11.121   8.455 -22.104  0.00  0.00     0.311 C 
HETATM   14  N           1     -11.601   9.739 -21.604  0.00  0.00     0.097 N 
HETATM   15  H           1     -11.015  10.503 -21.946  0.00  0.00     0.317 HD
HETATM   16  C           1     -11.483   9.647 -20.152  0.00  0.00     0.271 C 
HETATM   17  C           1     -10.160   8.933 -19.939  0.00  0.00     0.033 C 
HETATM   18  C           1      -9.919   8.151 -21.226  0.00  0.00     0.047 C 
ENDBRANCH   3  13
TORSDOF 5
ENDMDL
MODEL 8
REMARK VINA RESULT:      -4.9     25.091     25.824
REMARK  5 active torsions:
REMARK  status: ('A' for Active; 'I' for Inactive)
REMARK    1  A    between atoms: C_1  and  C_4 
REMARK    2  A    between atoms: C_4  and  C_17 
REMARK    3  A    between atoms: C_4  and  N_7 
REMARK       I    between atoms: N_7  and  C_8 
REMARK    4  A    between atoms: C_8  and  C_12 
REMARK    5  A    between atoms: O_16  and  C_17 
ROOT
HETATM    1  O           1     -12.078   7.081 -22.667  0.00  0.00    -0.271 OA
HETATM    2  N           1     -12.659   6.809 -20.529  0.00  0.00    -0.342 N 
HETATM    3  C           1     -12.179   7.564 -21.565  0.00  0.00     0.251 C 
HETATM    4  H           1     -12.744   7.214 -19.605  0.00  0.00     0.163 HD
ENDROOT
BRANCH   2   5
HETATM    5  C           1     -13.047   5.430 -20.754  0.00  0.00     0.214 C 
BRANCH   5   6
HETATM    6  C           1     -14.542   5.299 -20.606  0.00  0.00     0.199 C 
HETATM    7  O           1     -15.274   5.307 -21.620  0.00  0.00    -0.646 OA
HETATM    8  O           1     -15.050   5.180 -19.470  0.00  0.00    -0.646 OA
ENDBRANCH   5   6
BRANCH   5   9
HETATM    9  C           1     -12.355   4.535 -19.734  0.00  0.00     0.147 C 
HETATM   10  C           1     -11.513   3.495 -20.460  0.00  0.00     0.042 C 
BRANCH   9  11
HETATM   11  O           1     -11.530   5.314 -18.913  0.00  0.00    -0.393 OA
HETATM   12  H           1     -11.974   6.133 -18.775  0.00  0.00     0.210 HD
ENDBRANCH   9  11
ENDBRANCH   5   9
ENDBRANCH   2   5
BRANCH   3  13
HETATM   13  C           1     -11.774   8.999 -21.331  0.00  0.00     0.311 C 
HETATM   14  N           1     -10.987   9.123 -20.108  0.00  0.00     0.097 N 
HETATM   15  H           1     -10.946  10.096 -19.802  0.00  0.00     0.317 HD
HETATM   16  C           1      -9.648   8.670 -20.473  0.00  0.00     0.271 C 
HETATM   17  C           1      -9.431   9.257 -21.856  0.00  0.00     0.033 C 
HETATM   18  C           1     -10.830   9.477 -22.420  0.00  0.00     0.047 C 
ENDBRANCH   3  13
TORSDOF 5
ENDMDL
MODEL 9
REMARK VINA RESULT:      -4.8     17.543     19.335
REMARK  5 active torsions:
REMARK  status: ('A' for Active; 'I' for Inactive)
REMARK    1  A    between atoms: C_1  and  C_4 
REMARK    2  A    between atoms: C_4  and  C_17 
REMARK    3  A    between atoms: C_4  and  N_7 
REMARK       I    between atoms: N_7  and  C_8 
REMARK    4  A    between atoms: C_8  and  C_12 
REMARK    5  A    between atoms: O_16  and  C_17 
ROOT
HETATM    1  O           1     -19.474  -8.829  -1.643  0.00  0.00    -0.271 OA
HETATM    2  N           1     -21.356  -8.496  -2.797  0.00  0.00    -0.342 N 
HETATM    3  C           1     -20.663  -9.018  -1.738  0.00  0.00     0.251 C 
HETATM    4  H           1     -22.352  -8.655  -2.877  0.00  0.00     0.163 HD
ENDROOT
BRANCH   2   5
HETATM    5  C           1     -20.663  -7.715  -3.803  0.00  0.00     0.214 C 
BRANCH   5   6
HETATM    6  C           1     -21.373  -6.397  -3.993  0.00  0.00     0.199 C 
HETATM    7  O           1     -20.817  -5.472  -4.624  0.00  0.00    -0.646 OA
HETATM    8  O           1     -22.519  -6.231  -3.520  0.00  0.00    -0.646 OA
ENDBRANCH   5   6
BRANCH   5   9
HETATM    9  C           1     -20.651  -8.479  -5.120  0.00  0.00     0.147 C 
HETATM   10  C           1     -21.281  -9.851  -4.917  0.00  0.00     0.042 C 
BRANCH   9  11
HETATM   11  O           1     -21.382  -7.767  -6.080  0.00  0.00    -0.393 OA
HETATM   12  H           1     -21.233  -6.852  -5.916  0.00  0.00     0.210 HD
ENDBRANCH   9  11
ENDBRANCH   5   9
ENDBRANCH   2   5
BRANCH   3  13
HETATM   13  C           1     -21.384  -9.832  -0.691  0.00  0.00     0.311 C 
HETATM   14  N           1     -20.950  -9.455   0.650  0.00  0.00     0.097 N 
HETATM   15  H           1     -21.216 -10.167   1.330  0.00  0.00     0.317 HD
HETATM   16  C           1     -21.659  -8.212   0.941  0.00  0.00     0.271 C 
HETATM   17  C           1     -23.050  -8.449   0.379  0.00  0.00     0.033 C 
HETATM   18  C           1     -22.870  -9.517  -0.693  0.00  0.00     0.047 C 
ENDBRANCH   3  13
TORSDOF 5
ENDMDL
