MODEL 1
REMARK VINA RESULT:      -6.2      0.000      0.000
REMARK  6 active torsions:
REMARK  status: ('A' for Active; 'I' for Inactive)
REMARK    1  A    between atoms: C_5  and  C_12 
REMARK       I    between atoms: C_8  and  N_11 
REMARK    2  A    between atoms: C_8  and  C_13 
REMARK    3  A    between atoms: N_11  and  C_16 
REMARK    4  A    between atoms: C_12  and  C_16 
REMARK    5  A    between atoms: C_13  and  N_14 
REMARK    6  A    between atoms: C_15  and  C_16 
ROOT
HETATM    1  O           1     -35.661  -1.097 -14.048  0.00  0.00    -0.272 OA
HETATM    2  H           1     -34.105   0.222 -11.664  0.00  0.00     0.163 HD
HETATM    3  C           1     -35.068  -0.240 -13.437  0.00  0.00     0.243 C 
HETATM    4  N           1     -34.602  -0.497 -12.175  0.00  0.00    -0.345 N 
ENDROOT
BRANCH   4   5
HETATM    5  C           1     -34.819  -1.797 -11.573  0.00  0.00     0.185 C 
BRANCH   5   6
HETATM    6  C           1     -33.536  -2.265 -10.899  0.00  0.00     0.040 C 
BRANCH   6   7
HETATM    7  C           1     -33.200  -3.674 -11.366  0.00  0.00    -0.020 C 
HETATM    8  C           1     -33.921  -4.686 -10.485  0.00  0.00     0.009 C 
HETATM    9  C           1     -33.648  -3.849 -12.812  0.00  0.00     0.009 C 
ENDBRANCH   6   7
ENDBRANCH   5   6
BRANCH   5  10
HETATM   10  C           1     -35.920  -1.697 -10.546  0.00  0.00     0.196 C 
HETATM   11  O           1     -35.937  -0.744  -9.738  0.00  0.00    -0.646 OA
HETATM   12  O           1     -36.817  -2.568 -10.505  0.00  0.00    -0.646 OA
ENDBRANCH   5  10
ENDBRANCH   4   5
BRANCH   3  13
HETATM   13  C           1     -34.842   1.114 -14.064  0.00  0.00     0.332 C 
BRANCH  13  14
HETATM   14  N           1     -35.878   1.356 -15.120  0.00  0.00    -0.071 N 
HETATM   15  H           1     -35.474   1.957 -15.874  0.00  0.00     0.274 HD
HETATM   16  H           1     -36.180   0.442 -15.529  0.00  0.00     0.274 HD
HETATM   17  H           1     -36.703   1.836 -14.696  0.00  0.00     0.274 HD
ENDBRANCH  13  14
ENDBRANCH   3  13
TORSDOF 6
ENDMDL
MODEL 2
REMARK VINA RESULT:      -5.8     10.285     11.612
REMARK  6 active torsions:
REMARK  status: ('A' for Active; 'I' for Inactive)
REMARK    1  A    between atoms: C_5  and  C_12 
REMARK       I    between atoms: C_8  and  N_11 
REMARK    2  A    between atoms: C_8  and  C_13 
REMARK    3  A    between atoms: N_11  and  C_16 
REMARK    4  A    between atoms: C_12  and  C_16 
REMARK    5  A    between atoms: C_13  and  N_14 
REMARK    6  A    between atoms: C_15  and  C_16 
ROOT
HETATM    1  O           1     -24.272  -6.455 -18.556  0.00  0.00    -0.272 OA
HETATM    2  H           1     -27.361  -6.997 -18.628  0.00  0.00     0.163 HD
HETATM    3  C           1     -25.329  -6.842 -18.992  0.00  0.00     0.243 C 
HETATM    4  N           1     -26.475  -6.672 -18.262  0.00  0.00    -0.345 N 
ENDROOT
BRANCH   4   5
HETATM    5  C           1     -26.419  -6.027 -16.965  0.00  0.00     0.185 C 
BRANCH   5   6
HETATM    6  C           1     -27.722  -5.280 -16.713  0.00  0.00     0.040 C 
BRANCH   6   7
HETATM    7  C           1     -28.746  -5.674 -17.769  0.00  0.00    -0.020 C 
HETATM    8  C           1     -29.861  -6.482 -17.118  0.00  0.00     0.009 C 
HETATM    9  C           1     -29.332  -4.417 -18.400  0.00  0.00     0.009 C 
ENDBRANCH   6   7
ENDBRANCH   5   6
BRANCH   5  10
HETATM   10  C           1     -26.221  -7.070 -15.893  0.00  0.00     0.196 C 
HETATM   11  O           1     -25.067  -7.441 -15.587  0.00  0.00    -0.646 OA
HETATM   12  O           1     -27.212  -7.564 -15.311  0.00  0.00    -0.646 OA
ENDBRANCH   5  10
ENDBRANCH   4   5
BRANCH   3  13
HETATM   13  C           1     -25.388  -7.514 -20.342  0.00  0.00     0.332 C 
BRANCH  13  14
HETATM   14  N           1     -26.806  -7.893 -20.651  0.00  0.00    -0.071 N 
HETATM   15  H           1     -27.224  -8.380 -19.825  0.00  0.00     0.274 HD
HETATM   16  H           1     -27.359  -7.032 -20.863  0.00  0.00     0.274 HD
HETATM   17  H           1     -26.824  -8.531 -21.478  0.00  0.00     0.274 HD
ENDBRANCH  13  14
ENDBRANCH   3  13
TORSDOF 6
ENDMDL
MODEL 3
REMARK VINA RESULT:      -5.5     12.121     13.552
REMARK  6 active torsions:
REMARK  status: ('A' for Active; 'I' for Inactive)
REMARK    1  A    between atoms: C_5  and  C_12 
REMARK       I    between atoms: C_8  and  N_11 
REMARK    2  A    between atoms: C_8  and  C_13 
REMARK    3  A    between atoms: N_11  and  C_16 
REMARK    4  A    between atoms: C_12  and  C_16 
REMARK    5  A    between atoms: C_13  and  N_14 
REMARK    6  A    between atoms: C_15  and  C_16 
ROOT
HETATM    1  O           1     -21.563  -3.293  -7.706  0.00  0.00    -0.272 OA
HETATM    2  H           1     -23.617  -5.458  -8.673  0.00  0.00     0.163 HD
HETATM    3  C           1     -22.243  -4.289  -7.657  0.00  0.00     0.243 C 
HETATM    4  N           1     -23.047  -4.623  -8.715  0.00  0.00    -0.345 N 
ENDROOT
BRANCH   4   5
HETATM    5  C           1     -23.081  -3.780  -9.893  0.00  0.00     0.185 C 
BRANCH   5   6
HETATM    6  C           1     -22.608  -4.577 -11.101  0.00  0.00     0.040 C 
BRANCH   6   7
HETATM    7  C           1     -21.228  -4.092 -11.523  0.00  0.00    -0.020 C 
HETATM    8  C           1     -21.155  -2.578 -11.374  0.00  0.00     0.009 C 
HETATM    9  C           1     -20.171  -4.741 -10.638  0.00  0.00     0.009 C 
ENDBRANCH   6   7
ENDBRANCH   5   6
BRANCH   5  10
HETATM   10  C           1     -24.493  -3.300 -10.127  0.00  0.00     0.196 C 
HETATM   11  O           1     -25.128  -2.753  -9.200  0.00  0.00    -0.646 OA
HETATM   12  O           1     -25.026  -3.451 -11.248  0.00  0.00    -0.646 OA
ENDBRANCH   5  10
ENDBRANCH   4   5
BRANCH   3  13
HETATM   13  C           1     -22.208  -5.168  -6.430  0.00  0.00     0.332 C 
BRANCH  13  14
HETATM   14  N           1     -21.158  -6.225  -6.603  0.00  0.00    -0.071 N 
HETATM   15  H           1     -20.610  -6.319  -5.717  0.00  0.00     0.274 HD
HETATM   16  H           1     -21.615  -7.137  -6.828  0.00  0.00     0.274 HD
HETATM   17  H           1     -20.517  -5.955  -7.382  0.00  0.00     0.274 HD
ENDBRANCH  13  14
ENDBRANCH   3  13
TORSDOF 6
ENDMDL
MODEL 4
REMARK VINA RESULT:      -5.5      9.647     11.177
REMARK  6 active torsions:
REMARK  status: ('A' for Active; 'I' for Inactive)
REMARK    1  A    between atoms: C_5  and  C_12 
REMARK       I    between atoms: C_8  and  N_11 
REMARK    2  A    between atoms: C_8  and  C_13 
REMARK    3  A    between atoms: N_11  and  C_16 
REMARK    4  A    between atoms: C_12  and  C_16 
REMARK    5  A    between atoms: C_13  and  N_14 
REMARK    6  A    between atoms: C_15  and  C_16 
ROOT
HETATM    1  O           1     -25.989  -6.333 -18.110  0.00  0.00    -0.272 OA
HETATM    2  H           1     -28.128  -7.112 -20.270  0.00  0.00     0.163 HD
HETATM    3  C           1     -26.419  -6.684 -19.183  0.00  0.00     0.243 C 
HETATM    4  N           1     -27.769  -6.819 -19.370  0.00  0.00    -0.345 N 
ENDROOT
BRANCH   4   5
HETATM    5  C           1     -28.683  -6.541 -18.279  0.00  0.00     0.185 C 
BRANCH   5   6
HETATM    6  C           1     -29.195  -5.112 -18.399  0.00  0.00     0.040 C 
BRANCH   6   7
HETATM    7  C           1     -28.512  -4.238 -17.355  0.00  0.00    -0.020 C 
HETATM    8  C           1     -29.241  -2.904 -17.255  0.00  0.00     0.009 C 
HETATM    9  C           1     -28.550  -4.940 -16.003  0.00  0.00     0.009 C 
ENDBRANCH   6   7
ENDBRANCH   5   6
BRANCH   5  10
HETATM   10  C           1     -29.846  -7.500 -18.343  0.00  0.00     0.196 C 
HETATM   11  O           1     -29.801  -8.488 -19.107  0.00  0.00    -0.646 OA
HETATM   12  O           1     -30.855  -7.306 -17.630  0.00  0.00    -0.646 OA
ENDBRANCH   5  10
ENDBRANCH   4   5
BRANCH   3  13
HETATM   13  C           1     -25.468  -6.973 -20.319  0.00  0.00     0.332 C 
BRANCH  13  14
HETATM   14  N           1     -25.907  -8.215 -21.034  0.00  0.00    -0.071 N 
HETATM   15  H           1     -25.338  -9.028 -20.704  0.00  0.00     0.274 HD
HETATM   16  H           1     -26.917  -8.395 -20.836  0.00  0.00     0.274 HD
HETATM   17  H           1     -25.772  -8.091 -22.063  0.00  0.00     0.274 HD
ENDBRANCH  13  14
ENDBRANCH   3  13
TORSDOF 6
ENDMDL
MODEL 5
REMARK VINA RESULT:      -5.5      2.386      4.475
REMARK  6 active torsions:
REMARK  status: ('A' for Active; 'I' for Inactive)
REMARK    1  A    between atoms: C_5  and  C_12 
REMARK       I    between atoms: C_8  and  N_11 
REMARK    2  A    between atoms: C_8  and  C_13 
REMARK    3  A    between atoms: N_11  and  C_16 
REMARK    4  A    between atoms: C_12  and  C_16 
REMARK    5  A    between atoms: C_13  and  N_14 
REMARK    6  A    between atoms: C_15  and  C_16 
ROOT
HETATM    1  O           1     -38.070  -0.713 -11.323  0.00  0.00    -0.272 OA
HETATM    2  H           1     -35.379   0.888 -11.122  0.00  0.00     0.163 HD
HETATM    3  C           1     -37.259   0.058 -10.869  0.00  0.00     0.243 C 
HETATM    4  N           1     -36.059   0.241 -11.503  0.00  0.00    -0.345 N 
ENDROOT
BRANCH   4   5
HETATM    5  C           1     -35.763  -0.489 -12.720  0.00  0.00     0.185 C 
BRANCH   5   6
HETATM    6  C           1     -35.189   0.465 -13.758  0.00  0.00     0.040 C 
BRANCH   6   7
HETATM    7  C           1     -36.042   0.418 -15.018  0.00  0.00    -0.020 C 
HETATM    8  C           1     -35.493  -0.642 -15.964  0.00  0.00     0.009 C 
HETATM    9  C           1     -37.478   0.072 -14.646  0.00  0.00     0.009 C 
ENDBRANCH   6   7
ENDBRANCH   5   6
BRANCH   5  10
HETATM   10  C           1     -34.756  -1.573 -12.421  0.00  0.00     0.196 C 
HETATM   11  O           1     -34.011  -1.477 -11.422  0.00  0.00    -0.646 OA
HETATM   12  O           1     -34.667  -2.568 -13.174  0.00  0.00    -0.646 OA
ENDBRANCH   5  10
ENDBRANCH   4   5
BRANCH   3  13
HETATM   13  C           1     -37.567   0.819  -9.603  0.00  0.00     0.332 C 
BRANCH  13  14
HETATM   14  N           1     -36.286   1.208  -8.929  0.00  0.00    -0.071 N 
HETATM   15  H           1     -35.619   0.402  -8.955  0.00  0.00     0.274 HD
HETATM   16  H           1     -35.863   2.024  -9.426  0.00  0.00     0.274 HD
HETATM   17  H           1     -36.479   1.467  -7.935  0.00  0.00     0.274 HD
ENDBRANCH  13  14
ENDBRANCH   3  13
TORSDOF 6
ENDMDL
MODEL 6
REMARK VINA RESULT:      -5.3      2.097      4.317
REMARK  6 active torsions:
REMARK  status: ('A' for Active; 'I' for Inactive)
REMARK    1  A    between atoms: C_5  and  C_12 
REMARK       I    between atoms: C_8  and  N_11 
REMARK    2  A    between atoms: C_8  and  C_13 
REMARK    3  A    between atoms: N_11  and  C_16 
REMARK    4  A    between atoms: C_12  and  C_16 
REMARK    5  A    between atoms: C_13  and  N_14 
REMARK    6  A    between atoms: C_15  and  C_16 
ROOT
HETATM    1  O           1     -33.323  -1.812 -10.595  0.00  0.00    -0.272 OA
HETATM    2  H           1     -35.755  -3.081 -12.117  0.00  0.00     0.163 HD
HETATM    3  C           1     -34.001  -2.678 -11.095  0.00  0.00     0.243 C 
HETATM    4  N           1     -35.187  -2.355 -11.697  0.00  0.00    -0.345 N 
ENDROOT
BRANCH   4   5
HETATM    5  C           1     -35.630  -0.975 -11.735  0.00  0.00     0.185 C 
BRANCH   5   6
HETATM    6  C           1     -36.252  -0.679 -13.093  0.00  0.00     0.040 C 
BRANCH   6   7
HETATM    7  C           1     -35.159  -0.295 -14.081  0.00  0.00    -0.020 C 
HETATM    8  C           1     -35.720  -0.328 -15.496  0.00  0.00     0.009 C 
HETATM    9  C           1     -34.659   1.109 -13.765  0.00  0.00     0.009 C 
ENDBRANCH   6   7
ENDBRANCH   5   6
BRANCH   5  10
HETATM   10  C           1     -36.654  -0.747 -10.650  0.00  0.00     0.196 C 
HETATM   11  O           1     -36.296  -0.324  -9.530  0.00  0.00    -0.646 OA
HETATM   12  O           1     -37.862  -0.982 -10.873  0.00  0.00    -0.646 OA
ENDBRANCH   5  10
ENDBRANCH   4   5
BRANCH   3  13
HETATM   13  C           1     -33.540  -4.114 -11.057  0.00  0.00     0.332 C 
BRANCH  13  14
HETATM   14  N           1     -32.670  -4.392 -12.246  0.00  0.00    -0.071 N 
HETATM   15  H           1     -33.269  -4.542 -13.089  0.00  0.00     0.274 HD
HETATM   16  H           1     -32.034  -3.579 -12.411  0.00  0.00     0.274 HD
HETATM   17  H           1     -32.099  -5.249 -12.067  0.00  0.00     0.274 HD
ENDBRANCH  13  14
ENDBRANCH   3  13
TORSDOF 6
ENDMDL
MODEL 7
REMARK VINA RESULT:      -5.2      9.318     10.837
REMARK  6 active torsions:
REMARK  status: ('A' for Active; 'I' for Inactive)
REMARK    1  A    between atoms: C_5  and  C_12 
REMARK       I    between atoms: C_8  and  N_11 
REMARK    2  A    between atoms: C_8  and  C_13 
REMARK    3  A    between atoms: N_11  and  C_16 
REMARK    4  A    between atoms: C_12  and  C_16 
REMARK    5  A    between atoms: C_13  and  N_14 
REMARK    6  A    between atoms: C_15  and  C_16 
ROOT
HETATM    1  O           1     -27.128  -6.171 -20.081  0.00  0.00    -0.272 OA
HETATM    2  H           1     -26.171  -6.653 -17.133  0.00  0.00     0.163 HD
HETATM    3  C           1     -26.374  -6.459 -19.184  0.00  0.00     0.243 C 
HETATM    4  N           1     -26.804  -6.411 -17.885  0.00  0.00    -0.345 N 
ENDROOT
BRANCH   4   5
HETATM    5  C           1     -28.166  -6.014 -17.587  0.00  0.00     0.185 C 
BRANCH   5   6
HETATM    6  C           1     -28.830  -7.082 -16.729  0.00  0.00     0.040 C 
BRANCH   6   7
HETATM    7  C           1     -30.151  -7.497 -17.364  0.00  0.00    -0.020 C 
HETATM    8  C           1     -31.129  -6.331 -17.306  0.00  0.00     0.009 C 
HETATM    9  C           1     -29.913  -7.888 -18.817  0.00  0.00     0.009 C 
ENDBRANCH   6   7
ENDBRANCH   5   6
BRANCH   5  10
HETATM   10  C           1     -28.154  -4.703 -16.839  0.00  0.00     0.196 C 
HETATM   11  O           1     -28.516  -3.653 -17.412  0.00  0.00    -0.646 OA
HETATM   12  O           1     -27.783  -4.669 -15.645  0.00  0.00    -0.646 OA
ENDBRANCH   5  10
ENDBRANCH   4   5
BRANCH   3  13
HETATM   13  C           1     -24.956  -6.874 -19.494  0.00  0.00     0.332 C 
BRANCH  13  14
HETATM   14  N           1     -24.308  -7.406 -18.251  0.00  0.00    -0.071 N 
HETATM   15  H           1     -24.523  -6.774 -17.447  0.00  0.00     0.274 HD
HETATM   16  H           1     -24.675  -8.364 -18.048  0.00  0.00     0.274 HD
HETATM   17  H           1     -23.273  -7.453 -18.390  0.00  0.00     0.274 HD
ENDBRANCH  13  14
ENDBRANCH   3  13
TORSDOF 6
ENDMDL
MODEL 8
REMARK VINA RESULT:      -4.7     15.379     17.006
REMARK  6 active torsions:
REMARK  status: ('A' for Active; 'I' for Inactive)
REMARK    1  A    between atoms: C_5  and  C_12 
REMARK       I    between atoms: C_8  and  N_11 
REMARK    2  A    between atoms: C_8  and  C_13 
REMARK    3  A    between atoms: N_11  and  C_16 
REMARK    4  A    between atoms: C_12  and  C_16 
REMARK    5  A    between atoms: C_13  and  N_14 
REMARK    6  A    between atoms: C_15  and  C_16 
ROOT
HETATM    1  O           1     -19.398  -8.656  -4.115  0.00  0.00    -0.272 OA
HETATM    2  H           1     -21.566  -8.557  -6.381  0.00  0.00     0.163 HD
HETATM    3  C           1     -20.170  -9.077  -4.944  0.00  0.00     0.243 C 
HETATM    4  N           1     -20.920  -8.204  -5.686  0.00  0.00    -0.345 N 
ENDROOT
BRANCH   4   5
HETATM    5  C           1     -20.789  -6.776  -5.478  0.00  0.00     0.185 C 
BRANCH   5   6
HETATM    6  C           1     -20.839  -6.060  -6.821  0.00  0.00     0.040 C 
BRANCH   6   7
HETATM    7  C           1     -20.308  -4.642  -6.662  0.00  0.00    -0.020 C 
HETATM    8  C           1     -19.006  -4.498  -7.439  0.00  0.00     0.009 C 
HETATM    9  C           1     -21.333  -3.653  -7.201  0.00  0.00     0.009 C 
ENDBRANCH   6   7
ENDBRANCH   5   6
BRANCH   5  10
HETATM   10  C           1     -21.920  -6.290  -4.605  0.00  0.00     0.196 C 
HETATM   11  O           1     -21.705  -5.988  -3.412  0.00  0.00    -0.646 OA
HETATM   12  O           1     -23.074  -6.188  -5.078  0.00  0.00    -0.646 OA
ENDBRANCH   5  10
ENDBRANCH   4   5
BRANCH   3  13
HETATM   13  C           1     -20.307 -10.564  -5.162  0.00  0.00     0.332 C 
BRANCH  13  14
HETATM   14  N           1     -21.106 -10.815  -6.405  0.00  0.00    -0.071 N 
HETATM   15  H           1     -21.744 -10.006  -6.579  0.00  0.00     0.274 HD
HETATM   16  H           1     -20.459 -10.929  -7.219  0.00  0.00     0.274 HD
HETATM   17  H           1     -21.671 -11.686  -6.286  0.00  0.00     0.274 HD
ENDBRANCH  13  14
ENDBRANCH   3  13
TORSDOF 6
ENDMDL
MODEL 9
REMARK VINA RESULT:      -4.6     13.745     15.249
REMARK  6 active torsions:
REMARK  status: ('A' for Active; 'I' for Inactive)
REMARK    1  A    between atoms: C_5  and  C_12 
REMARK       I    between atoms: C_8  and  N_11 
REMARK    2  A    between atoms: C_8  and  C_13 
REMARK    3  A    between atoms: N_11  and  C_16 
REMARK    4  A    between atoms: C_12  and  C_16 
REMARK    5  A    between atoms: C_13  and  N_14 
REMARK    6  A    between atoms: C_15  and  C_16 
ROOT
HETATM    1  O           1     -21.057  -7.125  -6.670  0.00  0.00    -0.272 OA
HETATM    2  H           1     -21.435  -4.073  -6.049  0.00  0.00     0.163 HD
HETATM    3  C           1     -21.158  -6.124  -6.002  0.00  0.00     0.243 C 
HETATM    4  N           1     -21.350  -4.911  -6.610  0.00  0.00    -0.345 N 
ENDROOT
BRANCH   4   5
HETATM    5  C           1     -21.432  -4.829  -8.055  0.00  0.00     0.185 C 
BRANCH   5   6
HETATM    6  C           1     -22.326  -3.661  -8.447  0.00  0.00     0.040 C 
BRANCH   6   7
HETATM    7  C           1     -23.175  -4.051  -9.649  0.00  0.00    -0.020 C 
HETATM    8  C           1     -24.561  -3.434  -9.513  0.00  0.00     0.009 C 
HETATM    9  C           1     -22.514  -3.540 -10.923  0.00  0.00     0.009 C 
ENDBRANCH   6   7
ENDBRANCH   5   6
BRANCH   5  10
HETATM   10  C           1     -20.050  -4.620  -8.625  0.00  0.00     0.196 C 
HETATM   11  O           1     -19.173  -4.045  -7.944  0.00  0.00    -0.646 OA
HETATM   12  O           1     -19.783  -5.023  -9.778  0.00  0.00    -0.646 OA
ENDBRANCH   5  10
ENDBRANCH   4   5
BRANCH   3  13
HETATM   13  C           1     -21.073  -6.208  -4.498  0.00  0.00     0.332 C 
BRANCH  13  14
HETATM   14  N           1     -22.456  -6.235  -3.920  0.00  0.00    -0.071 N 
HETATM   15  H           1     -22.516  -6.984  -3.193  0.00  0.00     0.274 HD
HETATM   16  H           1     -22.671  -5.309  -3.484  0.00  0.00     0.274 HD
HETATM   17  H           1     -23.148  -6.430  -4.679  0.00  0.00     0.274 HD
ENDBRANCH  13  14
ENDBRANCH   3  13
TORSDOF 6
ENDMDL
