MODEL 1
REMARK VINA RESULT:      -4.9      0.000      0.000
REMARK  8 active torsions:
REMARK  status: ('A' for Active; 'I' for Inactive)
REMARK    1  A    between atoms: C_3  and  C_19 
REMARK    2  A    between atoms: N_6  and  C_19 
REMARK       I    between atoms: N_6  and  C_7 
REMARK    3  A    between atoms: C_7  and  C_8 
REMARK    4  A    between atoms: C_8  and  C_9 
REMARK    5  A    between atoms: C_8  and  N_11 
REMARK    6  A    between atoms: C_9  and  Se_10 
REMARK    7  A    between atoms: Se_17  and  C_18 
REMARK    8  A    between atoms: C_18  and  C_19 
ROOT
HETATM    1  N           1     -34.944  -1.674 -13.033  0.00  0.00    -0.345 N 
HETATM    2  C           1     -34.276  -2.583 -12.256  0.00  0.00     0.249 C 
HETATM    3  O           1     -33.766  -2.231 -11.219  0.00  0.00    -0.271 OA
HETATM    4  H           1     -35.373  -1.969 -13.901  0.00  0.00     0.163 HD
ENDROOT
BRANCH   2   5
HETATM    5  C           1     -34.179  -4.023 -12.695  0.00  0.00     0.274 C 
BRANCH   5   6
HETATM    6  C           1     -33.238  -4.776 -11.762  0.00  0.00     0.045 C 
BRANCH   6   7
HETATM    7 Se           1     -34.263  -6.029 -10.677  0.00  0.00     0.000 Se
HETATM    8  H           1     -33.194  -6.222  -9.684  0.00  0.00     0.000 HD
ENDBRANCH   6   7
ENDBRANCH   5   6
BRANCH   5   9
HETATM    9  N           1     -33.647  -4.084 -14.096  0.00  0.00    -0.067 N 
HETATM   10  H           1     -33.213  -3.166 -14.343  0.00  0.00     0.275 HD
HETATM   11  H           1     -32.927  -4.838 -14.163  0.00  0.00     0.275 HD
HETATM   12  H           1     -34.431  -4.288 -14.757  0.00  0.00     0.275 HD
ENDBRANCH   5   9
ENDBRANCH   2   5
BRANCH   1  13
HETATM   13  C           1     -35.037  -0.290 -12.611  0.00  0.00     0.185 C 
BRANCH  13  14
HETATM   14  C           1     -36.304  -0.092 -11.815  0.00  0.00     0.196 C 
HETATM   15  O           1     -37.382  -0.568 -12.229  0.00  0.00    -0.646 OA
HETATM   16  O           1     -36.274   0.549 -10.742  0.00  0.00    -0.646 OA
ENDBRANCH  13  14
BRANCH  13  17
HETATM   17  C           1     -35.061   0.612 -13.838  0.00  0.00     0.039 C 
BRANCH  17  18
HETATM   18 Se           1     -35.689  -0.403 -15.379  0.00  0.00     0.000 Se
HETATM   19  H           1     -34.641  -1.432 -15.275  0.00  0.00     0.000 HD
ENDBRANCH  17  18
ENDBRANCH  13  17
ENDBRANCH   1  13
TORSDOF 8
ENDMDL
MODEL 2
REMARK VINA RESULT:      -4.8     12.196     13.766
REMARK  8 active torsions:
REMARK  status: ('A' for Active; 'I' for Inactive)
REMARK    1  A    between atoms: C_3  and  C_19 
REMARK    2  A    between atoms: N_6  and  C_19 
REMARK       I    between atoms: N_6  and  C_7 
REMARK    3  A    between atoms: C_7  and  C_8 
REMARK    4  A    between atoms: C_8  and  C_9 
REMARK    5  A    between atoms: C_8  and  N_11 
REMARK    6  A    between atoms: C_9  and  Se_10 
REMARK    7  A    between atoms: Se_17  and  C_18 
REMARK    8  A    between atoms: C_18  and  C_19 
ROOT
HETATM    1  N           1     -22.357  -4.789  -9.004  0.00  0.00    -0.345 N 
HETATM    2  C           1     -21.819  -4.653  -7.752  0.00  0.00     0.249 C 
HETATM    3  O           1     -21.790  -3.568  -7.221  0.00  0.00    -0.271 OA
HETATM    4  H           1     -22.382  -5.698  -9.448  0.00  0.00     0.163 HD
ENDROOT
BRANCH   2   5
HETATM    5  C           1     -21.263  -5.859  -7.036  0.00  0.00     0.274 C 
BRANCH   5   6
HETATM    6  C           1     -21.266  -5.604  -5.533  0.00  0.00     0.045 C 
BRANCH   6   7
HETATM    7 Se           1     -21.676  -7.260  -4.593  0.00  0.00     0.000 Se
HETATM    8  H           1     -23.128  -7.018  -4.559  0.00  0.00     0.000 HD
ENDBRANCH   6   7
ENDBRANCH   5   6
BRANCH   5   9
HETATM    9  N           1     -19.858  -6.110  -7.496  0.00  0.00    -0.067 N 
HETATM   10  H           1     -19.188  -5.767  -6.772  0.00  0.00     0.275 HD
HETATM   11  H           1     -19.717  -7.135  -7.643  0.00  0.00     0.275 HD
HETATM   12  H           1     -19.690  -5.602  -8.395  0.00  0.00     0.275 HD
ENDBRANCH   5   9
ENDBRANCH   2   5
BRANCH   1  13
HETATM   13  C           1     -22.891  -3.630  -9.693  0.00  0.00     0.185 C 
BRANCH  13  14
HETATM   14  C           1     -24.306  -3.915 -10.133  0.00  0.00     0.196 C 
HETATM   15  O           1     -24.920  -3.085 -10.836  0.00  0.00    -0.646 OA
HETATM   16  O           1     -24.862  -4.982  -9.794  0.00  0.00    -0.646 OA
ENDBRANCH  13  14
BRANCH  13  17
HETATM   17  C           1     -22.031  -3.325 -10.912  0.00  0.00     0.039 C 
BRANCH  17  18
HETATM   18 Se           1     -20.386  -4.367 -10.825  0.00  0.00     0.000 Se
HETATM   19  H           1     -19.502  -3.206 -11.019  0.00  0.00     0.000 HD
ENDBRANCH  17  18
ENDBRANCH  13  17
ENDBRANCH   1  13
TORSDOF 8
ENDMDL
MODEL 3
REMARK VINA RESULT:      -4.3      1.865      2.086
REMARK  8 active torsions:
REMARK  status: ('A' for Active; 'I' for Inactive)
REMARK    1  A    between atoms: C_3  and  C_19 
REMARK    2  A    between atoms: N_6  and  C_19 
REMARK       I    between atoms: N_6  and  C_7 
REMARK    3  A    between atoms: C_7  and  C_8 
REMARK    4  A    between atoms: C_8  and  C_9 
REMARK    5  A    between atoms: C_8  and  N_11 
REMARK    6  A    between atoms: C_9  and  Se_10 
REMARK    7  A    between atoms: Se_17  and  C_18 
REMARK    8  A    between atoms: C_18  and  C_19 
ROOT
HETATM    1  N           1     -35.387  -2.006 -11.526  0.00  0.00    -0.345 N 
HETATM    2  C           1     -34.211  -2.353 -10.918  0.00  0.00     0.249 C 
HETATM    3  O           1     -33.448  -1.494 -10.542  0.00  0.00    -0.271 OA
HETATM    4  H           1     -36.026  -2.725 -11.840  0.00  0.00     0.163 HD
ENDROOT
BRANCH   2   5
HETATM    5  C           1     -33.867  -3.809 -10.716  0.00  0.00     0.274 C 
BRANCH   5   6
HETATM    6  C           1     -32.935  -4.270 -11.830  0.00  0.00     0.045 C 
BRANCH   6   7
HETATM    7 Se           1     -33.876  -4.201 -13.535  0.00  0.00     0.000 Se
HETATM    8  H           1     -33.877  -5.661 -13.725  0.00  0.00     0.000 HD
ENDBRANCH   6   7
ENDBRANCH   5   6
BRANCH   5   9
HETATM    9  N           1     -35.123  -4.627 -10.745  0.00  0.00    -0.067 N 
HETATM   10  H           1     -35.389  -4.822 -11.737  0.00  0.00     0.275 HD
HETATM   11  H           1     -34.963  -5.530 -10.244  0.00  0.00     0.275 HD
HETATM   12  H           1     -35.894  -4.099 -10.275  0.00  0.00     0.275 HD
ENDBRANCH   5   9
ENDBRANCH   2   5
BRANCH   1  13
HETATM   13  C           1     -35.717  -0.607 -11.720  0.00  0.00     0.185 C 
BRANCH  13  14
HETATM   14  C           1     -36.857  -0.229 -10.807  0.00  0.00     0.196 C 
HETATM   15  O           1     -36.696   0.659  -9.942  0.00  0.00    -0.646 OA
HETATM   16  O           1     -37.962  -0.804 -10.915  0.00  0.00    -0.646 OA
ENDBRANCH  13  14
BRANCH  13  17
HETATM   17  C           1     -36.130  -0.381 -13.169  0.00  0.00     0.039 C 
BRANCH  17  18
HETATM   18 Se           1     -34.887   0.860 -14.013  0.00  0.00     0.000 Se
HETATM   19  H           1     -34.454  -0.095 -15.047  0.00  0.00     0.000 HD
ENDBRANCH  17  18
ENDBRANCH  13  17
ENDBRANCH   1  13
TORSDOF 8
ENDMDL
MODEL 4
REMARK VINA RESULT:      -4.3     12.672     14.348
REMARK  8 active torsions:
REMARK  status: ('A' for Active; 'I' for Inactive)
REMARK    1  A    between atoms: C_3  and  C_19 
REMARK    2  A    between atoms: N_6  and  C_19 
REMARK       I    between atoms: N_6  and  C_7 
REMARK    3  A    between atoms: C_7  and  C_8 
REMARK    4  A    between atoms: C_8  and  C_9 
REMARK    5  A    between atoms: C_8  and  N_11 
REMARK    6  A    between atoms: C_9  and  Se_10 
REMARK    7  A    between atoms: Se_17  and  C_18 
REMARK    8  A    between atoms: C_18  and  C_19 
ROOT
HETATM    1  N           1     -22.160  -4.315  -8.984  0.00  0.00    -0.345 N 
HETATM    2  C           1     -21.293  -4.946  -8.132  0.00  0.00     0.249 C 
HETATM    3  O           1     -20.509  -5.759  -8.560  0.00  0.00    -0.271 OA
HETATM    4  H           1     -22.816  -3.633  -8.626  0.00  0.00     0.163 HD
ENDROOT
BRANCH   2   5
HETATM    5  C           1     -21.318  -4.624  -6.658  0.00  0.00     0.274 C 
BRANCH   5   6
HETATM    6  C           1     -20.097  -5.238  -5.984  0.00  0.00     0.045 C 
BRANCH   6   7
HETATM    7 Se           1     -20.582  -6.952  -5.194  0.00  0.00     0.000 Se
HETATM    8  H           1     -19.815  -6.731  -3.958  0.00  0.00     0.000 HD
ENDBRANCH   6   7
ENDBRANCH   5   6
BRANCH   5   9
HETATM    9  N           1     -22.564  -5.190  -6.044  0.00  0.00    -0.067 N 
HETATM   10  H           1     -22.330  -5.633  -5.127  0.00  0.00     0.275 HD
HETATM   11  H           1     -23.257  -4.422  -5.893  0.00  0.00     0.275 HD
HETATM   12  H           1     -22.972  -5.908  -6.684  0.00  0.00     0.275 HD
ENDBRANCH   5   9
ENDBRANCH   2   5
BRANCH   1  13
HETATM   13  C           1     -22.136  -4.624 -10.401  0.00  0.00     0.185 C 
BRANCH  13  14
HETATM   14  C           1     -21.286  -3.608 -11.123  0.00  0.00     0.196 C 
HETATM   15  O           1     -21.809  -2.571 -11.584  0.00  0.00    -0.646 OA
HETATM   16  O           1     -20.059  -3.804 -11.258  0.00  0.00    -0.646 OA
ENDBRANCH  13  14
BRANCH  13  17
HETATM   17  C           1     -23.556  -4.582 -10.951  0.00  0.00     0.039 C 
BRANCH  17  18
HETATM   18 Se           1     -24.678  -3.507  -9.775  0.00  0.00     0.000 Se
HETATM   19  H           1     -24.411  -4.324  -8.580  0.00  0.00     0.000 HD
ENDBRANCH  17  18
ENDBRANCH  13  17
ENDBRANCH   1  13
TORSDOF 8
ENDMDL
MODEL 5
REMARK VINA RESULT:      -4.3      2.022      2.855
REMARK  8 active torsions:
REMARK  status: ('A' for Active; 'I' for Inactive)
REMARK    1  A    between atoms: C_3  and  C_19 
REMARK    2  A    between atoms: N_6  and  C_19 
REMARK       I    between atoms: N_6  and  C_7 
REMARK    3  A    between atoms: C_7  and  C_8 
REMARK    4  A    between atoms: C_8  and  C_9 
REMARK    5  A    between atoms: C_8  and  N_11 
REMARK    6  A    between atoms: C_9  and  Se_10 
REMARK    7  A    between atoms: Se_17  and  C_18 
REMARK    8  A    between atoms: C_18  and  C_19 
ROOT
HETATM    1  N           1     -35.388  -0.884 -13.742  0.00  0.00    -0.345 N 
HETATM    2  C           1     -34.957  -0.597 -12.475  0.00  0.00     0.249 C 
HETATM    3  O           1     -35.061   0.526 -12.042  0.00  0.00    -0.271 OA
HETATM    4  H           1     -35.302  -1.825 -14.105  0.00  0.00     0.163 HD
ENDROOT
BRANCH   2   5
HETATM    5  C           1     -34.352  -1.683 -11.620  0.00  0.00     0.274 C 
BRANCH   5   6
HETATM    6  C           1     -34.419  -3.012 -12.363  0.00  0.00     0.045 C 
BRANCH   6   7
HETATM    7 Se           1     -32.903  -4.122 -11.849  0.00  0.00     0.000 Se
HETATM    8  H           1     -32.786  -3.542 -10.502  0.00  0.00     0.000 HD
ENDBRANCH   6   7
ENDBRANCH   5   6
BRANCH   5   9
HETATM    9  N           1     -35.117  -1.791 -10.335  0.00  0.00    -0.067 N 
HETATM   10  H           1     -35.732  -0.953 -10.224  0.00  0.00     0.275 HD
HETATM   11  H           1     -35.705  -2.655 -10.351  0.00  0.00     0.275 HD
HETATM   12  H           1     -34.447  -1.840  -9.534  0.00  0.00     0.275 HD
ENDBRANCH   5   9
ENDBRANCH   2   5
BRANCH   1  13
HETATM   13  C           1     -35.969   0.159 -14.564  0.00  0.00     0.185 C 
BRANCH  13  14
HETATM   14  C           1     -37.454  -0.075 -14.698  0.00  0.00     0.196 C 
HETATM   15  O           1     -38.075   0.396 -15.675  0.00  0.00    -0.646 OA
HETATM   16  O           1     -38.062  -0.740 -13.832  0.00  0.00    -0.646 OA
ENDBRANCH  13  14
BRANCH  13  17
HETATM   17  C           1     -35.324   0.136 -15.944  0.00  0.00     0.039 C 
BRANCH  17  18
HETATM   18 Se           1     -35.216  -1.704 -16.579  0.00  0.00     0.000 Se
HETATM   19  H           1     -33.830  -1.903 -16.123  0.00  0.00     0.000 HD
ENDBRANCH  17  18
ENDBRANCH  13  17
ENDBRANCH   1  13
TORSDOF 8
ENDMDL
MODEL 6
REMARK VINA RESULT:      -4.1     14.911     16.282
REMARK  8 active torsions:
REMARK  status: ('A' for Active; 'I' for Inactive)
REMARK    1  A    between atoms: C_3  and  C_19 
REMARK    2  A    between atoms: N_6  and  C_19 
REMARK       I    between atoms: N_6  and  C_7 
REMARK    3  A    between atoms: C_7  and  C_8 
REMARK    4  A    between atoms: C_8  and  C_9 
REMARK    5  A    between atoms: C_8  and  N_11 
REMARK    6  A    between atoms: C_9  and  Se_10 
REMARK    7  A    between atoms: Se_17  and  C_18 
REMARK    8  A    between atoms: C_18  and  C_19 
ROOT
HETATM    1  N           1     -21.045  -5.357  -5.280  0.00  0.00    -0.345 N 
HETATM    2  C           1     -21.600  -6.303  -4.460  0.00  0.00     0.249 C 
HETATM    3  O           1     -22.349  -7.134  -4.917  0.00  0.00    -0.271 OA
HETATM    4  H           1     -20.417  -4.662  -4.897  0.00  0.00     0.163 HD
ENDROOT
BRANCH   2   5
HETATM    5  C           1     -21.274  -6.310  -2.987  0.00  0.00     0.274 C 
BRANCH   5   6
HETATM    6  C           1     -20.897  -7.722  -2.556  0.00  0.00     0.045 C 
BRANCH   6   7
HETATM    7 Se           1     -21.803  -8.156  -0.887  0.00  0.00     0.000 Se
HETATM    8  H           1     -21.513  -6.858  -0.257  0.00  0.00     0.000 HD
ENDBRANCH   6   7
ENDBRANCH   5   6
BRANCH   5   9
HETATM    9  N           1     -22.472  -5.853  -2.209  0.00  0.00    -0.067 N 
HETATM   10  H           1     -22.623  -4.832  -2.371  0.00  0.00     0.275 HD
HETATM   11  H           1     -23.315  -6.384  -2.524  0.00  0.00     0.275 HD
HETATM   12  H           1     -22.311  -6.024  -1.190  0.00  0.00     0.275 HD
ENDBRANCH   5   9
ENDBRANCH   2   5
BRANCH   1  13
HETATM   13  C           1     -21.358  -5.351  -6.696  0.00  0.00     0.185 C 
BRANCH  13  14
HETATM   14  C           1     -20.135  -5.752  -7.482  0.00  0.00     0.196 C 
HETATM   15  O           1     -19.775  -5.073  -8.467  0.00  0.00    -0.646 OA
HETATM   16  O           1     -19.482  -6.764  -7.148  0.00  0.00    -0.646 OA
ENDBRANCH  13  14
BRANCH  13  17
HETATM   17  C           1     -21.794  -3.951  -7.111  0.00  0.00     0.039 C 
BRANCH  17  18
HETATM   18 Se           1     -23.113  -4.079  -8.540  0.00  0.00     0.000 Se
HETATM   19  H           1     -23.998  -4.994  -7.799  0.00  0.00     0.000 HD
ENDBRANCH  17  18
ENDBRANCH  13  17
ENDBRANCH   1  13
TORSDOF 8
ENDMDL
MODEL 7
REMARK VINA RESULT:      -4.1     14.940     16.815
REMARK  8 active torsions:
REMARK  status: ('A' for Active; 'I' for Inactive)
REMARK    1  A    between atoms: C_3  and  C_19 
REMARK    2  A    between atoms: N_6  and  C_19 
REMARK       I    between atoms: N_6  and  C_7 
REMARK    3  A    between atoms: C_7  and  C_8 
REMARK    4  A    between atoms: C_8  and  C_9 
REMARK    5  A    between atoms: C_8  and  N_11 
REMARK    6  A    between atoms: C_9  and  Se_10 
REMARK    7  A    between atoms: Se_17  and  C_18 
REMARK    8  A    between atoms: C_18  and  C_19 
ROOT
HETATM    1  N           1     -20.849  -6.688  -4.843  0.00  0.00    -0.345 N 
HETATM    2  C           1     -21.405  -5.769  -5.692  0.00  0.00     0.249 C 
HETATM    3  O           1     -22.602  -5.602  -5.701  0.00  0.00    -0.271 OA
HETATM    4  H           1     -19.847  -6.827  -4.834  0.00  0.00     0.163 HD
ENDROOT
BRANCH   2   5
HETATM    5  C           1     -20.524  -4.966  -6.617  0.00  0.00     0.274 C 
BRANCH   5   6
HETATM    6  C           1     -21.332  -3.827  -7.227  0.00  0.00     0.045 C 
BRANCH   6   7
HETATM    7 Se           1     -21.848  -4.297  -9.046  0.00  0.00     0.000 Se
HETATM    8  H           1     -20.992  -5.493  -9.103  0.00  0.00     0.000 HD
ENDBRANCH   6   7
ENDBRANCH   5   6
BRANCH   5   9
HETATM    9  N           1     -20.008  -5.853  -7.710  0.00  0.00    -0.067 N 
HETATM   10  H           1     -19.939  -6.835  -7.359  0.00  0.00     0.275 HD
HETATM   11  H           1     -20.662  -5.820  -8.524  0.00  0.00     0.275 HD
HETATM   12  H           1     -19.062  -5.523  -8.009  0.00  0.00     0.275 HD
ENDBRANCH   5   9
ENDBRANCH   2   5
BRANCH   1  13
HETATM   13  C           1     -21.696  -7.460  -3.954  0.00  0.00     0.185 C 
BRANCH  13  14
HETATM   14  C           1     -21.614  -6.889  -2.560  0.00  0.00     0.196 C 
HETATM   15  O           1     -20.839  -7.398  -1.722  0.00  0.00    -0.646 OA
HETATM   16  O           1     -22.320  -5.907  -2.244  0.00  0.00    -0.646 OA
ENDBRANCH  13  14
BRANCH  13  17
HETATM   17  C           1     -21.226  -8.909  -3.939  0.00  0.00     0.039 C 
BRANCH  17  18
HETATM   18 Se           1     -19.456  -9.026  -4.746  0.00  0.00     0.000 Se
HETATM   19  H           1     -19.845  -8.327  -5.982  0.00  0.00     0.000 HD
ENDBRANCH  17  18
ENDBRANCH  13  17
ENDBRANCH   1  13
TORSDOF 8
ENDMDL
MODEL 8
REMARK VINA RESULT:      -4.0     13.481     15.569
REMARK  8 active torsions:
REMARK  status: ('A' for Active; 'I' for Inactive)
REMARK    1  A    between atoms: C_3  and  C_19 
REMARK    2  A    between atoms: N_6  and  C_19 
REMARK       I    between atoms: N_6  and  C_7 
REMARK    3  A    between atoms: C_7  and  C_8 
REMARK    4  A    between atoms: C_8  and  C_9 
REMARK    5  A    between atoms: C_8  and  N_11 
REMARK    6  A    between atoms: C_9  and  Se_10 
REMARK    7  A    between atoms: Se_17  and  C_18 
REMARK    8  A    between atoms: C_18  and  C_19 
ROOT
HETATM    1  N           1     -22.128  -5.702  -7.166  0.00  0.00    -0.345 N 
HETATM    2  C           1     -22.195  -4.465  -7.749  0.00  0.00     0.249 C 
HETATM    3  O           1     -21.608  -3.532  -7.254  0.00  0.00    -0.271 OA
HETATM    4  H           1     -22.619  -6.484  -7.581  0.00  0.00     0.163 HD
ENDROOT
BRANCH   2   5
HETATM    5  C           1     -23.001  -4.266  -9.009  0.00  0.00     0.274 C 
BRANCH   5   6
HETATM    6  C           1     -22.194  -3.441 -10.004  0.00  0.00     0.045 C 
BRANCH   6   7
HETATM    7 Se           1     -20.596  -4.428 -10.521  0.00  0.00     0.000 Se
HETATM    8  H           1     -19.663  -3.391 -10.050  0.00  0.00     0.000 HD
ENDBRANCH   6   7
ENDBRANCH   5   6
BRANCH   5   9
HETATM    9  N           1     -24.274  -3.545  -8.679  0.00  0.00    -0.067 N 
HETATM   10  H           1     -24.766  -3.284  -9.563  0.00  0.00     0.275 HD
HETATM   11  H           1     -24.890  -4.168  -8.109  0.00  0.00     0.275 HD
HETATM   12  H           1     -24.053  -2.680  -8.135  0.00  0.00     0.275 HD
ENDBRANCH   5   9
ENDBRANCH   2   5
BRANCH   1  13
HETATM   13  C           1     -21.354  -5.892  -5.956  0.00  0.00     0.185 C 
BRANCH  13  14
HETATM   14  C           1     -20.116  -6.696  -6.272  0.00  0.00     0.196 C 
HETATM   15  O           1     -19.331  -6.308  -7.164  0.00  0.00    -0.646 OA
HETATM   16  O           1     -19.877  -7.749  -5.643  0.00  0.00    -0.646 OA
ENDBRANCH  13  14
BRANCH  13  17
HETATM   17  C           1     -22.195  -6.638  -4.928  0.00  0.00     0.039 C 
BRANCH  17  18
HETATM   18 Se           1     -21.546  -6.231  -3.137  0.00  0.00     0.000 Se
HETATM   19  H           1     -20.486  -5.320  -3.601  0.00  0.00     0.000 HD
ENDBRANCH  17  18
ENDBRANCH  13  17
ENDBRANCH   1  13
TORSDOF 8
ENDMDL
MODEL 9
REMARK VINA RESULT:      -3.9     14.896     16.692
REMARK  8 active torsions:
REMARK  status: ('A' for Active; 'I' for Inactive)
REMARK    1  A    between atoms: C_3  and  C_19 
REMARK    2  A    between atoms: N_6  and  C_19 
REMARK       I    between atoms: N_6  and  C_7 
REMARK    3  A    between atoms: C_7  and  C_8 
REMARK    4  A    between atoms: C_8  and  C_9 
REMARK    5  A    between atoms: C_8  and  N_11 
REMARK    6  A    between atoms: C_9  and  Se_10 
REMARK    7  A    between atoms: Se_17  and  C_18 
REMARK    8  A    between atoms: C_18  and  C_19 
ROOT
HETATM    1  N           1     -21.086  -6.633  -6.508  0.00  0.00    -0.345 N 
HETATM    2  C           1     -21.014  -5.307  -6.840  0.00  0.00     0.249 C 
HETATM    3  O           1     -20.627  -4.501  -6.027  0.00  0.00    -0.271 OA
HETATM    4  H           1     -21.409  -7.308  -7.190  0.00  0.00     0.163 HD
ENDROOT
BRANCH   2   5
HETATM    5  C           1     -21.417  -4.851  -8.221  0.00  0.00     0.274 C 
BRANCH   5   6
HETATM    6  C           1     -20.175  -4.451  -9.007  0.00  0.00     0.045 C 
BRANCH   6   7
HETATM    7 Se           1     -20.663  -4.101 -10.861  0.00  0.00     0.000 Se
HETATM    8  H           1     -22.073  -4.482 -10.683  0.00  0.00     0.000 HD
ENDBRANCH   6   7
ENDBRANCH   5   6
BRANCH   5   9
HETATM    9  N           1     -22.338  -3.673  -8.109  0.00  0.00    -0.067 N 
HETATM   10  H           1     -23.053  -3.859  -7.369  0.00  0.00     0.275 HD
HETATM   11  H           1     -21.787  -2.823  -7.855  0.00  0.00     0.275 HD
HETATM   12  H           1     -22.817  -3.517  -9.025  0.00  0.00     0.275 HD
ENDBRANCH   5   9
ENDBRANCH   2   5
BRANCH   1  13
HETATM   13  C           1     -20.698  -7.070  -5.181  0.00  0.00     0.185 C 
BRANCH  13  14
HETATM   14  C           1     -20.001  -8.405  -5.276  0.00  0.00     0.196 C 
HETATM   15  O           1     -18.981  -8.528  -5.988  0.00  0.00    -0.646 OA
HETATM   16  O           1     -20.444  -9.388  -4.643  0.00  0.00    -0.646 OA
ENDBRANCH  13  14
BRANCH  13  17
HETATM   17  C           1     -21.940  -7.206  -4.310  0.00  0.00     0.039 C 
BRANCH  17  18
HETATM   18 Se           1     -21.645  -6.300  -2.610  0.00  0.00     0.000 Se
HETATM   19  H           1     -20.241  -6.731  -2.492  0.00  0.00     0.000 HD
ENDBRANCH  17  18
ENDBRANCH  13  17
ENDBRANCH   1  13
TORSDOF 8
ENDMDL
