MODEL 1
REMARK VINA RESULT:      -6.7      0.000      0.000
REMARK  6 active torsions:
REMARK  status: ('A' for Active; 'I' for Inactive)
REMARK    1  A    between atoms: C_2  and  C_3 
REMARK    2  A    between atoms: C_3  and  C_4 
REMARK    3  A    between atoms: C_4  and  C_18 
REMARK    4  A    between atoms: C_4  and  N_12 
REMARK       I    between atoms: N_12  and  C_13 
REMARK    5  A    between atoms: C_13  and  C_14 
REMARK    6  A    between atoms: C_14  and  N_16 
ROOT
HETATM    1  C           1     -21.540  -5.489  -6.954  0.00  0.00     0.189 C 
ENDROOT
BRANCH   1   2
HETATM    2  C           1     -21.892  -4.124  -7.530  0.00  0.00     0.074 C 
BRANCH   2   3
HETATM    3  C           1     -21.866  -4.191  -9.025  0.00  0.00    -0.056 A 
HETATM    4  C           1     -23.023  -4.521  -9.730  0.00  0.00     0.007 A 
HETATM    5  C           1     -22.998  -4.584 -11.123  0.00  0.00     0.001 A 
HETATM    6  C           1     -21.815  -4.315 -11.811  0.00  0.00     0.000 A 
HETATM    7  C           1     -20.657  -3.985 -11.108  0.00  0.00     0.001 A 
HETATM    8  C           1     -20.683  -3.923  -9.714  0.00  0.00     0.007 A 
ENDBRANCH   2   3
ENDBRANCH   1   2
BRANCH   1   9
HETATM    9  C           1     -20.047  -5.580  -6.751  0.00  0.00     0.197 C 
HETATM   10  O           1     -19.450  -6.654  -6.980  0.00  0.00    -0.646 OA
HETATM   11  O           1     -19.409  -4.581  -6.353  0.00  0.00    -0.646 OA
ENDBRANCH   1   9
BRANCH   1  12
HETATM   12  N           1     -22.212  -5.664  -5.682  0.00  0.00    -0.344 N 
HETATM   13  H           1     -23.116  -5.235  -5.524  0.00  0.00     0.163 HD
HETATM   14  C           1     -21.627  -6.409  -4.694  0.00  0.00     0.248 C 
HETATM   15  O           1     -20.896  -5.880  -3.891  0.00  0.00    -0.271 OA
BRANCH  14  16
HETATM   16  C           1     -21.894  -7.892  -4.608  0.00  0.00     0.270 C 
HETATM   17  C           1     -21.483  -8.404  -3.235  0.00  0.00     0.050 C 
BRANCH  16  18
HETATM   18  N           1     -21.101  -8.604  -5.665  0.00  0.00    -0.067 N 
HETATM   19  H           1     -21.748  -9.156  -6.273  0.00  0.00     0.275 HD
HETATM   20  H           1     -20.414  -9.247  -5.210  0.00  0.00     0.275 HD
HETATM   21  H           1     -20.589  -7.903  -6.247  0.00  0.00     0.275 HD
ENDBRANCH  16  18
ENDBRANCH  14  16
ENDBRANCH   1  12
TORSDOF 6
ENDMDL
MODEL 2
REMARK VINA RESULT:      -6.5     10.997     13.080
REMARK  6 active torsions:
REMARK  status: ('A' for Active; 'I' for Inactive)
REMARK    1  A    between atoms: C_2  and  C_3 
REMARK    2  A    between atoms: C_3  and  C_4 
REMARK    3  A    between atoms: C_4  and  C_18 
REMARK    4  A    between atoms: C_4  and  N_12 
REMARK       I    between atoms: N_12  and  C_13 
REMARK    5  A    between atoms: C_13  and  C_14 
REMARK    6  A    between atoms: C_14  and  N_16 
ROOT
HETATM    1  C           1     -26.658  -6.227 -17.624  0.00  0.00     0.189 C 
ENDROOT
BRANCH   1   2
HETATM    2  C           1     -27.901  -6.609 -18.418  0.00  0.00     0.074 C 
BRANCH   2   3
HETATM    3  C           1     -29.055  -5.767 -17.975  0.00  0.00    -0.056 A 
HETATM    4  C           1     -30.152  -6.359 -17.349  0.00  0.00     0.007 A 
HETATM    5  C           1     -31.229  -5.575 -16.937  0.00  0.00     0.001 A 
HETATM    6  C           1     -31.208  -4.196 -17.149  0.00  0.00     0.000 A 
HETATM    7  C           1     -30.112  -3.603 -17.775  0.00  0.00     0.001 A 
HETATM    8  C           1     -29.036  -4.389 -18.188  0.00  0.00     0.007 A 
ENDBRANCH   2   3
ENDBRANCH   1   2
BRANCH   1   9
HETATM    9  C           1     -26.963  -6.298 -16.147  0.00  0.00     0.197 C 
HETATM   10  O           1     -26.898  -7.393 -15.548  0.00  0.00    -0.646 OA
HETATM   11  O           1     -27.280  -5.262 -15.524  0.00  0.00    -0.646 OA
ENDBRANCH   1   9
BRANCH   1  12
HETATM   12  N           1     -25.582  -7.147 -17.939  0.00  0.00    -0.344 N 
HETATM   13  H           1     -25.457  -7.987 -17.389  0.00  0.00     0.163 HD
HETATM   14  C           1     -24.737  -6.880 -18.982  0.00  0.00     0.248 C 
HETATM   15  O           1     -23.729  -6.241 -18.794  0.00  0.00    -0.271 OA
BRANCH  14  16
HETATM   16  C           1     -25.064  -7.382 -20.367  0.00  0.00     0.270 C 
HETATM   17  C           1     -23.864  -8.128 -20.934  0.00  0.00     0.050 C 
BRANCH  16  18
HETATM   18  N           1     -25.394  -6.218 -21.255  0.00  0.00    -0.067 N 
HETATM   19  H           1     -25.947  -5.515 -20.716  0.00  0.00     0.275 HD
HETATM   20  H           1     -25.953  -6.552 -22.072  0.00  0.00     0.275 HD
HETATM   21  H           1     -24.508  -5.778 -21.596  0.00  0.00     0.275 HD
ENDBRANCH  16  18
ENDBRANCH  14  16
ENDBRANCH   1  12
TORSDOF 6
ENDMDL
MODEL 3
REMARK VINA RESULT:      -6.5      4.092      7.163
REMARK  6 active torsions:
REMARK  status: ('A' for Active; 'I' for Inactive)
REMARK    1  A    between atoms: C_2  and  C_3 
REMARK    2  A    between atoms: C_3  and  C_4 
REMARK    3  A    between atoms: C_4  and  C_18 
REMARK    4  A    between atoms: C_4  and  N_12 
REMARK       I    between atoms: N_12  and  C_13 
REMARK    5  A    between atoms: C_13  and  C_14 
REMARK    6  A    between atoms: C_14  and  N_16 
ROOT
HETATM    1  C           1     -21.034  -7.865  -4.172  0.00  0.00     0.189 C 
ENDROOT
BRANCH   1   2
HETATM    2  C           1     -20.949  -7.087  -2.865  0.00  0.00     0.074 C 
BRANCH   2   3
HETATM    3  C           1     -21.691  -7.826  -1.796  0.00  0.00    -0.056 A 
HETATM    4  C           1     -21.750  -9.219  -1.822  0.00  0.00     0.007 A 
HETATM    5  C           1     -22.442  -9.907  -0.826  0.00  0.00     0.001 A 
HETATM    6  C           1     -23.075  -9.201   0.198  0.00  0.00     0.000 A 
HETATM    7  C           1     -23.017  -7.808   0.224  0.00  0.00     0.001 A 
HETATM    8  C           1     -22.325  -7.120  -0.773  0.00  0.00     0.007 A 
ENDBRANCH   2   3
ENDBRANCH   1   2
BRANCH   1   9
HETATM    9  C           1     -21.724  -7.022  -5.217  0.00  0.00     0.197 C 
HETATM   10  O           1     -21.320  -7.037  -6.399  0.00  0.00    -0.646 OA
HETATM   11  O           1     -22.700  -6.308  -4.899  0.00  0.00    -0.646 OA
ENDBRANCH   1   9
BRANCH   1  12
HETATM   12  N           1     -19.696  -8.195  -4.625  0.00  0.00    -0.344 N 
HETATM   13  H           1     -19.019  -7.458  -4.782  0.00  0.00     0.163 HD
HETATM   14  C           1     -19.348  -9.501  -4.838  0.00  0.00     0.248 C 
HETATM   15  O           1     -19.511 -10.000  -5.926  0.00  0.00    -0.271 OA
BRANCH  14  16
HETATM   16  C           1     -18.759 -10.319  -3.715  0.00  0.00     0.270 C 
HETATM   17  C           1     -17.850  -9.440  -2.867  0.00  0.00     0.050 C 
BRANCH  16  18
HETATM   18  N           1     -17.963 -11.454  -4.288  0.00  0.00    -0.067 N 
HETATM   19  H           1     -17.367 -11.874  -3.540  0.00  0.00     0.275 HD
HETATM   20  H           1     -17.357 -11.098  -5.061  0.00  0.00     0.275 HD
HETATM   21  H           1     -18.614 -12.181  -4.664  0.00  0.00     0.275 HD
ENDBRANCH  16  18
ENDBRANCH  14  16
ENDBRANCH   1  12
TORSDOF 6
ENDMDL
MODEL 4
REMARK VINA RESULT:      -6.4      4.984      7.602
REMARK  6 active torsions:
REMARK  status: ('A' for Active; 'I' for Inactive)
REMARK    1  A    between atoms: C_2  and  C_3 
REMARK    2  A    between atoms: C_3  and  C_4 
REMARK    3  A    between atoms: C_4  and  C_18 
REMARK    4  A    between atoms: C_4  and  N_12 
REMARK       I    between atoms: N_12  and  C_13 
REMARK    5  A    between atoms: C_13  and  C_14 
REMARK    6  A    between atoms: C_14  and  N_16 
ROOT
HETATM    1  C           1     -21.326  -7.903  -3.100  0.00  0.00     0.189 C 
ENDROOT
BRANCH   1   2
HETATM    2  C           1     -21.225  -8.338  -1.644  0.00  0.00     0.074 C 
BRANCH   2   3
HETATM    3  C           1     -22.188  -9.454  -1.388  0.00  0.00    -0.056 A 
HETATM    4  C           1     -22.306 -10.498  -2.306  0.00  0.00     0.007 A 
HETATM    5  C           1     -23.204 -11.538  -2.068  0.00  0.00     0.001 A 
HETATM    6  C           1     -23.984 -11.535  -0.912  0.00  0.00     0.000 A 
HETATM    7  C           1     -23.867 -10.492   0.006  0.00  0.00     0.001 A 
HETATM    8  C           1     -22.969  -9.451  -0.233  0.00  0.00     0.007 A 
ENDBRANCH   2   3
ENDBRANCH   1   2
BRANCH   1   9
HETATM    9  C           1     -21.910  -6.513  -3.171  0.00  0.00     0.197 C 
HETATM   10  O           1     -22.047  -5.949  -4.278  0.00  0.00    -0.646 OA
HETATM   11  O           1     -22.257  -5.926  -2.123  0.00  0.00    -0.646 OA
ENDBRANCH   1   9
BRANCH   1  12
HETATM   12  N           1     -20.004  -7.902  -3.696  0.00  0.00    -0.344 N 
HETATM   13  H           1     -19.241  -7.424  -3.233  0.00  0.00     0.163 HD
HETATM   14  C           1     -19.787  -8.547  -4.883  0.00  0.00     0.248 C 
HETATM   15  O           1     -19.926  -7.955  -5.927  0.00  0.00    -0.271 OA
BRANCH  14  16
HETATM   16  C           1     -19.375  -9.998  -4.890  0.00  0.00     0.270 C 
HETATM   17  C           1     -18.482 -10.279  -3.689  0.00  0.00     0.050 C 
BRANCH  16  18
HETATM   18  N           1     -18.622 -10.297  -6.153  0.00  0.00    -0.067 N 
HETATM   19  H           1     -17.960  -9.515  -6.357  0.00  0.00     0.275 HD
HETATM   20  H           1     -19.297 -10.400  -6.944  0.00  0.00     0.275 HD
HETATM   21  H           1     -18.085 -11.187  -6.037  0.00  0.00     0.275 HD
ENDBRANCH  16  18
ENDBRANCH  14  16
ENDBRANCH   1  12
TORSDOF 6
ENDMDL
MODEL 5
REMARK VINA RESULT:      -6.4     10.867     13.112
REMARK  6 active torsions:
REMARK  status: ('A' for Active; 'I' for Inactive)
REMARK    1  A    between atoms: C_2  and  C_3 
REMARK    2  A    between atoms: C_3  and  C_4 
REMARK    3  A    between atoms: C_4  and  C_18 
REMARK    4  A    between atoms: C_4  and  N_12 
REMARK       I    between atoms: N_12  and  C_13 
REMARK    5  A    between atoms: C_13  and  C_14 
REMARK    6  A    between atoms: C_14  and  N_16 
ROOT
HETATM    1  C           1     -27.817  -6.235 -17.060  0.00  0.00     0.189 C 
ENDROOT
BRANCH   1   2
HETATM    2  C           1     -27.437  -5.495 -18.336  0.00  0.00     0.074 C 
BRANCH   2   3
HETATM    3  C           1     -26.951  -6.476 -19.356  0.00  0.00    -0.056 A 
HETATM    4  C           1     -27.850  -7.350 -19.967  0.00  0.00     0.007 A 
HETATM    5  C           1     -27.398  -8.265 -20.918  0.00  0.00     0.001 A 
HETATM    6  C           1     -26.046  -8.304 -21.259  0.00  0.00     0.000 A 
HETATM    7  C           1     -25.146  -7.430 -20.649  0.00  0.00     0.001 A 
HETATM    8  C           1     -25.599  -6.516 -19.698  0.00  0.00     0.007 A 
ENDBRANCH   2   3
ENDBRANCH   1   2
BRANCH   1   9
HETATM    9  C           1     -26.584  -6.450 -16.216  0.00  0.00     0.197 C 
HETATM   10  O           1     -26.481  -7.476 -15.510  0.00  0.00    -0.646 OA
HETATM   11  O           1     -25.666  -5.601 -16.222  0.00  0.00    -0.646 OA
ENDBRANCH   1   9
BRANCH   1  12
HETATM   12  N           1     -28.782  -5.450 -16.316  0.00  0.00    -0.344 N 
HETATM   13  H           1     -28.569  -5.149 -15.372  0.00  0.00     0.163 HD
HETATM   14  C           1     -29.979  -5.114 -16.887  0.00  0.00     0.248 C 
HETATM   15  O           1     -30.933  -5.844 -16.764  0.00  0.00    -0.271 OA
BRANCH  14  16
HETATM   16  C           1     -30.108  -3.831 -17.672  0.00  0.00     0.270 C 
HETATM   17  C           1     -29.146  -2.793 -17.111  0.00  0.00     0.050 C 
BRANCH  16  18
HETATM   18  N           1     -31.515  -3.320 -17.564  0.00  0.00    -0.067 N 
HETATM   19  H           1     -32.104  -3.763 -18.304  0.00  0.00     0.275 HD
HETATM   20  H           1     -31.518  -2.282 -17.689  0.00  0.00     0.275 HD
HETATM   21  H           1     -31.900  -3.558 -16.621  0.00  0.00     0.275 HD
ENDBRANCH  16  18
ENDBRANCH  14  16
ENDBRANCH   1  12
TORSDOF 6
ENDMDL
MODEL 6
REMARK VINA RESULT:      -6.3      5.982      8.669
REMARK  6 active torsions:
REMARK  status: ('A' for Active; 'I' for Inactive)
REMARK    1  A    between atoms: C_2  and  C_3 
REMARK    2  A    between atoms: C_3  and  C_4 
REMARK    3  A    between atoms: C_4  and  C_18 
REMARK    4  A    between atoms: C_4  and  N_12 
REMARK       I    between atoms: N_12  and  C_13 
REMARK    5  A    between atoms: C_13  and  C_14 
REMARK    6  A    between atoms: C_14  and  N_16 
ROOT
HETATM    1  C           1     -21.515  -8.183  -1.806  0.00  0.00     0.189 C 
ENDROOT
BRANCH   1   2
HETATM    2  C           1     -21.227  -8.620  -0.376  0.00  0.00     0.074 C 
BRANCH   2   3
HETATM    3  C           1     -21.942  -9.903  -0.092  0.00  0.00    -0.056 A 
HETATM    4  C           1     -21.250 -10.981   0.462  0.00  0.00     0.007 A 
HETATM    5  C           1     -21.916 -12.177   0.726  0.00  0.00     0.001 A 
HETATM    6  C           1     -23.276 -12.296   0.438  0.00  0.00     0.000 A 
HETATM    7  C           1     -23.969 -11.220  -0.116  0.00  0.00     0.001 A 
HETATM    8  C           1     -23.301 -10.023  -0.380  0.00  0.00     0.007 A 
ENDBRANCH   2   3
ENDBRANCH   1   2
BRANCH   1   9
HETATM    9  C           1     -22.022  -6.761  -1.806  0.00  0.00     0.197 C 
HETATM   10  O           1     -22.596  -6.303  -0.795  0.00  0.00    -0.646 OA
HETATM   11  O           1     -21.866  -6.042  -2.817  0.00  0.00    -0.646 OA
ENDBRANCH   1   9
BRANCH   1  12
HETATM   12  N           1     -20.298  -8.263  -2.590  0.00  0.00    -0.344 N 
HETATM   13  H           1     -19.497  -7.696  -2.340  0.00  0.00     0.163 HD
HETATM   14  C           1     -20.231  -9.104  -3.667  0.00  0.00     0.248 C 
HETATM   15  O           1     -20.550  -8.709  -4.764  0.00  0.00    -0.271 OA
BRANCH  14  16
HETATM   16  C           1     -19.757 -10.525  -3.487  0.00  0.00     0.270 C 
HETATM   17  C           1     -20.958 -11.440  -3.285  0.00  0.00     0.050 C 
BRANCH  16  18
HETATM   18  N           1     -18.861 -10.605  -2.286  0.00  0.00    -0.067 N 
HETATM   19  H           1     -18.613  -9.639  -1.973  0.00  0.00     0.275 HD
HETATM   20  H           1     -17.991 -11.127  -2.535  0.00  0.00     0.275 HD
HETATM   21  H           1     -19.358 -11.105  -1.513  0.00  0.00     0.275 HD
ENDBRANCH  16  18
ENDBRANCH  14  16
ENDBRANCH   1  12
TORSDOF 6
ENDMDL
MODEL 7
REMARK VINA RESULT:      -6.2      3.770      6.232
REMARK  6 active torsions:
REMARK  status: ('A' for Active; 'I' for Inactive)
REMARK    1  A    between atoms: C_2  and  C_3 
REMARK    2  A    between atoms: C_3  and  C_4 
REMARK    3  A    between atoms: C_4  and  C_18 
REMARK    4  A    between atoms: C_4  and  N_12 
REMARK       I    between atoms: N_12  and  C_13 
REMARK    5  A    between atoms: C_13  and  C_14 
REMARK    6  A    between atoms: C_14  and  N_16 
ROOT
HETATM    1  C           1     -20.404  -7.552  -4.426  0.00  0.00     0.189 C 
ENDROOT
BRANCH   1   2
HETATM    2  C           1     -20.089  -8.929  -4.996  0.00  0.00     0.074 C 
BRANCH   2   3
HETATM    3  C           1     -18.668  -9.283  -4.691  0.00  0.00    -0.056 A 
HETATM    4  C           1     -18.220  -9.302  -3.370  0.00  0.00     0.007 A 
HETATM    5  C           1     -16.896  -9.631  -3.086  0.00  0.00     0.001 A 
HETATM    6  C           1     -16.017  -9.943  -4.123  0.00  0.00     0.000 A 
HETATM    7  C           1     -16.463  -9.925  -5.444  0.00  0.00     0.001 A 
HETATM    8  C           1     -17.788  -9.595  -5.728  0.00  0.00     0.007 A 
ENDBRANCH   2   3
ENDBRANCH   1   2
BRANCH   1   9
HETATM    9  C           1     -20.495  -6.550  -5.551  0.00  0.00     0.197 C 
HETATM   10  O           1     -20.448  -5.326  -5.302  0.00  0.00    -0.646 OA
HETATM   11  O           1     -20.618  -6.945  -6.731  0.00  0.00    -0.646 OA
ENDBRANCH   1   9
BRANCH   1  12
HETATM   12  N           1     -21.668  -7.601  -3.718  0.00  0.00    -0.344 N 
HETATM   13  H           1     -22.463  -8.069  -4.134  0.00  0.00     0.163 HD
HETATM   14  C           1     -21.787  -7.015  -2.487  0.00  0.00     0.248 C 
HETATM   15  O           1     -22.128  -5.859  -2.398  0.00  0.00    -0.271 OA
BRANCH  14  16
HETATM   16  C           1     -21.491  -7.811  -1.239  0.00  0.00     0.270 C 
HETATM   17  C           1     -21.661  -9.295  -1.531  0.00  0.00     0.050 C 
BRANCH  16  18
HETATM   18  N           1     -22.441  -7.404  -0.151  0.00  0.00    -0.067 N 
HETATM   19  H           1     -23.353  -7.119  -0.574  0.00  0.00     0.275 HD
HETATM   20  H           1     -22.036  -6.601   0.382  0.00  0.00     0.275 HD
HETATM   21  H           1     -22.594  -8.210   0.497  0.00  0.00     0.275 HD
ENDBRANCH  16  18
ENDBRANCH  14  16
ENDBRANCH   1  12
TORSDOF 6
ENDMDL
MODEL 8
REMARK VINA RESULT:      -6.0     10.923     12.682
REMARK  6 active torsions:
REMARK  status: ('A' for Active; 'I' for Inactive)
REMARK    1  A    between atoms: C_2  and  C_3 
REMARK    2  A    between atoms: C_3  and  C_4 
REMARK    3  A    between atoms: C_4  and  C_18 
REMARK    4  A    between atoms: C_4  and  N_12 
REMARK       I    between atoms: N_12  and  C_13 
REMARK    5  A    between atoms: C_13  and  C_14 
REMARK    6  A    between atoms: C_14  and  N_16 
ROOT
HETATM    1  C           1     -27.380  -6.065 -17.277  0.00  0.00     0.189 C 
ENDROOT
BRANCH   1   2
HETATM    2  C           1     -28.554  -6.403 -18.186  0.00  0.00     0.074 C 
BRANCH   2   3
HETATM    3  C           1     -29.721  -5.533 -17.839  0.00  0.00    -0.056 A 
HETATM    4  C           1     -29.673  -4.163 -18.099  0.00  0.00     0.007 A 
HETATM    5  C           1     -30.760  -3.352 -17.775  0.00  0.00     0.001 A 
HETATM    6  C           1     -31.897  -3.911 -17.192  0.00  0.00     0.000 A 
HETATM    7  C           1     -31.946  -5.280 -16.932  0.00  0.00     0.001 A 
HETATM    8  C           1     -30.858  -6.091 -17.255  0.00  0.00     0.007 A 
ENDBRANCH   2   3
ENDBRANCH   1   2
BRANCH   1   9
HETATM    9  C           1     -27.867  -5.930 -15.854  0.00  0.00     0.197 C 
HETATM   10  O           1     -27.958  -4.799 -15.330  0.00  0.00    -0.646 OA
HETATM   11  O           1     -28.179  -6.949 -15.201  0.00  0.00    -0.646 OA
ENDBRANCH   1   9
BRANCH   1  12
HETATM   12  N           1     -26.392  -7.123 -17.351  0.00  0.00    -0.344 N 
HETATM   13  H           1     -26.689  -8.089 -17.414  0.00  0.00     0.163 HD
HETATM   14  C           1     -25.058  -6.817 -17.337  0.00  0.00     0.248 C 
HETATM   15  O           1     -24.464  -6.751 -16.287  0.00  0.00    -0.271 OA
BRANCH  14  16
HETATM   16  C           1     -24.328  -6.563 -18.633  0.00  0.00     0.270 C 
HETATM   17  C           1     -25.097  -7.198 -19.783  0.00  0.00     0.050 C 
BRANCH  16  18
HETATM   18  N           1     -22.955  -7.164 -18.559  0.00  0.00    -0.067 N 
HETATM   19  H           1     -22.564  -7.021 -17.601  0.00  0.00     0.275 HD
HETATM   20  H           1     -22.335  -6.704 -19.263  0.00  0.00     0.275 HD
HETATM   21  H           1     -23.012  -8.188 -18.763  0.00  0.00     0.275 HD
ENDBRANCH  16  18
ENDBRANCH  14  16
ENDBRANCH   1  12
TORSDOF 6
ENDMDL
MODEL 9
REMARK VINA RESULT:      -6.0      4.085      7.222
REMARK  6 active torsions:
REMARK  status: ('A' for Active; 'I' for Inactive)
REMARK    1  A    between atoms: C_2  and  C_3 
REMARK    2  A    between atoms: C_3  and  C_4 
REMARK    3  A    between atoms: C_4  and  C_18 
REMARK    4  A    between atoms: C_4  and  N_12 
REMARK       I    between atoms: N_12  and  C_13 
REMARK    5  A    between atoms: C_13  and  C_14 
REMARK    6  A    between atoms: C_14  and  N_16 
ROOT
HETATM    1  C           1     -21.295  -8.379  -4.469  0.00  0.00     0.189 C 
ENDROOT
BRANCH   1   2
HETATM    2  C           1     -20.623  -7.904  -3.187  0.00  0.00     0.074 C 
BRANCH   2   3
HETATM    3  C           1     -21.495  -8.231  -2.016  0.00  0.00    -0.056 A 
HETATM    4  C           1     -21.850  -9.555  -1.758  0.00  0.00     0.007 A 
HETATM    5  C           1     -22.663  -9.860  -0.667  0.00  0.00     0.001 A 
HETATM    6  C           1     -23.120  -8.841   0.168  0.00  0.00     0.000 A 
HETATM    7  C           1     -22.767  -7.517  -0.089  0.00  0.00     0.001 A 
HETATM    8  C           1     -21.954  -7.212  -1.181  0.00  0.00     0.007 A 
ENDBRANCH   2   3
ENDBRANCH   1   2
BRANCH   1   9
HETATM    9  C           1     -21.676  -7.185  -5.310  0.00  0.00     0.197 C 
HETATM   10  O           1     -22.447  -6.316  -4.848  0.00  0.00    -0.646 OA
HETATM   11  O           1     -21.220  -7.064  -6.468  0.00  0.00    -0.646 OA
ENDBRANCH   1   9
BRANCH   1  12
HETATM   12  N           1     -20.376  -9.219  -5.212  0.00  0.00    -0.344 N 
HETATM   13  H           1     -19.493  -8.842  -5.534  0.00  0.00     0.163 HD
HETATM   14  C           1     -20.701 -10.521  -5.477  0.00  0.00     0.248 C 
HETATM   15  O           1     -21.298 -10.802  -6.489  0.00  0.00    -0.271 OA
BRANCH  14  16
HETATM   16  C           1     -20.313 -11.609  -4.505  0.00  0.00     0.270 C 
HETATM   17  C           1     -19.357 -12.580  -5.183  0.00  0.00     0.050 C 
BRANCH  16  18
HETATM   18  N           1     -21.544 -12.346  -4.064  0.00  0.00    -0.067 N 
HETATM   19  H           1     -22.376 -11.721  -4.158  0.00  0.00     0.275 HD
HETATM   20  H           1     -21.436 -12.638  -3.067  0.00  0.00     0.275 HD
HETATM   21  H           1     -21.675 -13.194  -4.662  0.00  0.00     0.275 HD
ENDBRANCH  16  18
ENDBRANCH  14  16
ENDBRANCH   1  12
TORSDOF 6
ENDMDL
