MODEL 1
REMARK VINA RESULT:      -8.3      0.000      0.000
REMARK  11 active torsions:
REMARK  status: ('A' for Active; 'I' for Inactive)
REMARK    1  A    between atoms: O_2  and  P_32 
REMARK    2  A    between atoms: C_3  and  C_6 
REMARK       I    between atoms: C_4  and  N_5 
REMARK    3  A    between atoms: C_4  and  C_18 
REMARK    4  A    between atoms: N_5  and  C_7 
REMARK    5  A    between atoms: C_6  and  C_7 
REMARK    6  A    between atoms: C_7  and  C_13 
REMARK    7  A    between atoms: C_9  and  O_16 
REMARK    8  A    between atoms: O_16  and  P_32 
REMARK    9  A    between atoms: C_18  and  C_24 
REMARK   10  A    between atoms: C_18  and  N_19 
REMARK   11  A    between atoms: C_23  and  C_24 
ROOT
HETATM    1  C           1     -21.137  -7.919  -5.462  0.00  0.00     0.189 C 
ENDROOT
BRANCH   1   2
HETATM    2  N           1     -22.040  -7.899  -4.327  0.00  0.00    -0.344 N 
HETATM    3  C           1     -21.583  -7.510  -3.097  0.00  0.00     0.249 C 
HETATM    4  O           1     -21.637  -6.347  -2.773  0.00  0.00    -0.271 OA
HETATM    5  H           1     -23.007  -8.174  -4.445  0.00  0.00     0.163 HD
BRANCH   3   6
HETATM    6  C           1     -21.014  -8.532  -2.144  0.00  0.00     0.278 C 
BRANCH   6   7
HETATM    7  C           1     -21.700  -8.404  -0.791  0.00  0.00     0.081 C 
BRANCH   7   8
HETATM    8  C           1     -22.107  -9.761  -0.306  0.00  0.00    -0.056 A 
HETATM    9  C           1     -23.436 -10.170  -0.411  0.00  0.00     0.007 A 
HETATM   10  C           1     -23.815 -11.434   0.040  0.00  0.00     0.001 A 
HETATM   11  C           1     -22.864 -12.290   0.596  0.00  0.00     0.000 A 
HETATM   12  C           1     -21.535 -11.882   0.701  0.00  0.00     0.001 A 
HETATM   13  C           1     -21.156 -10.617   0.250  0.00  0.00     0.007 A 
ENDBRANCH   7   8
ENDBRANCH   6   7
BRANCH   6  14
HETATM   14  N           1     -19.541  -8.296  -1.982  0.00  0.00    -0.066 N 
HETATM   15  H           1     -19.041  -9.214  -1.974  0.00  0.00     0.275 HD
HETATM   16  H           1     -19.192  -7.715  -2.777  0.00  0.00     0.275 HD
HETATM   17  H           1     -19.366  -7.795  -1.082  0.00  0.00     0.275 HD
ENDBRANCH   6  14
ENDBRANCH   3   6
ENDBRANCH   1   2
BRANCH   1  18
HETATM   18  C           1     -20.390  -6.595  -5.539  0.00  0.00     0.074 C 
BRANCH  18  19
HETATM   19  C           1     -20.977  -5.752  -6.628  0.00  0.00    -0.056 A 
HETATM   20  C           1     -22.226  -5.156  -6.451  0.00  0.00     0.010 A 
HETATM   21  C           1     -22.773  -4.370  -7.466  0.00  0.00     0.038 A 
HETATM   22  C           1     -22.073  -4.182  -8.658  0.00  0.00     0.081 A 
HETATM   23  C           1     -20.825  -4.780  -8.834  0.00  0.00     0.038 A 
HETATM   24  C           1     -20.277  -5.565  -7.820  0.00  0.00     0.010 A 
BRANCH  22  25
HETATM   25  O           1     -22.605  -3.420  -9.644  0.00  0.00    -0.247 OA
BRANCH  25  26
HETATM   26  P           1     -23.567  -4.140 -10.723  0.00  0.00     0.411 P 
HETATM   27  O           1     -24.000  -5.455 -10.199  0.00  0.00    -0.624 OA
HETATM   28  O           1     -24.754  -3.292 -10.969  0.00  0.00    -0.624 OA
BRANCH  26  29
HETATM   29  O           1     -22.759  -4.350 -12.106  0.00  0.00    -0.300 OA
HETATM   30  H           1     -23.344  -4.047 -12.778  0.00  0.00     0.223 HD
ENDBRANCH  26  29
ENDBRANCH  25  26
ENDBRANCH  22  25
ENDBRANCH  18  19
ENDBRANCH   1  18
BRANCH   1  31
HETATM   31  C           1     -20.148  -9.047  -5.297  0.00  0.00     0.197 C 
HETATM   32  O           1     -20.491 -10.222  -5.551  0.00  0.00    -0.646 OA
HETATM   33  O           1     -18.986  -8.806  -4.906  0.00  0.00    -0.646 OA
ENDBRANCH   1  31
TORSDOF 11
ENDMDL
MODEL 2
REMARK VINA RESULT:      -8.1      3.011      4.519
REMARK  11 active torsions:
REMARK  status: ('A' for Active; 'I' for Inactive)
REMARK    1  A    between atoms: O_2  and  P_32 
REMARK    2  A    between atoms: C_3  and  C_6 
REMARK       I    between atoms: C_4  and  N_5 
REMARK    3  A    between atoms: C_4  and  C_18 
REMARK    4  A    between atoms: N_5  and  C_7 
REMARK    5  A    between atoms: C_6  and  C_7 
REMARK    6  A    between atoms: C_7  and  C_13 
REMARK    7  A    between atoms: C_9  and  O_16 
REMARK    8  A    between atoms: O_16  and  P_32 
REMARK    9  A    between atoms: C_18  and  C_24 
REMARK   10  A    between atoms: C_18  and  N_19 
REMARK   11  A    between atoms: C_23  and  C_24 
ROOT
HETATM    1  C           1     -18.804 -10.384  -2.714  0.00  0.00     0.189 C 
ENDROOT
BRANCH   1   2
HETATM    2  N           1     -19.302 -11.602  -2.106  0.00  0.00    -0.344 N 
HETATM    3  C           1     -20.441 -12.191  -2.584  0.00  0.00     0.249 C 
HETATM    4  O           1     -20.370 -13.018  -3.462  0.00  0.00    -0.271 OA
HETATM    5  H           1     -18.807 -12.017  -1.327  0.00  0.00     0.163 HD
BRANCH   3   6
HETATM    6  C           1     -21.786 -11.807  -2.017  0.00  0.00     0.278 C 
BRANCH   6   7
HETATM    7  C           1     -21.734 -11.875  -0.497  0.00  0.00     0.081 C 
BRANCH   7   8
HETATM    8  C           1     -21.865 -10.496   0.070  0.00  0.00    -0.056 A 
HETATM    9  C           1     -22.959  -9.702  -0.272  0.00  0.00     0.007 A 
HETATM   10  C           1     -23.081  -8.416   0.256  0.00  0.00     0.001 A 
HETATM   11  C           1     -22.107  -7.925   1.127  0.00  0.00     0.000 A 
HETATM   12  C           1     -21.013  -8.718   1.469  0.00  0.00     0.001 A 
HETATM   13  C           1     -20.891 -10.005   0.940  0.00  0.00     0.007 A 
ENDBRANCH   7   8
ENDBRANCH   6   7
BRANCH   6  14
HETATM   14  N           1     -22.830 -12.757  -2.524  0.00  0.00    -0.066 N 
HETATM   15  H           1     -23.751 -12.266  -2.577  0.00  0.00     0.275 HD
HETATM   16  H           1     -22.560 -13.096  -3.476  0.00  0.00     0.275 HD
HETATM   17  H           1     -22.905 -13.572  -1.875  0.00  0.00     0.275 HD
ENDBRANCH   6  14
ENDBRANCH   3   6
ENDBRANCH   1   2
BRANCH   1  18
HETATM   18  C           1     -19.353  -9.180  -1.961  0.00  0.00     0.074 C 
BRANCH  18  19
HETATM   19  C           1     -20.164  -8.334  -2.893  0.00  0.00    -0.056 A 
HETATM   20  C           1     -20.182  -8.621  -4.258  0.00  0.00     0.010 A 
HETATM   21  C           1     -20.938  -7.833  -5.126  0.00  0.00     0.038 A 
HETATM   22  C           1     -21.676  -6.758  -4.630  0.00  0.00     0.081 A 
HETATM   23  C           1     -21.656  -6.471  -3.265  0.00  0.00     0.038 A 
HETATM   24  C           1     -20.901  -7.259  -2.397  0.00  0.00     0.010 A 
BRANCH  22  25
HETATM   25  O           1     -22.409  -5.993  -5.473  0.00  0.00    -0.247 OA
BRANCH  25  26
HETATM   26  P           1     -21.623  -5.121  -6.583  0.00  0.00     0.411 P 
HETATM   27  O           1     -20.503  -4.399  -5.941  0.00  0.00    -0.624 OA
HETATM   28  O           1     -21.094  -6.019  -7.633  0.00  0.00    -0.624 OA
BRANCH  26  29
HETATM   29  O           1     -22.640  -4.056  -7.247  0.00  0.00    -0.300 OA
HETATM   30  H           1     -22.136  -3.267  -7.347  0.00  0.00     0.223 HD
ENDBRANCH  26  29
ENDBRANCH  25  26
ENDBRANCH  22  25
ENDBRANCH  18  19
ENDBRANCH   1  18
BRANCH   1  31
HETATM   31  C           1     -17.297 -10.371  -2.654  0.00  0.00     0.197 C 
HETATM   32  O           1     -16.669 -11.437  -2.469  0.00  0.00    -0.646 OA
HETATM   33  O           1     -16.675  -9.295  -2.788  0.00  0.00    -0.646 OA
ENDBRANCH   1  31
TORSDOF 11
ENDMDL
MODEL 3
REMARK VINA RESULT:      -7.6     13.258     15.542
REMARK  11 active torsions:
REMARK  status: ('A' for Active; 'I' for Inactive)
REMARK    1  A    between atoms: O_2  and  P_32 
REMARK    2  A    between atoms: C_3  and  C_6 
REMARK       I    between atoms: C_4  and  N_5 
REMARK    3  A    between atoms: C_4  and  C_18 
REMARK    4  A    between atoms: N_5  and  C_7 
REMARK    5  A    between atoms: C_6  and  C_7 
REMARK    6  A    between atoms: C_7  and  C_13 
REMARK    7  A    between atoms: C_9  and  O_16 
REMARK    8  A    between atoms: O_16  and  P_32 
REMARK    9  A    between atoms: C_18  and  C_24 
REMARK   10  A    between atoms: C_18  and  N_19 
REMARK   11  A    between atoms: C_23  and  C_24 
ROOT
HETATM    1  C           1     -32.338  -4.659 -16.458  0.00  0.00     0.189 C 
ENDROOT
BRANCH   1   2
HETATM    2  N           1     -33.776  -4.817 -16.357  0.00  0.00    -0.344 N 
HETATM    3  C           1     -34.494  -4.022 -15.505  0.00  0.00     0.249 C 
HETATM    4  O           1     -34.942  -2.969 -15.894  0.00  0.00    -0.271 OA
HETATM    5  H           1     -34.249  -5.515 -16.917  0.00  0.00     0.163 HD
BRANCH   3   6
HETATM    6  C           1     -34.727  -4.460 -14.079  0.00  0.00     0.278 C 
BRANCH   6   7
HETATM    7  C           1     -33.543  -4.042 -13.219  0.00  0.00     0.081 C 
BRANCH   7   8
HETATM    8  C           1     -34.003  -3.080 -12.168  0.00  0.00    -0.056 A 
HETATM    9  C           1     -35.040  -2.189 -12.444  0.00  0.00     0.007 A 
HETATM   10  C           1     -35.469  -1.294 -11.464  0.00  0.00     0.001 A 
HETATM   11  C           1     -34.860  -1.289 -10.208  0.00  0.00     0.000 A 
HETATM   12  C           1     -33.823  -2.179  -9.932  0.00  0.00     0.001 A 
HETATM   13  C           1     -33.394  -3.076 -10.913  0.00  0.00     0.007 A 
ENDBRANCH   7   8
ENDBRANCH   6   7
BRANCH   6  14
HETATM   14  N           1     -34.876  -5.952 -14.034  0.00  0.00    -0.066 N 
HETATM   15  H           1     -34.133  -6.393 -14.621  0.00  0.00     0.275 HD
HETATM   16  H           1     -34.782  -6.282 -13.047  0.00  0.00     0.275 HD
HETATM   17  H           1     -35.817  -6.219 -14.402  0.00  0.00     0.275 HD
ENDBRANCH   6  14
ENDBRANCH   3   6
ENDBRANCH   1   2
BRANCH   1  18
HETATM   18  C           1     -31.735  -5.898 -17.103  0.00  0.00     0.074 C 
BRANCH  18  19
HETATM   19  C           1     -30.242  -5.831 -17.018  0.00  0.00    -0.056 A 
HETATM   20  C           1     -29.469  -6.022 -18.164  0.00  0.00     0.010 A 
HETATM   21  C           1     -28.078  -5.959 -18.084  0.00  0.00     0.038 A 
HETATM   22  C           1     -27.459  -5.706 -16.860  0.00  0.00     0.081 A 
HETATM   23  C           1     -28.232  -5.517 -15.715  0.00  0.00     0.038 A 
HETATM   24  C           1     -29.623  -5.579 -15.793  0.00  0.00     0.010 A 
BRANCH  22  25
HETATM   25  O           1     -26.108  -5.646 -16.783  0.00  0.00    -0.247 OA
BRANCH  25  26
HETATM   26  P           1     -25.351  -6.742 -15.870  0.00  0.00     0.411 P 
HETATM   27  O           1     -26.327  -7.749 -15.397  0.00  0.00    -0.624 OA
HETATM   28  O           1     -24.301  -7.411 -16.670  0.00  0.00    -0.624 OA
BRANCH  26  29
HETATM   29  O           1     -24.675  -6.008 -14.600  0.00  0.00    -0.300 OA
HETATM   30  H           1     -24.252  -5.246 -14.955  0.00  0.00     0.223 HD
ENDBRANCH  26  29
ENDBRANCH  25  26
ENDBRANCH  22  25
ENDBRANCH  18  19
ENDBRANCH   1  18
BRANCH   1  31
HETATM   31  C           1     -32.023  -3.448 -17.301  0.00  0.00     0.197 C 
HETATM   32  O           1     -30.874  -2.956 -17.286  0.00  0.00    -0.646 OA
HETATM   33  O           1     -32.912  -2.935 -18.015  0.00  0.00    -0.646 OA
ENDBRANCH   1  31
TORSDOF 11
ENDMDL
MODEL 4
REMARK VINA RESULT:      -7.5      4.534      9.069
REMARK  11 active torsions:
REMARK  status: ('A' for Active; 'I' for Inactive)
REMARK    1  A    between atoms: O_2  and  P_32 
REMARK    2  A    between atoms: C_3  and  C_6 
REMARK       I    between atoms: C_4  and  N_5 
REMARK    3  A    between atoms: C_4  and  C_18 
REMARK    4  A    between atoms: N_5  and  C_7 
REMARK    5  A    between atoms: C_6  and  C_7 
REMARK    6  A    between atoms: C_7  and  C_13 
REMARK    7  A    between atoms: C_9  and  O_16 
REMARK    8  A    between atoms: O_16  and  P_32 
REMARK    9  A    between atoms: C_18  and  C_24 
REMARK   10  A    between atoms: C_18  and  N_19 
REMARK   11  A    between atoms: C_23  and  C_24 
ROOT
HETATM    1  C           1     -20.236  -8.182  -4.506  0.00  0.00     0.189 C 
ENDROOT
BRANCH   1   2
HETATM    2  N           1     -20.871  -6.943  -4.099  0.00  0.00    -0.344 N 
HETATM    3  C           1     -21.648  -6.249  -4.986  0.00  0.00     0.249 C 
HETATM    4  O           1     -22.833  -6.478  -5.059  0.00  0.00    -0.271 OA
HETATM    5  H           1     -20.739  -6.591  -3.159  0.00  0.00     0.163 HD
BRANCH   3   6
HETATM    6  C           1     -21.028  -5.198  -5.874  0.00  0.00     0.278 C 
BRANCH   6   7
HETATM    7  C           1     -20.540  -5.844  -7.163  0.00  0.00     0.081 C 
BRANCH   7   8
HETATM    8  C           1     -21.004  -5.035  -8.334  0.00  0.00    -0.056 A 
HETATM    9  C           1     -22.295  -4.507  -8.350  0.00  0.00     0.007 A 
HETATM   10  C           1     -22.727  -3.753  -9.442  0.00  0.00     0.001 A 
HETATM   11  C           1     -21.867  -3.527 -10.517  0.00  0.00     0.000 A 
HETATM   12  C           1     -20.576  -4.053 -10.501  0.00  0.00     0.001 A 
HETATM   13  C           1     -20.144  -4.808  -9.409  0.00  0.00     0.007 A 
ENDBRANCH   7   8
ENDBRANCH   6   7
BRANCH   6  14
HETATM   14  N           1     -19.868  -4.566  -5.161  0.00  0.00    -0.066 N 
HETATM   15  H           1     -19.005  -5.129  -5.333  0.00  0.00     0.275 HD
HETATM   16  H           1     -19.727  -3.594  -5.519  0.00  0.00     0.275 HD
HETATM   17  H           1     -20.066  -4.533  -4.136  0.00  0.00     0.275 HD
ENDBRANCH   6  14
ENDBRANCH   3   6
ENDBRANCH   1   2
BRANCH   1  18
HETATM   18  C           1     -19.408  -8.730  -3.352  0.00  0.00     0.074 C 
BRANCH  18  19
HETATM   19  C           1     -18.135  -9.311  -3.882  0.00  0.00    -0.056 A 
HETATM   20  C           1     -17.079  -9.586  -3.012  0.00  0.00     0.010 A 
HETATM   21  C           1     -15.892 -10.127  -3.505  0.00  0.00     0.038 A 
HETATM   22  C           1     -15.759 -10.394  -4.868  0.00  0.00     0.081 A 
HETATM   23  C           1     -16.815 -10.118  -5.737  0.00  0.00     0.038 A 
HETATM   24  C           1     -18.002  -9.577  -5.244  0.00  0.00     0.010 A 
BRANCH  22  25
HETATM   25  O           1     -14.607 -10.919  -5.347  0.00  0.00    -0.247 OA
BRANCH  25  26
HETATM   26  P           1     -14.297 -12.475  -5.044  0.00  0.00     0.411 P 
HETATM   27  O           1     -15.573 -13.212  -4.899  0.00  0.00    -0.624 OA
HETATM   28  O           1     -13.519 -13.051  -6.162  0.00  0.00    -0.624 OA
BRANCH  26  29
HETATM   29  O           1     -13.447 -12.596  -3.676  0.00  0.00    -0.300 OA
HETATM   30  H           1     -13.860 -11.998  -3.078  0.00  0.00     0.223 HD
ENDBRANCH  26  29
ENDBRANCH  25  26
ENDBRANCH  22  25
ENDBRANCH  18  19
ENDBRANCH   1  18
BRANCH   1  31
HETATM   31  C           1     -21.294  -9.187  -4.889  0.00  0.00     0.197 C 
HETATM   32  O           1     -22.083  -9.625  -4.024  0.00  0.00    -0.646 OA
HETATM   33  O           1     -21.382  -9.582  -6.071  0.00  0.00    -0.646 OA
ENDBRANCH   1  31
TORSDOF 11
ENDMDL
MODEL 5
REMARK VINA RESULT:      -7.4      5.677      8.886
REMARK  11 active torsions:
REMARK  status: ('A' for Active; 'I' for Inactive)
REMARK    1  A    between atoms: O_2  and  P_32 
REMARK    2  A    between atoms: C_3  and  C_6 
REMARK       I    between atoms: C_4  and  N_5 
REMARK    3  A    between atoms: C_4  and  C_18 
REMARK    4  A    between atoms: N_5  and  C_7 
REMARK    5  A    between atoms: C_6  and  C_7 
REMARK    6  A    between atoms: C_7  and  C_13 
REMARK    7  A    between atoms: C_9  and  O_16 
REMARK    8  A    between atoms: O_16  and  P_32 
REMARK    9  A    between atoms: C_18  and  C_24 
REMARK   10  A    between atoms: C_18  and  N_19 
REMARK   11  A    between atoms: C_23  and  C_24 
ROOT
HETATM    1  C           1     -21.510 -11.650  -4.442  0.00  0.00     0.189 C 
ENDROOT
BRANCH   1   2
HETATM    2  N           1     -20.591 -10.590  -4.807  0.00  0.00    -0.344 N 
HETATM    3  C           1     -19.369 -10.505  -4.197  0.00  0.00     0.249 C 
HETATM    4  O           1     -18.416 -11.079  -4.669  0.00  0.00    -0.271 OA
HETATM    5  H           1     -20.853  -9.914  -5.513  0.00  0.00     0.163 HD
BRANCH   3   6
HETATM    6  C           1     -19.209  -9.692  -2.935  0.00  0.00     0.278 C 
BRANCH   6   7
HETATM    7  C           1     -20.118  -8.473  -2.997  0.00  0.00     0.081 C 
BRANCH   7   8
HETATM    8  C           1     -20.886  -8.356  -1.717  0.00  0.00    -0.056 A 
HETATM    9  C           1     -21.894  -7.401  -1.592  0.00  0.00     0.007 A 
HETATM   10  C           1     -22.609  -7.293  -0.399  0.00  0.00     0.001 A 
HETATM   11  C           1     -22.315  -8.140   0.669  0.00  0.00     0.000 A 
HETATM   12  C           1     -21.308  -9.096   0.545  0.00  0.00     0.001 A 
HETATM   13  C           1     -20.592  -9.204  -0.648  0.00  0.00     0.007 A 
ENDBRANCH   7   8
ENDBRANCH   6   7
BRANCH   6  14
HETATM   14  N           1     -17.783  -9.246  -2.807  0.00  0.00    -0.066 N 
HETATM   15  H           1     -17.160 -10.083  -2.751  0.00  0.00     0.275 HD
HETATM   16  H           1     -17.521  -8.672  -3.639  0.00  0.00     0.275 HD
HETATM   17  H           1     -17.674  -8.672  -1.941  0.00  0.00     0.275 HD
ENDBRANCH   6  14
ENDBRANCH   3   6
ENDBRANCH   1   2
BRANCH   1  18
HETATM   18  C           1     -22.703 -11.056  -3.706  0.00  0.00     0.074 C 
BRANCH  18  19
HETATM   19  C           1     -22.735 -11.576  -2.303  0.00  0.00    -0.056 A 
HETATM   20  C           1     -21.746 -12.456  -1.863  0.00  0.00     0.010 A 
HETATM   21  C           1     -21.776 -12.941  -0.555  0.00  0.00     0.038 A 
HETATM   22  C           1     -22.794 -12.546   0.313  0.00  0.00     0.081 A 
HETATM   23  C           1     -23.783 -11.666  -0.128  0.00  0.00     0.038 A 
HETATM   24  C           1     -23.754 -11.181  -1.435  0.00  0.00     0.010 A 
BRANCH  22  25
HETATM   25  O           1     -22.823 -13.017   1.582  0.00  0.00    -0.247 OA
BRANCH  25  26
HETATM   26  P           1     -23.277 -14.550   1.812  0.00  0.00     0.411 P 
HETATM   27  O           1     -24.109 -14.994   0.672  0.00  0.00    -0.624 OA
HETATM   28  O           1     -22.078 -15.411   1.913  0.00  0.00    -0.624 OA
BRANCH  26  29
HETATM   29  O           1     -24.133 -14.657   3.178  0.00  0.00    -0.300 OA
HETATM   30  H           1     -23.780 -13.989   3.740  0.00  0.00     0.223 HD
ENDBRANCH  26  29
ENDBRANCH  25  26
ENDBRANCH  22  25
ENDBRANCH  18  19
ENDBRANCH   1  18
BRANCH   1  31
HETATM   31  C           1     -21.987 -12.354  -5.689  0.00  0.00     0.197 C 
HETATM   32  O           1     -22.378 -13.540  -5.628  0.00  0.00    -0.646 OA
HETATM   33  O           1     -21.991 -11.751  -6.784  0.00  0.00    -0.646 OA
ENDBRANCH   1  31
TORSDOF 11
ENDMDL
MODEL 6
REMARK VINA RESULT:      -7.3      4.150      9.655
REMARK  11 active torsions:
REMARK  status: ('A' for Active; 'I' for Inactive)
REMARK    1  A    between atoms: O_2  and  P_32 
REMARK    2  A    between atoms: C_3  and  C_6 
REMARK       I    between atoms: C_4  and  N_5 
REMARK    3  A    between atoms: C_4  and  C_18 
REMARK    4  A    between atoms: N_5  and  C_7 
REMARK    5  A    between atoms: C_6  and  C_7 
REMARK    6  A    between atoms: C_7  and  C_13 
REMARK    7  A    between atoms: C_9  and  O_16 
REMARK    8  A    between atoms: O_16  and  P_32 
REMARK    9  A    between atoms: C_18  and  C_24 
REMARK   10  A    between atoms: C_18  and  N_19 
REMARK   11  A    between atoms: C_23  and  C_24 
ROOT
HETATM    1  C           1     -21.295  -7.535  -4.162  0.00  0.00     0.189 C 
ENDROOT
BRANCH   1   2
HETATM    2  N           1     -20.544  -6.912  -5.235  0.00  0.00    -0.344 N 
HETATM    3  C           1     -20.814  -5.620  -5.598  0.00  0.00     0.249 C 
HETATM    4  O           1     -20.226  -4.708  -5.066  0.00  0.00    -0.271 OA
HETATM    5  H           1     -19.820  -7.432  -5.715  0.00  0.00     0.163 HD
BRANCH   3   6
HETATM    6  C           1     -21.843  -5.334  -6.663  0.00  0.00     0.278 C 
BRANCH   6   7
HETATM    7  C           1     -21.552  -3.984  -7.304  0.00  0.00     0.081 C 
BRANCH   7   8
HETATM    8  C           1     -21.591  -4.119  -8.794  0.00  0.00    -0.056 A 
HETATM    9  C           1     -22.816  -4.216  -9.454  0.00  0.00     0.007 A 
HETATM   10  C           1     -22.851  -4.341 -10.843  0.00  0.00     0.001 A 
HETATM   11  C           1     -21.662  -4.370 -11.572  0.00  0.00     0.000 A 
HETATM   12  C           1     -20.437  -4.273 -10.912  0.00  0.00     0.001 A 
HETATM   13  C           1     -20.401  -4.148  -9.523  0.00  0.00     0.007 A 
ENDBRANCH   7   8
ENDBRANCH   6   7
BRANCH   6  14
HETATM   14  N           1     -23.209  -5.308  -6.042  0.00  0.00    -0.066 N 
HETATM   15  H           1     -23.932  -5.420  -6.788  0.00  0.00     0.275 HD
HETATM   16  H           1     -23.294  -6.090  -5.354  0.00  0.00     0.275 HD
HETATM   17  H           1     -23.350  -4.397  -5.551  0.00  0.00     0.275 HD
ENDBRANCH   6  14
ENDBRANCH   3   6
ENDBRANCH   1   2
BRANCH   1  18
HETATM   18  C           1     -20.454  -8.632  -3.525  0.00  0.00     0.074 C 
BRANCH  18  19
HETATM   19  C           1     -21.296  -9.414  -2.565  0.00  0.00    -0.056 A 
HETATM   20  C           1     -22.250 -10.311  -3.046  0.00  0.00     0.010 A 
HETATM   21  C           1     -23.035 -11.040  -2.151  0.00  0.00     0.038 A 
HETATM   22  C           1     -22.867 -10.871  -0.777  0.00  0.00     0.081 A 
HETATM   23  C           1     -21.913  -9.973  -0.297  0.00  0.00     0.038 A 
HETATM   24  C           1     -21.128  -9.245  -1.191  0.00  0.00     0.010 A 
BRANCH  22  25
HETATM   25  O           1     -23.629 -11.578   0.091  0.00  0.00    -0.247 OA
BRANCH  25  26
HETATM   26  P           1     -23.191 -13.096   0.423  0.00  0.00     0.411 P 
HETATM   27  O           1     -23.515 -13.406   1.833  0.00  0.00    -0.624 OA
HETATM   28  O           1     -23.921 -14.026  -0.467  0.00  0.00    -0.624 OA
BRANCH  26  29
HETATM   29  O           1     -21.602 -13.261   0.186  0.00  0.00    -0.300 OA
HETATM   30  H           1     -21.205 -12.611   0.740  0.00  0.00     0.223 HD
ENDBRANCH  26  29
ENDBRANCH  25  26
ENDBRANCH  22  25
ENDBRANCH  18  19
ENDBRANCH   1  18
BRANCH   1  31
HETATM   31  C           1     -21.642  -6.498  -3.123  0.00  0.00     0.197 C 
HETATM   32  O           1     -20.757  -6.064  -2.353  0.00  0.00    -0.646 OA
HETATM   33  O           1     -22.813  -6.073  -3.030  0.00  0.00    -0.646 OA
ENDBRANCH   1  31
TORSDOF 11
ENDMDL
MODEL 7
REMARK VINA RESULT:      -7.2      2.731      4.833
REMARK  11 active torsions:
REMARK  status: ('A' for Active; 'I' for Inactive)
REMARK    1  A    between atoms: O_2  and  P_32 
REMARK    2  A    between atoms: C_3  and  C_6 
REMARK       I    between atoms: C_4  and  N_5 
REMARK    3  A    between atoms: C_4  and  C_18 
REMARK    4  A    between atoms: N_5  and  C_7 
REMARK    5  A    between atoms: C_6  and  C_7 
REMARK    6  A    between atoms: C_7  and  C_13 
REMARK    7  A    between atoms: C_9  and  O_16 
REMARK    8  A    between atoms: O_16  and  P_32 
REMARK    9  A    between atoms: C_18  and  C_24 
REMARK   10  A    between atoms: C_18  and  N_19 
REMARK   11  A    between atoms: C_23  and  C_24 
ROOT
HETATM    1  C           1     -21.511  -7.235  -3.804  0.00  0.00     0.189 C 
ENDROOT
BRANCH   1   2
HETATM    2  N           1     -21.575  -8.668  -3.593  0.00  0.00    -0.344 N 
HETATM    3  C           1     -20.421  -9.394  -3.470  0.00  0.00     0.249 C 
HETATM    4  O           1     -19.927  -9.562  -2.379  0.00  0.00    -0.271 OA
HETATM    5  H           1     -22.472  -9.132  -3.539  0.00  0.00     0.163 HD
BRANCH   3   6
HETATM    6  C           1     -19.764  -9.985  -4.693  0.00  0.00     0.278 C 
BRANCH   6   7
HETATM    7  C           1     -18.581  -9.119  -5.104  0.00  0.00     0.081 C 
BRANCH   7   8
HETATM    8  C           1     -17.314  -9.905  -4.962  0.00  0.00    -0.056 A 
HETATM    9  C           1     -16.690 -10.432  -6.092  0.00  0.00     0.007 A 
HETATM   10  C           1     -15.509 -11.163  -5.959  0.00  0.00     0.001 A 
HETATM   11  C           1     -14.954 -11.368  -4.695  0.00  0.00     0.000 A 
HETATM   12  C           1     -15.578 -10.841  -3.566  0.00  0.00     0.001 A 
HETATM   13  C           1     -16.759 -10.109  -3.698  0.00  0.00     0.007 A 
ENDBRANCH   7   8
ENDBRANCH   6   7
BRANCH   6  14
HETATM   14  N           1     -20.758 -10.037  -5.816  0.00  0.00    -0.066 N 
HETATM   15  H           1     -20.464 -10.762  -6.508  0.00  0.00     0.275 HD
HETATM   16  H           1     -21.701 -10.281  -5.435  0.00  0.00     0.275 HD
HETATM   17  H           1     -20.804  -9.104  -6.284  0.00  0.00     0.275 HD
ENDBRANCH   6  14
ENDBRANCH   3   6
ENDBRANCH   1   2
BRANCH   1  18
HETATM   18  C           1     -22.575  -6.822  -4.811  0.00  0.00     0.074 C 
BRANCH  18  19
HETATM   19  C           1     -21.948  -6.000  -5.894  0.00  0.00    -0.056 A 
HETATM   20  C           1     -20.659  -6.298  -6.337  0.00  0.00     0.010 A 
HETATM   21  C           1     -20.074  -5.531  -7.345  0.00  0.00     0.038 A 
HETATM   22  C           1     -20.778  -4.468  -7.911  0.00  0.00     0.081 A 
HETATM   23  C           1     -22.066  -4.170  -7.467  0.00  0.00     0.038 A 
HETATM   24  C           1     -22.651  -4.936  -6.458  0.00  0.00     0.010 A 
BRANCH  22  25
HETATM   25  O           1     -20.210  -3.724  -8.889  0.00  0.00    -0.247 OA
BRANCH  25  26
HETATM   26  P           1     -20.534  -4.112 -10.423  0.00  0.00     0.411 P 
HETATM   27  O           1     -19.637  -5.208 -10.855  0.00  0.00    -0.624 OA
HETATM   28  O           1     -21.942  -4.554 -10.533  0.00  0.00    -0.624 OA
BRANCH  26  29
HETATM   29  O           1     -20.300  -2.822 -11.365  0.00  0.00    -0.300 OA
HETATM   30  H           1     -19.503  -3.003 -11.834  0.00  0.00     0.223 HD
ENDBRANCH  26  29
ENDBRANCH  25  26
ENDBRANCH  22  25
ENDBRANCH  18  19
ENDBRANCH   1  18
BRANCH   1  31
HETATM   31  C           1     -21.752  -6.523  -2.496  0.00  0.00     0.197 C 
HETATM   32  O           1     -21.537  -5.295  -2.403  0.00  0.00    -0.646 OA
HETATM   33  O           1     -22.166  -7.161  -1.504  0.00  0.00    -0.646 OA
ENDBRANCH   1  31
TORSDOF 11
ENDMDL
MODEL 8
REMARK VINA RESULT:      -7.2      4.762      8.600
REMARK  11 active torsions:
REMARK  status: ('A' for Active; 'I' for Inactive)
REMARK    1  A    between atoms: O_2  and  P_32 
REMARK    2  A    between atoms: C_3  and  C_6 
REMARK       I    between atoms: C_4  and  N_5 
REMARK    3  A    between atoms: C_4  and  C_18 
REMARK    4  A    between atoms: N_5  and  C_7 
REMARK    5  A    between atoms: C_6  and  C_7 
REMARK    6  A    between atoms: C_7  and  C_13 
REMARK    7  A    between atoms: C_9  and  O_16 
REMARK    8  A    between atoms: O_16  and  P_32 
REMARK    9  A    between atoms: C_18  and  C_24 
REMARK   10  A    between atoms: C_18  and  N_19 
REMARK   11  A    between atoms: C_23  and  C_24 
ROOT
HETATM    1  C           1     -21.515  -9.959  -4.264  0.00  0.00     0.189 C 
ENDROOT
BRANCH   1   2
HETATM    2  N           1     -22.038  -8.692  -4.735  0.00  0.00    -0.344 N 
HETATM    3  C           1     -21.187  -7.645  -4.968  0.00  0.00     0.249 C 
HETATM    4  O           1     -20.693  -7.501  -6.061  0.00  0.00    -0.271 OA
HETATM    5  H           1     -23.032  -8.580  -4.891  0.00  0.00     0.163 HD
BRANCH   3   6
HETATM    6  C           1     -20.867  -6.670  -3.861  0.00  0.00     0.278 C 
BRANCH   6   7
HETATM    7  C           1     -22.065  -6.547  -2.929  0.00  0.00     0.081 C 
BRANCH   7   8
HETATM    8  C           1     -21.792  -7.298  -1.663  0.00  0.00    -0.056 A 
HETATM    9  C           1     -20.616  -8.037  -1.530  0.00  0.00     0.007 A 
HETATM   10  C           1     -20.363  -8.736  -0.350  0.00  0.00     0.001 A 
HETATM   11  C           1     -21.285  -8.697   0.696  0.00  0.00     0.000 A 
HETATM   12  C           1     -22.460  -7.959   0.563  0.00  0.00     0.001 A 
HETATM   13  C           1     -22.714  -7.259  -0.617  0.00  0.00     0.007 A 
ENDBRANCH   7   8
ENDBRANCH   6   7
BRANCH   6  14
HETATM   14  N           1     -20.556  -5.328  -4.454  0.00  0.00    -0.066 N 
HETATM   15  H           1     -21.025  -4.582  -3.893  0.00  0.00     0.275 HD
HETATM   16  H           1     -19.522  -5.174  -4.444  0.00  0.00     0.275 HD
HETATM   17  H           1     -20.902  -5.294  -5.440  0.00  0.00     0.275 HD
ENDBRANCH   6  14
ENDBRANCH   3   6
ENDBRANCH   1   2
BRANCH   1  18
HETATM   18  C           1     -22.670 -10.873  -3.878  0.00  0.00     0.074 C 
BRANCH  18  19
HETATM   19  C           1     -22.477 -11.359  -2.475  0.00  0.00    -0.056 A 
HETATM   20  C           1     -21.286 -11.989  -2.114  0.00  0.00     0.010 A 
HETATM   21  C           1     -21.106 -12.442  -0.807  0.00  0.00     0.038 A 
HETATM   22  C           1     -22.116 -12.266   0.139  0.00  0.00     0.081 A 
HETATM   23  C           1     -23.307 -11.636  -0.224  0.00  0.00     0.038 A 
HETATM   24  C           1     -23.487 -11.183  -1.530  0.00  0.00     0.010 A 
BRANCH  22  25
HETATM   25  O           1     -21.942 -12.706   1.408  0.00  0.00    -0.247 OA
BRANCH  25  26
HETATM   26  P           1     -22.618 -14.113   1.822  0.00  0.00     0.411 P 
HETATM   27  O           1     -23.857 -13.857   2.591  0.00  0.00    -0.624 OA
HETATM   28  O           1     -22.945 -14.882   0.601  0.00  0.00    -0.624 OA
BRANCH  26  29
HETATM   29  O           1     -21.585 -14.958   2.731  0.00  0.00    -0.300 OA
HETATM   30  H           1     -21.966 -14.965   3.591  0.00  0.00     0.223 HD
ENDBRANCH  26  29
ENDBRANCH  25  26
ENDBRANCH  22  25
ENDBRANCH  18  19
ENDBRANCH   1  18
BRANCH   1  31
HETATM   31  C           1     -20.705 -10.607  -5.359  0.00  0.00     0.197 C 
HETATM   32  O           1     -19.491 -10.849  -5.180  0.00  0.00    -0.646 OA
HETATM   33  O           1     -21.246 -10.901  -6.447  0.00  0.00    -0.646 OA
ENDBRANCH   1  31
TORSDOF 11
ENDMDL
MODEL 9
REMARK VINA RESULT:      -7.2      4.719      6.982
REMARK  11 active torsions:
REMARK  status: ('A' for Active; 'I' for Inactive)
REMARK    1  A    between atoms: O_2  and  P_32 
REMARK    2  A    between atoms: C_3  and  C_6 
REMARK       I    between atoms: C_4  and  N_5 
REMARK    3  A    between atoms: C_4  and  C_18 
REMARK    4  A    between atoms: N_5  and  C_7 
REMARK    5  A    between atoms: C_6  and  C_7 
REMARK    6  A    between atoms: C_7  and  C_13 
REMARK    7  A    between atoms: C_9  and  O_16 
REMARK    8  A    between atoms: O_16  and  P_32 
REMARK    9  A    between atoms: C_18  and  C_24 
REMARK   10  A    between atoms: C_18  and  N_19 
REMARK   11  A    between atoms: C_23  and  C_24 
ROOT
HETATM    1  C           1     -21.086  -7.698  -2.437  0.00  0.00     0.189 C 
ENDROOT
BRANCH   1   2
HETATM    2  N           1     -21.966  -8.376  -1.505  0.00  0.00    -0.344 N 
HETATM    3  C           1     -21.470  -8.864  -0.327  0.00  0.00     0.249 C 
HETATM    4  O           1     -21.461  -8.167   0.660  0.00  0.00    -0.271 OA
HETATM    5  H           1     -22.948  -8.489  -1.726  0.00  0.00     0.163 HD
BRANCH   3   6
HETATM    6  C           1     -20.934 -10.274  -0.259  0.00  0.00     0.278 C 
BRANCH   6   7
HETATM    7  C           1     -22.005 -11.249  -0.727  0.00  0.00     0.081 C 
BRANCH   7   8
HETATM    8  C           1     -21.701 -11.694  -2.124  0.00  0.00    -0.056 A 
HETATM    9  C           1     -22.662 -11.556  -3.125  0.00  0.00     0.007 A 
HETATM   10  C           1     -22.377 -11.971  -4.426  0.00  0.00     0.001 A 
HETATM   11  C           1     -21.131 -12.523  -4.726  0.00  0.00     0.000 A 
HETATM   12  C           1     -20.170 -12.660  -3.725  0.00  0.00     0.001 A 
HETATM   13  C           1     -20.455 -12.245  -2.423  0.00  0.00     0.007 A 
ENDBRANCH   7   8
ENDBRANCH   6   7
BRANCH   6  14
HETATM   14  N           1     -20.551 -10.593   1.156  0.00  0.00    -0.066 N 
HETATM   15  H           1     -21.340 -10.345   1.794  0.00  0.00     0.275 HD
HETATM   16  H           1     -20.344 -11.614   1.239  0.00  0.00     0.275 HD
HETATM   17  H           1     -19.702 -10.044   1.419  0.00  0.00     0.275 HD
ENDBRANCH   6  14
ENDBRANCH   3   6
ENDBRANCH   1   2
BRANCH   1  18
HETATM   18  C           1     -20.988  -8.508  -3.723  0.00  0.00     0.074 C 
BRANCH  18  19
HETATM   19  C           1     -19.576  -8.964  -3.920  0.00  0.00    -0.056 A 
HETATM   20  C           1     -19.117  -9.277  -5.200  0.00  0.00     0.010 A 
HETATM   21  C           1     -17.801  -9.703  -5.384  0.00  0.00     0.038 A 
HETATM   22  C           1     -16.945  -9.816  -4.289  0.00  0.00     0.081 A 
HETATM   23  C           1     -17.405  -9.504  -3.009  0.00  0.00     0.038 A 
HETATM   24  C           1     -18.720  -9.078  -2.825  0.00  0.00     0.010 A 
BRANCH  22  25
HETATM   25  O           1     -15.668 -10.230  -4.467  0.00  0.00    -0.247 OA
BRANCH  25  26
HETATM   26  P           1     -15.415 -11.791  -4.796  0.00  0.00     0.411 P 
HETATM   27  O           1     -15.322 -11.978  -6.261  0.00  0.00    -0.624 OA
HETATM   28  O           1     -14.153 -12.232  -4.161  0.00  0.00    -0.624 OA
BRANCH  26  29
HETATM   29  O           1     -16.643 -12.667  -4.218  0.00  0.00    -0.300 OA
HETATM   30  H           1     -16.280 -13.146  -3.493  0.00  0.00     0.223 HD
ENDBRANCH  26  29
ENDBRANCH  25  26
ENDBRANCH  22  25
ENDBRANCH  18  19
ENDBRANCH   1  18
BRANCH   1  31
HETATM   31  C           1     -21.639  -6.329  -2.746  0.00  0.00     0.197 C 
HETATM   32  O           1     -22.277  -5.700  -1.872  0.00  0.00    -0.646 OA
HETATM   33  O           1     -21.462  -5.822  -3.874  0.00  0.00    -0.646 OA
ENDBRANCH   1  31
TORSDOF 11
ENDMDL
