MODEL 1
REMARK VINA RESULT:      -7.3      0.000      0.000
REMARK  11 active torsions:
REMARK  status: ('A' for Active; 'I' for Inactive)
REMARK       I    between atoms: N_2  and  C_27 
REMARK       I    between atoms: N_6  and  C_27 
REMARK    1  A    between atoms: N_6  and  C_9 
REMARK    2  A    between atoms: C_9  and  C_23 
REMARK    3  A    between atoms: C_10  and  C_26 
REMARK       I    between atoms: C_10  and  N_11 
REMARK    4  A    between atoms: N_13  and  C_24 
REMARK    5  A    between atoms: C_16  and  C_21 
REMARK       I    between atoms: C_17  and  N_18 
REMARK    6  A    between atoms: C_17  and  C_24 
REMARK    7  A    between atoms: N_18  and  C_21 
REMARK    8  A    between atoms: C_21  and  C_22 
REMARK    9  A    between atoms: C_22  and  C_23 
REMARK   10  A    between atoms: C_24  and  C_25 
REMARK   11  A    between atoms: C_25  and  C_26 
ROOT
HETATM    1  H           1     -27.631  -6.313 -18.101  0.00  0.00     0.163 HD
HETATM    2  C           1     -26.519  -6.936 -16.471  0.00  0.00     0.249 C 
HETATM    3  N           1     -27.674  -6.655 -17.149  0.00  0.00    -0.345 N 
HETATM    4  O           1     -26.569  -7.344 -15.334  0.00  0.00    -0.271 OA
ENDROOT
BRANCH   3   5
HETATM    5  C           1     -28.959  -6.848 -16.505  0.00  0.00     0.185 C 
BRANCH   5   6
HETATM    6  C           1     -29.922  -7.475 -17.481  0.00  0.00     0.196 C 
HETATM    7  O           1     -29.493  -8.212 -18.395  0.00  0.00    -0.646 OA
HETATM    8  O           1     -31.148  -7.258 -17.378  0.00  0.00    -0.646 OA
ENDBRANCH   5   6
BRANCH   5   9
HETATM    9  C           1     -29.503  -5.501 -16.047  0.00  0.00     0.038 C 
BRANCH   9  10
HETATM   10  C           1     -29.380  -4.490 -17.179  0.00  0.00     0.023 C 
BRANCH  10  11
HETATM   11  C           1     -30.711  -3.777 -17.370  0.00  0.00     0.138 C 
BRANCH  11  12
HETATM   12  N           1     -31.747  -4.448 -16.571  0.00  0.00    -0.227 N 
HETATM   13  C           1     -32.963  -4.124 -16.711  0.00  0.00     0.665 C 
HETATM   14  N           1     -33.287  -3.222 -17.538  0.00  0.00    -0.235 N 
HETATM   15  N           1     -33.879  -4.718 -16.004  0.00  0.00    -0.235 N 
HETATM   16  H           1     -32.548  -2.743 -18.109  0.00  0.00     0.174 HD
HETATM   17  H           1     -34.295  -2.954 -17.653  0.00  0.00     0.174 HD
HETATM   18  H           1     -33.611  -5.462 -15.321  0.00  0.00     0.174 HD
HETATM   19  H           1     -34.883  -4.451 -16.119  0.00  0.00     0.174 HD
HETATM   20  H           1     -31.478  -5.196 -15.886  0.00  0.00     0.177 HD
ENDBRANCH  11  12
ENDBRANCH  10  11
ENDBRANCH   9  10
ENDBRANCH   5   9
ENDBRANCH   3   5
BRANCH   2  21
HETATM   21  C           1     -25.182  -6.735 -17.141  0.00  0.00     0.275 C 
BRANCH  21  22
HETATM   22  N           1     -24.246  -7.832 -16.727  0.00  0.00    -0.066 N 
HETATM   23  H           1     -23.538  -7.989 -17.480  0.00  0.00     0.275 HD
HETATM   24  H           1     -23.759  -7.559 -15.843  0.00  0.00     0.275 HD
HETATM   25  H           1     -24.788  -8.711 -16.570  0.00  0.00     0.275 HD
ENDBRANCH  21  22
BRANCH  21  26
HETATM   26  C           1     -25.362  -6.766 -18.653  0.00  0.00     0.052 C 
BRANCH  26  27
HETATM   27  C           1     -24.033  -7.109 -19.316  0.00  0.00     0.105 C 
BRANCH  27  28
HETATM   28  C           1     -24.283  -7.988 -20.517  0.00  0.00     0.215 C 
HETATM   29  N           1     -23.266  -8.746 -21.031  0.00  0.00    -0.370 N 
HETATM   30  H           1     -23.432  -9.337 -21.837  0.00  0.00     0.159 HD
HETATM   31  H           1     -22.347  -8.718 -20.607  0.00  0.00     0.159 HD
HETATM   32  O           1     -25.378  -8.022 -21.024  0.00  0.00    -0.274 OA
ENDBRANCH  27  28
ENDBRANCH  26  27
ENDBRANCH  21  26
ENDBRANCH   2  21
TORSDOF 11
ENDMDL
MODEL 2
REMARK VINA RESULT:      -6.8      2.003      7.765
REMARK  11 active torsions:
REMARK  status: ('A' for Active; 'I' for Inactive)
REMARK       I    between atoms: N_2  and  C_27 
REMARK       I    between atoms: N_6  and  C_27 
REMARK    1  A    between atoms: N_6  and  C_9 
REMARK    2  A    between atoms: C_9  and  C_23 
REMARK    3  A    between atoms: C_10  and  C_26 
REMARK       I    between atoms: C_10  and  N_11 
REMARK    4  A    between atoms: N_13  and  C_24 
REMARK    5  A    between atoms: C_16  and  C_21 
REMARK       I    between atoms: C_17  and  N_18 
REMARK    6  A    between atoms: C_17  and  C_24 
REMARK    7  A    between atoms: N_18  and  C_21 
REMARK    8  A    between atoms: C_21  and  C_22 
REMARK    9  A    between atoms: C_22  and  C_23 
REMARK   10  A    between atoms: C_24  and  C_25 
REMARK   11  A    between atoms: C_25  and  C_26 
ROOT
HETATM    1  H           1     -26.809  -5.025 -18.090  0.00  0.00     0.163 HD
HETATM    2  C           1     -28.024  -6.064 -16.776  0.00  0.00     0.249 C 
HETATM    3  N           1     -26.924  -5.888 -17.573  0.00  0.00    -0.345 N 
HETATM    4  O           1     -28.162  -7.094 -16.158  0.00  0.00    -0.271 OA
ENDROOT
BRANCH   3   5
HETATM    5  C           1     -25.927  -6.935 -17.674  0.00  0.00     0.185 C 
BRANCH   5   6
HETATM    6  C           1     -25.034  -6.898 -16.459  0.00  0.00     0.196 C 
HETATM    7  O           1     -24.427  -7.930 -16.099  0.00  0.00    -0.646 OA
HETATM    8  O           1     -24.902  -5.838 -15.811  0.00  0.00    -0.646 OA
ENDBRANCH   5   6
BRANCH   5   9
HETATM    9  C           1     -25.089  -6.716 -18.928  0.00  0.00     0.038 C 
BRANCH   9  10
HETATM   10  C           1     -25.956  -6.923 -20.162  0.00  0.00     0.023 C 
BRANCH  10  11
HETATM   11  C           1     -25.293  -7.937 -21.085  0.00  0.00     0.138 C 
BRANCH  11  12
HETATM   12  N           1     -23.937  -8.228 -20.598  0.00  0.00    -0.227 N 
HETATM   13  C           1     -23.025  -8.546 -21.418  0.00  0.00     0.665 C 
HETATM   14  N           1     -23.282  -8.613 -22.656  0.00  0.00    -0.235 N 
HETATM   15  N           1     -21.826  -8.804 -20.988  0.00  0.00    -0.235 N 
HETATM   16  H           1     -24.251  -8.405 -23.003  0.00  0.00     0.174 HD
HETATM   17  H           1     -22.526  -8.877 -23.335  0.00  0.00     0.174 HD
HETATM   18  H           1     -21.613  -8.749 -19.966  0.00  0.00     0.174 HD
HETATM   19  H           1     -21.073  -9.067 -21.664  0.00  0.00     0.174 HD
HETATM   20  H           1     -23.724  -8.173 -19.572  0.00  0.00     0.177 HD
ENDBRANCH  11  12
ENDBRANCH  10  11
ENDBRANCH   9  10
ENDBRANCH   5   9
ENDBRANCH   3   5
BRANCH   2  21
HETATM   21  C           1     -29.062  -4.975 -16.669  0.00  0.00     0.275 C 
BRANCH  21  22
HETATM   22  N           1     -28.450  -3.662 -17.060  0.00  0.00    -0.066 N 
HETATM   23  H           1     -27.764  -3.365 -16.329  0.00  0.00     0.275 HD
HETATM   24  H           1     -27.957  -3.767 -17.976  0.00  0.00     0.275 HD
HETATM   25  H           1     -29.200  -2.940 -17.147  0.00  0.00     0.275 HD
ENDBRANCH  21  22
BRANCH  21  26
HETATM   26  C           1     -30.226  -5.289 -17.601  0.00  0.00     0.052 C 
BRANCH  26  27
HETATM   27  C           1     -31.541  -5.085 -16.858  0.00  0.00     0.105 C 
BRANCH  27  28
HETATM   28  C           1     -32.180  -3.796 -17.312  0.00  0.00     0.215 C 
HETATM   29  N           1     -33.503  -3.561 -17.053  0.00  0.00    -0.370 N 
HETATM   30  H           1     -33.934  -2.697 -17.357  0.00  0.00     0.159 HD
HETATM   31  H           1     -34.053  -4.250 -16.556  0.00  0.00     0.159 HD
HETATM   32  O           1     -31.525  -2.973 -17.906  0.00  0.00    -0.274 OA
ENDBRANCH  27  28
ENDBRANCH  26  27
ENDBRANCH  21  26
ENDBRANCH   2  21
TORSDOF 11
ENDMDL
MODEL 3
REMARK VINA RESULT:      -6.3     12.456     14.787
REMARK  11 active torsions:
REMARK  status: ('A' for Active; 'I' for Inactive)
REMARK       I    between atoms: N_2  and  C_27 
REMARK       I    between atoms: N_6  and  C_27 
REMARK    1  A    between atoms: N_6  and  C_9 
REMARK    2  A    between atoms: C_9  and  C_23 
REMARK    3  A    between atoms: C_10  and  C_26 
REMARK       I    between atoms: C_10  and  N_11 
REMARK    4  A    between atoms: N_13  and  C_24 
REMARK    5  A    between atoms: C_16  and  C_21 
REMARK       I    between atoms: C_17  and  N_18 
REMARK    6  A    between atoms: C_17  and  C_24 
REMARK    7  A    between atoms: N_18  and  C_21 
REMARK    8  A    between atoms: C_21  and  C_22 
REMARK    9  A    between atoms: C_22  and  C_23 
REMARK   10  A    between atoms: C_24  and  C_25 
REMARK   11  A    between atoms: C_25  and  C_26 
ROOT
HETATM    1  H           1     -21.778  -7.075  -6.828  0.00  0.00     0.163 HD
HETATM    2  C           1     -21.169  -5.097  -6.849  0.00  0.00     0.249 C 
HETATM    3  N           1     -21.311  -6.346  -6.305  0.00  0.00    -0.345 N 
HETATM    4  O           1     -20.612  -4.226  -6.224  0.00  0.00    -0.271 OA
ENDROOT
BRANCH   3   5
HETATM    5  C           1     -20.791  -6.623  -4.980  0.00  0.00     0.185 C 
BRANCH   5   6
HETATM    6  C           1     -20.086  -7.956  -4.985  0.00  0.00     0.196 C 
HETATM    7  O           1     -20.188  -8.720  -4.001  0.00  0.00    -0.646 OA
HETATM    8  O           1     -19.399  -8.297  -5.971  0.00  0.00    -0.646 OA
ENDBRANCH   5   6
BRANCH   5   9
HETATM    9  C           1     -21.941  -6.659  -3.982  0.00  0.00     0.038 C 
BRANCH   9  10
HETATM   10  C           1     -21.521  -5.961  -2.695  0.00  0.00     0.023 C 
BRANCH  10  11
HETATM   11  C           1     -22.266  -6.575  -1.518  0.00  0.00     0.138 C 
BRANCH  11  12
HETATM   12  N           1     -21.847  -7.974  -1.349  0.00  0.00    -0.227 N 
HETATM   13  C           1     -22.316  -8.665  -0.396  0.00  0.00     0.665 C 
HETATM   14  N           1     -23.146  -8.150   0.409  0.00  0.00    -0.235 N 
HETATM   15  N           1     -21.946  -9.902  -0.247  0.00  0.00    -0.235 N 
HETATM   16  H           1     -23.445  -7.151   0.289  0.00  0.00     0.174 HD
HETATM   17  H           1     -23.535  -8.723   1.199  0.00  0.00     0.174 HD
HETATM   18  H           1     -21.261 -10.327  -0.912  0.00  0.00     0.174 HD
HETATM   19  H           1     -22.333 -10.472   0.539  0.00  0.00     0.174 HD
HETATM   20  H           1     -21.159  -8.401  -2.017  0.00  0.00     0.177 HD
ENDBRANCH  11  12
ENDBRANCH  10  11
ENDBRANCH   9  10
ENDBRANCH   5   9
ENDBRANCH   3   5
BRANCH   2  21
HETATM   21  C           1     -21.710  -4.809  -8.228  0.00  0.00     0.275 C 
BRANCH  21  22
HETATM   22  N           1     -23.025  -4.098  -8.110  0.00  0.00    -0.066 N 
HETATM   23  H           1     -22.944  -3.143  -8.528  0.00  0.00     0.275 HD
HETATM   24  H           1     -23.760  -4.639  -8.619  0.00  0.00     0.275 HD
HETATM   25  H           1     -23.287  -4.015  -7.102  0.00  0.00     0.275 HD
ENDBRANCH  21  22
BRANCH  21  26
HETATM   26  C           1     -20.724  -3.930  -8.986  0.00  0.00     0.052 C 
BRANCH  26  27
HETATM   27  C           1     -20.500  -4.504 -10.380  0.00  0.00     0.105 C 
BRANCH  27  28
HETATM   28  C           1     -21.505  -3.911 -11.336  0.00  0.00     0.215 C 
HETATM   29  N           1     -22.351  -4.731 -12.034  0.00  0.00    -0.370 N 
HETATM   30  H           1     -23.026  -4.334 -12.675  0.00  0.00     0.159 HD
HETATM   31  H           1     -22.303  -5.734 -11.908  0.00  0.00     0.159 HD
HETATM   32  O           1     -21.563  -2.714 -11.486  0.00  0.00    -0.274 OA
ENDBRANCH  27  28
ENDBRANCH  26  27
ENDBRANCH  21  26
ENDBRANCH   2  21
TORSDOF 11
ENDMDL
MODEL 4
REMARK VINA RESULT:      -6.3     12.127     14.811
REMARK  11 active torsions:
REMARK  status: ('A' for Active; 'I' for Inactive)
REMARK       I    between atoms: N_2  and  C_27 
REMARK       I    between atoms: N_6  and  C_27 
REMARK    1  A    between atoms: N_6  and  C_9 
REMARK    2  A    between atoms: C_9  and  C_23 
REMARK    3  A    between atoms: C_10  and  C_26 
REMARK       I    between atoms: C_10  and  N_11 
REMARK    4  A    between atoms: N_13  and  C_24 
REMARK    5  A    between atoms: C_16  and  C_21 
REMARK       I    between atoms: C_17  and  N_18 
REMARK    6  A    between atoms: C_17  and  C_24 
REMARK    7  A    between atoms: N_18  and  C_21 
REMARK    8  A    between atoms: C_21  and  C_22 
REMARK    9  A    between atoms: C_22  and  C_23 
REMARK   10  A    between atoms: C_24  and  C_25 
REMARK   11  A    between atoms: C_25  and  C_26 
ROOT
HETATM    1  H           1     -20.651  -4.484  -4.873  0.00  0.00     0.163 HD
HETATM    2  C           1     -21.495  -6.319  -4.425  0.00  0.00     0.249 C 
HETATM    3  N           1     -21.101  -5.305  -5.257  0.00  0.00    -0.345 N 
HETATM    4  O           1     -22.033  -7.300  -4.882  0.00  0.00    -0.271 OA
ENDROOT
BRANCH   3   5
HETATM    5  C           1     -21.328  -5.409  -6.685  0.00  0.00     0.185 C 
BRANCH   5   6
HETATM    6  C           1     -20.027  -5.728  -7.378  0.00  0.00     0.196 C 
HETATM    7  O           1     -19.537  -4.916  -8.192  0.00  0.00    -0.646 OA
HETATM    8  O           1     -19.440  -6.806  -7.141  0.00  0.00    -0.646 OA
ENDBRANCH   5   6
BRANCH   5   9
HETATM    9  C           1     -21.872  -4.086  -7.209  0.00  0.00     0.038 C 
BRANCH   9  10
HETATM   10  C           1     -23.179  -4.332  -7.951  0.00  0.00     0.023 C 
BRANCH  10  11
HETATM   11  C           1     -22.883  -4.631  -9.415  0.00  0.00     0.138 C 
BRANCH  11  12
HETATM   12  N           1     -21.806  -3.748  -9.888  0.00  0.00    -0.227 N 
HETATM   13  C           1     -21.465  -3.764 -11.107  0.00  0.00     0.665 C 
HETATM   14  N           1     -22.049  -4.540 -11.918  0.00  0.00    -0.235 N 
HETATM   15  N           1     -20.513  -2.984 -11.526  0.00  0.00    -0.235 N 
HETATM   16  H           1     -22.818  -5.171 -11.580  0.00  0.00     0.174 HD
HETATM   17  H           1     -21.766  -4.553 -12.929  0.00  0.00     0.174 HD
HETATM   18  H           1     -20.030  -2.343 -10.856  0.00  0.00     0.174 HD
HETATM   19  H           1     -20.230  -2.996 -12.532  0.00  0.00     0.174 HD
HETATM   20  H           1     -21.321  -3.105  -9.215  0.00  0.00     0.177 HD
ENDBRANCH  11  12
ENDBRANCH  10  11
ENDBRANCH   9  10
ENDBRANCH   5   9
ENDBRANCH   3   5
BRANCH   2  21
HETATM   21  C           1     -21.259  -6.212  -2.939  0.00  0.00     0.275 C 
BRANCH  21  22
HETATM   22  N           1     -22.539  -5.827  -2.257  0.00  0.00    -0.066 N 
HETATM   23  H           1     -22.945  -6.663  -1.779  0.00  0.00     0.275 HD
HETATM   24  H           1     -22.345  -5.082  -1.549  0.00  0.00     0.275 HD
HETATM   25  H           1     -23.217  -5.467  -2.965  0.00  0.00     0.275 HD
ENDBRANCH  21  22
BRANCH  21  26
HETATM   26  C           1     -20.783  -7.555  -2.401  0.00  0.00     0.052 C 
BRANCH  26  27
HETATM   27  C           1     -21.487  -7.854  -1.084  0.00  0.00     0.105 C 
BRANCH  27  28
HETATM   28  C           1     -22.164  -9.199  -1.170  0.00  0.00     0.215 C 
HETATM   29  N           1     -22.868  -9.680  -0.099  0.00  0.00    -0.370 N 
HETATM   30  H           1     -23.322 -10.583  -0.155  0.00  0.00     0.159 HD
HETATM   31  H           1     -22.935  -9.134   0.750  0.00  0.00     0.159 HD
HETATM   32  O           1     -22.083  -9.853  -2.182  0.00  0.00    -0.274 OA
ENDBRANCH  27  28
ENDBRANCH  26  27
ENDBRANCH  21  26
ENDBRANCH   2  21
TORSDOF 11
ENDMDL
MODEL 5
REMARK VINA RESULT:      -6.2     12.769     15.266
REMARK  11 active torsions:
REMARK  status: ('A' for Active; 'I' for Inactive)
REMARK       I    between atoms: N_2  and  C_27 
REMARK       I    between atoms: N_6  and  C_27 
REMARK    1  A    between atoms: N_6  and  C_9 
REMARK    2  A    between atoms: C_9  and  C_23 
REMARK    3  A    between atoms: C_10  and  C_26 
REMARK       I    between atoms: C_10  and  N_11 
REMARK    4  A    between atoms: N_13  and  C_24 
REMARK    5  A    between atoms: C_16  and  C_21 
REMARK       I    between atoms: C_17  and  N_18 
REMARK    6  A    between atoms: C_17  and  C_24 
REMARK    7  A    between atoms: N_18  and  C_21 
REMARK    8  A    between atoms: C_21  and  C_22 
REMARK    9  A    between atoms: C_22  and  C_23 
REMARK   10  A    between atoms: C_24  and  C_25 
REMARK   11  A    between atoms: C_25  and  C_26 
ROOT
HETATM    1  H           1     -22.277  -6.037  -6.204  0.00  0.00     0.163 HD
HETATM    2  C           1     -20.680  -4.725  -6.098  0.00  0.00     0.249 C 
HETATM    3  N           1     -21.445  -5.784  -5.687  0.00  0.00    -0.345 N 
HETATM    4  O           1     -19.686  -4.422  -5.481  0.00  0.00    -0.271 OA
ENDROOT
BRANCH   3   5
HETATM    5  C           1     -21.062  -6.542  -4.512  0.00  0.00     0.185 C 
BRANCH   5   6
HETATM    6  C           1     -20.636  -7.929  -4.926  0.00  0.00     0.196 C 
HETATM    7  O           1     -19.767  -8.078  -5.812  0.00  0.00    -0.646 OA
HETATM    8  O           1     -21.153  -8.929  -4.384  0.00  0.00    -0.646 OA
ENDBRANCH   5   6
BRANCH   5   9
HETATM    9  C           1     -22.247  -6.636  -3.561  0.00  0.00     0.038 C 
BRANCH   9  10
HETATM   10  C           1     -21.868  -6.036  -2.214  0.00  0.00     0.023 C 
BRANCH  10  11
HETATM   11  C           1     -22.265  -6.997  -1.100  0.00  0.00     0.138 C 
BRANCH  11  12
HETATM   12  N           1     -21.701  -8.326  -1.376  0.00  0.00    -0.227 N 
HETATM   13  C           1     -21.223  -9.019  -0.430  0.00  0.00     0.665 C 
HETATM   14  N           1     -21.231  -8.567   0.753  0.00  0.00    -0.235 N 
HETATM   15  N           1     -20.725 -10.195  -0.673  0.00  0.00    -0.235 N 
HETATM   16  H           1     -21.634  -7.618   0.949  0.00  0.00     0.174 HD
HETATM   17  H           1     -20.835  -9.142   1.537  0.00  0.00     0.174 HD
HETATM   18  H           1     -20.718 -10.568  -1.649  0.00  0.00     0.174 HD
HETATM   19  H           1     -20.330 -10.768   0.108  0.00  0.00     0.174 HD
HETATM   20  H           1     -21.695  -8.701  -2.356  0.00  0.00     0.177 HD
ENDBRANCH  11  12
ENDBRANCH  10  11
ENDBRANCH   9  10
ENDBRANCH   5   9
ENDBRANCH   3   5
BRANCH   2  21
HETATM   21  C           1     -21.079  -3.936  -7.321  0.00  0.00     0.275 C 
BRANCH  21  22
HETATM   22  N           1     -20.118  -4.225  -8.437  0.00  0.00    -0.066 N 
HETATM   23  H           1     -19.702  -5.175  -8.302  0.00  0.00     0.275 HD
HETATM   24  H           1     -20.626  -4.195  -9.350  0.00  0.00     0.275 HD
HETATM   25  H           1     -19.358  -3.509  -8.436  0.00  0.00     0.275 HD
ENDBRANCH  21  22
BRANCH  21  26
HETATM   26  C           1     -22.485  -4.335  -7.748  0.00  0.00     0.052 C 
BRANCH  26  27
HETATM   27  C           1     -22.516  -4.556  -9.255  0.00  0.00     0.105 C 
BRANCH  27  28
HETATM   28  C           1     -23.742  -3.895  -9.835  0.00  0.00     0.215 C 
HETATM   29  N           1     -24.637  -3.270  -9.009  0.00  0.00    -0.370 N 
HETATM   30  H           1     -25.460  -2.826  -9.397  0.00  0.00     0.159 HD
HETATM   31  H           1     -24.476  -3.249  -8.010  0.00  0.00     0.159 HD
HETATM   32  O           1     -23.935  -3.919 -11.027  0.00  0.00    -0.274 OA
ENDBRANCH  27  28
ENDBRANCH  26  27
ENDBRANCH  21  26
ENDBRANCH   2  21
TORSDOF 11
ENDMDL
MODEL 6
REMARK VINA RESULT:      -6.1     13.098     15.637
REMARK  11 active torsions:
REMARK  status: ('A' for Active; 'I' for Inactive)
REMARK       I    between atoms: N_2  and  C_27 
REMARK       I    between atoms: N_6  and  C_27 
REMARK    1  A    between atoms: N_6  and  C_9 
REMARK    2  A    between atoms: C_9  and  C_23 
REMARK    3  A    between atoms: C_10  and  C_26 
REMARK       I    between atoms: C_10  and  N_11 
REMARK    4  A    between atoms: N_13  and  C_24 
REMARK    5  A    between atoms: C_16  and  C_21 
REMARK       I    between atoms: C_17  and  N_18 
REMARK    6  A    between atoms: C_17  and  C_24 
REMARK    7  A    between atoms: N_18  and  C_21 
REMARK    8  A    between atoms: C_21  and  C_22 
REMARK    9  A    between atoms: C_22  and  C_23 
REMARK   10  A    between atoms: C_24  and  C_25 
REMARK   11  A    between atoms: C_25  and  C_26 
ROOT
HETATM    1  H           1     -19.731  -6.860  -4.859  0.00  0.00     0.163 HD
HETATM    2  C           1     -21.313  -5.824  -5.698  0.00  0.00     0.249 C 
HETATM    3  N           1     -20.735  -6.738  -4.858  0.00  0.00    -0.345 N 
HETATM    4  O           1     -22.513  -5.677  -5.697  0.00  0.00    -0.271 OA
ENDROOT
BRANCH   3   5
HETATM    5  C           1     -21.562  -7.529  -3.968  0.00  0.00     0.185 C 
BRANCH   5   6
HETATM    6  C           1     -21.598  -6.879  -2.607  0.00  0.00     0.196 C 
HETATM    7  O           1     -22.415  -5.963  -2.373  0.00  0.00    -0.646 OA
HETATM    8  O           1     -20.811  -7.257  -1.712  0.00  0.00    -0.646 OA
ENDBRANCH   5   6
BRANCH   5   9
HETATM    9  C           1     -20.980  -8.931  -3.847  0.00  0.00     0.038 C 
BRANCH   9  10
HETATM   10  C           1     -22.108  -9.953  -3.850  0.00  0.00     0.023 C 
BRANCH  10  11
HETATM   11  C           1     -21.910 -10.932  -2.701  0.00  0.00     0.138 C 
BRANCH  11  12
HETATM   12  N           1     -21.424 -10.208  -1.518  0.00  0.00    -0.227 N 
HETATM   13  C           1     -22.195 -10.015  -0.532  0.00  0.00     0.665 C 
HETATM   14  N           1     -23.385 -10.445  -0.566  0.00  0.00    -0.235 N 
HETATM   15  N           1     -21.765  -9.374   0.514  0.00  0.00    -0.235 N 
HETATM   16  H           1     -23.732 -10.963  -1.411  0.00  0.00     0.174 HD
HETATM   17  H           1     -24.024 -10.285   0.251  0.00  0.00     0.174 HD
HETATM   18  H           1     -20.783  -9.018   0.542  0.00  0.00     0.174 HD
HETATM   19  H           1     -22.401  -9.214   1.328  0.00  0.00     0.174 HD
HETATM   20  H           1     -20.437  -9.850  -1.490  0.00  0.00     0.177 HD
ENDBRANCH  11  12
ENDBRANCH  10  11
ENDBRANCH   9  10
ENDBRANCH   5   9
ENDBRANCH   3   5
BRANCH   2  21
HETATM   21  C           1     -20.453  -5.001  -6.625  0.00  0.00     0.275 C 
BRANCH  21  22
HETATM   22  N           1     -20.004  -5.852  -7.776  0.00  0.00    -0.066 N 
HETATM   23  H           1     -19.541  -5.250  -8.495  0.00  0.00     0.275 HD
HETATM   24  H           1     -19.325  -6.569  -7.434  0.00  0.00     0.275 HD
HETATM   25  H           1     -20.831  -6.328  -8.201  0.00  0.00     0.275 HD
ENDBRANCH  21  22
BRANCH  21  26
HETATM   26  C           1     -21.258  -3.820  -7.151  0.00  0.00     0.052 C 
BRANCH  26  27
HETATM   27  C           1     -21.487  -3.987  -8.649  0.00  0.00     0.105 C 
BRANCH  27  28
HETATM   28  C           1     -22.956  -3.834  -8.953  0.00  0.00     0.215 C 
HETATM   29  N           1     -23.886  -4.094  -7.984  0.00  0.00    -0.370 N 
HETATM   30  H           1     -24.873  -3.992  -8.187  0.00  0.00     0.159 HD
HETATM   31  H           1     -23.589  -4.389  -7.062  0.00  0.00     0.159 HD
HETATM   32  O           1     -23.312  -3.482 -10.053  0.00  0.00    -0.274 OA
ENDBRANCH  27  28
ENDBRANCH  26  27
ENDBRANCH  21  26
ENDBRANCH   2  21
TORSDOF 11
ENDMDL
MODEL 7
REMARK VINA RESULT:      -5.9     12.984     15.924
REMARK  11 active torsions:
REMARK  status: ('A' for Active; 'I' for Inactive)
REMARK       I    between atoms: N_2  and  C_27 
REMARK       I    between atoms: N_6  and  C_27 
REMARK    1  A    between atoms: N_6  and  C_9 
REMARK    2  A    between atoms: C_9  and  C_23 
REMARK    3  A    between atoms: C_10  and  C_26 
REMARK       I    between atoms: C_10  and  N_11 
REMARK    4  A    between atoms: N_13  and  C_24 
REMARK    5  A    between atoms: C_16  and  C_21 
REMARK       I    between atoms: C_17  and  N_18 
REMARK    6  A    between atoms: C_17  and  C_24 
REMARK    7  A    between atoms: N_18  and  C_21 
REMARK    8  A    between atoms: C_21  and  C_22 
REMARK    9  A    between atoms: C_22  and  C_23 
REMARK   10  A    between atoms: C_24  and  C_25 
REMARK   11  A    between atoms: C_25  and  C_26 
ROOT
HETATM    1  H           1     -19.783  -6.555  -4.828  0.00  0.00     0.163 HD
HETATM    2  C           1     -21.375  -5.597  -5.740  0.00  0.00     0.249 C 
HETATM    3  N           1     -20.792  -6.494  -4.885  0.00  0.00    -0.345 N 
HETATM    4  O           1     -22.580  -5.524  -5.808  0.00  0.00    -0.271 OA
ENDROOT
BRANCH   3   5
HETATM    5  C           1     -21.619  -7.355  -4.062  0.00  0.00     0.185 C 
BRANCH   5   6
HETATM    6  C           1     -21.625  -6.840  -2.644  0.00  0.00     0.196 C 
HETATM    7  O           1     -20.882  -7.363  -1.786  0.00  0.00    -0.646 OA
HETATM    8  O           1     -22.374  -5.891  -2.326  0.00  0.00    -0.646 OA
ENDBRANCH   5   6
BRANCH   5   9
HETATM    9  C           1     -21.058  -8.771  -4.087  0.00  0.00     0.038 C 
BRANCH   9  10
HETATM   10  C           1     -19.691  -8.765  -4.757  0.00  0.00     0.023 C 
BRANCH  10  11
HETATM   11  C           1     -18.636  -9.233  -3.764  0.00  0.00     0.138 C 
BRANCH  11  12
HETATM   12  N           1     -19.296  -9.761  -2.561  0.00  0.00    -0.227 N 
HETATM   13  C           1     -18.820 -10.776  -1.971  0.00  0.00     0.665 C 
HETATM   14  N           1     -17.776 -11.336  -2.418  0.00  0.00    -0.235 N 
HETATM   15  N           1     -19.403 -11.243  -0.908  0.00  0.00    -0.235 N 
HETATM   16  H           1     -17.305 -10.959  -3.278  0.00  0.00     0.174 HD
HETATM   17  H           1     -17.382 -12.177  -1.930  0.00  0.00     0.174 HD
HETATM   18  H           1     -20.265 -10.781  -0.538  0.00  0.00     0.174 HD
HETATM   19  H           1     -19.011 -12.080  -0.421  0.00  0.00     0.174 HD
HETATM   20  H           1     -20.161  -9.297  -2.190  0.00  0.00     0.177 HD
ENDBRANCH  11  12
ENDBRANCH  10  11
ENDBRANCH   9  10
ENDBRANCH   5   9
ENDBRANCH   3   5
BRANCH   2  21
HETATM   21  C           1     -20.515  -4.701  -6.596  0.00  0.00     0.275 C 
BRANCH  21  22
HETATM   22  N           1     -19.866  -5.516  -7.676  0.00  0.00    -0.066 N 
HETATM   23  H           1     -18.827  -5.476  -7.566  0.00  0.00     0.275 HD
HETATM   24  H           1     -20.185  -6.509  -7.602  0.00  0.00     0.275 HD
HETATM   25  H           1     -20.132  -5.132  -8.610  0.00  0.00     0.275 HD
ENDBRANCH  21  22
BRANCH  21  26
HETATM   26  C           1     -21.380  -3.619  -7.229  0.00  0.00     0.052 C 
BRANCH  26  27
HETATM   27  C           1     -21.570  -3.921  -8.710  0.00  0.00     0.105 C 
BRANCH  27  28
HETATM   28  C           1     -23.028  -3.776  -9.070  0.00  0.00     0.215 C 
HETATM   29  N           1     -23.992  -4.037  -8.134  0.00  0.00    -0.370 N 
HETATM   30  H           1     -24.971  -3.940  -8.374  0.00  0.00     0.159 HD
HETATM   31  H           1     -23.728  -4.325  -7.201  0.00  0.00     0.159 HD
HETATM   32  O           1     -23.344  -3.431 -10.184  0.00  0.00    -0.274 OA
ENDBRANCH  27  28
ENDBRANCH  26  27
ENDBRANCH  21  26
ENDBRANCH   2  21
TORSDOF 11
ENDMDL
MODEL 8
REMARK VINA RESULT:      -5.9     12.773     15.946
REMARK  11 active torsions:
REMARK  status: ('A' for Active; 'I' for Inactive)
REMARK       I    between atoms: N_2  and  C_27 
REMARK       I    between atoms: N_6  and  C_27 
REMARK    1  A    between atoms: N_6  and  C_9 
REMARK    2  A    between atoms: C_9  and  C_23 
REMARK    3  A    between atoms: C_10  and  C_26 
REMARK       I    between atoms: C_10  and  N_11 
REMARK    4  A    between atoms: N_13  and  C_24 
REMARK    5  A    between atoms: C_16  and  C_21 
REMARK       I    between atoms: C_17  and  N_18 
REMARK    6  A    between atoms: C_17  and  C_24 
REMARK    7  A    between atoms: N_18  and  C_21 
REMARK    8  A    between atoms: C_21  and  C_22 
REMARK    9  A    between atoms: C_22  and  C_23 
REMARK   10  A    between atoms: C_24  and  C_25 
REMARK   11  A    between atoms: C_25  and  C_26 
ROOT
HETATM    1  H           1     -19.858  -6.758  -4.721  0.00  0.00     0.163 HD
HETATM    2  C           1     -21.402  -5.747  -5.656  0.00  0.00     0.249 C 
HETATM    3  N           1     -20.861  -6.634  -4.765  0.00  0.00    -0.345 N 
HETATM    4  O           1     -22.600  -5.598  -5.710  0.00  0.00    -0.271 OA
ENDROOT
BRANCH   3   5
HETATM    5  C           1     -21.726  -7.395  -3.884  0.00  0.00     0.185 C 
BRANCH   5   6
HETATM    6  C           1     -21.627  -6.845  -2.483  0.00  0.00     0.196 C 
HETATM    7  O           1     -20.908  -7.418  -1.636  0.00  0.00    -0.646 OA
HETATM    8  O           1     -22.265  -5.817  -2.169  0.00  0.00    -0.646 OA
ENDBRANCH   5   6
BRANCH   5   9
HETATM    9  C           1     -21.295  -8.856  -3.889  0.00  0.00     0.038 C 
BRANCH   9  10
HETATM   10  C           1     -19.987  -8.999  -4.655  0.00  0.00     0.023 C 
BRANCH  10  11
HETATM   11  C           1     -19.032  -9.887  -3.869  0.00  0.00     0.138 C 
BRANCH  11  12
HETATM   12  N           1     -17.793 -10.076  -4.637  0.00  0.00    -0.227 N 
HETATM   13  C           1     -16.672  -9.841  -4.098  0.00  0.00     0.665 C 
HETATM   14  N           1     -16.617  -9.445  -2.897  0.00  0.00    -0.235 N 
HETATM   15  N           1     -15.576 -10.009  -4.777  0.00  0.00    -0.235 N 
HETATM   16  H           1     -17.502  -9.310  -2.348  0.00  0.00     0.174 HD
HETATM   17  H           1     -15.688  -9.251  -2.450  0.00  0.00     0.174 HD
HETATM   18  H           1     -15.621 -10.336  -5.769  0.00  0.00     0.174 HD
HETATM   19  H           1     -14.650  -9.816  -4.333  0.00  0.00     0.174 HD
HETATM   20  H           1     -17.838 -10.405  -5.633  0.00  0.00     0.177 HD
ENDBRANCH  11  12
ENDBRANCH  10  11
ENDBRANCH   9  10
ENDBRANCH   5   9
ENDBRANCH   3   5
BRANCH   2  21
HETATM   21  C           1     -20.502  -4.955  -6.572  0.00  0.00     0.275 C 
BRANCH  21  22
HETATM   22  N           1     -20.042  -5.831  -7.700  0.00  0.00    -0.066 N 
HETATM   23  H           1     -19.001  -5.922  -7.669  0.00  0.00     0.275 HD
HETATM   24  H           1     -20.477  -6.776  -7.605  0.00  0.00     0.275 HD
HETATM   25  H           1     -20.327  -5.405  -8.610  0.00  0.00     0.275 HD
ENDBRANCH  21  22
BRANCH  21  26
HETATM   26  C           1     -21.269  -3.765  -7.135  0.00  0.00     0.052 C 
BRANCH  26  27
HETATM   27  C           1     -21.445  -3.939  -8.638  0.00  0.00     0.105 C 
BRANCH  27  28
HETATM   28  C           1     -22.908  -3.823  -8.989  0.00  0.00     0.215 C 
HETATM   29  N           1     -23.861  -4.069  -8.037  0.00  0.00    -0.370 N 
HETATM   30  H           1     -24.843  -3.992  -8.272  0.00  0.00     0.159 HD
HETATM   31  H           1     -23.585  -4.327  -7.098  0.00  0.00     0.159 HD
HETATM   32  O           1     -23.238  -3.516 -10.109  0.00  0.00    -0.274 OA
ENDBRANCH  27  28
ENDBRANCH  26  27
ENDBRANCH  21  26
ENDBRANCH   2  21
TORSDOF 11
ENDMDL
MODEL 9
REMARK VINA RESULT:      -5.9      2.148      7.840
REMARK  11 active torsions:
REMARK  status: ('A' for Active; 'I' for Inactive)
REMARK       I    between atoms: N_2  and  C_27 
REMARK       I    between atoms: N_6  and  C_27 
REMARK    1  A    between atoms: N_6  and  C_9 
REMARK    2  A    between atoms: C_9  and  C_23 
REMARK    3  A    between atoms: C_10  and  C_26 
REMARK       I    between atoms: C_10  and  N_11 
REMARK    4  A    between atoms: N_13  and  C_24 
REMARK    5  A    between atoms: C_16  and  C_21 
REMARK       I    between atoms: C_17  and  N_18 
REMARK    6  A    between atoms: C_17  and  C_24 
REMARK    7  A    between atoms: N_18  and  C_21 
REMARK    8  A    between atoms: C_21  and  C_22 
REMARK    9  A    between atoms: C_22  and  C_23 
REMARK   10  A    between atoms: C_24  and  C_25 
REMARK   11  A    between atoms: C_25  and  C_26 
ROOT
HETATM    1  H           1     -29.743  -4.916 -16.885  0.00  0.00     0.163 HD
HETATM    2  C           1     -30.812  -6.548 -17.578  0.00  0.00     0.249 C 
HETATM    3  N           1     -29.684  -5.885 -17.173  0.00  0.00    -0.345 N 
HETATM    4  O           1     -30.742  -7.704 -17.922  0.00  0.00    -0.271 OA
ENDROOT
BRANCH   3   5
HETATM    5  C           1     -28.407  -6.571 -17.155  0.00  0.00     0.185 C 
BRANCH   5   6
HETATM    6  C           1     -27.816  -6.497 -15.769  0.00  0.00     0.196 C 
HETATM    7  O           1     -27.710  -7.534 -15.079  0.00  0.00    -0.646 OA
HETATM    8  O           1     -27.432  -5.399 -15.311  0.00  0.00    -0.646 OA
ENDBRANCH   5   6
BRANCH   5   9
HETATM    9  C           1     -27.462  -5.907 -18.148  0.00  0.00     0.038 C 
BRANCH   9  10
HETATM   10  C           1     -27.585  -6.591 -19.503  0.00  0.00     0.023 C 
BRANCH  10  11
HETATM   11  C           1     -26.197  -6.814 -20.087  0.00  0.00     0.138 C 
BRANCH  11  12
HETATM   12  N           1     -25.198  -6.768 -19.010  0.00  0.00    -0.227 N 
HETATM   13  C           1     -24.076  -7.335 -19.162  0.00  0.00     0.665 C 
HETATM   14  N           1     -23.815  -7.943 -20.241  0.00  0.00    -0.235 N 
HETATM   15  N           1     -23.193  -7.295 -18.209  0.00  0.00    -0.235 N 
HETATM   16  H           1     -24.528  -7.976 -21.011  0.00  0.00     0.174 HD
HETATM   17  H           1     -22.885  -8.413 -20.367  0.00  0.00     0.174 HD
HETATM   18  H           1     -23.408  -6.793 -17.317  0.00  0.00     0.174 HD
HETATM   19  H           1     -22.267  -7.763 -18.334  0.00  0.00     0.174 HD
HETATM   20  H           1     -25.414  -6.264 -18.115  0.00  0.00     0.177 HD
ENDBRANCH  11  12
ENDBRANCH  10  11
ENDBRANCH   9  10
ENDBRANCH   5   9
ENDBRANCH   3   5
BRANCH   2  21
HETATM   21  C           1     -32.141  -5.834 -17.596  0.00  0.00     0.275 C 
BRANCH  21  22
HETATM   22  N           1     -33.206  -6.750 -17.069  0.00  0.00    -0.066 N 
HETATM   23  H           1     -33.861  -6.209 -16.460  0.00  0.00     0.275 HD
HETATM   24  H           1     -33.738  -7.162 -17.870  0.00  0.00     0.275 HD
HETATM   25  H           1     -32.764  -7.515 -16.512  0.00  0.00     0.275 HD
ENDBRANCH  21  22
BRANCH  21  26
HETATM   26  C           1     -32.063  -4.591 -16.720  0.00  0.00     0.052 C 
BRANCH  26  27
HETATM   27  C           1     -33.170  -3.620 -17.114  0.00  0.00     0.105 C 
BRANCH  27  28
HETATM   28  C           1     -34.119  -3.443 -15.955  0.00  0.00     0.215 C 
HETATM   29  N           1     -33.944  -4.173 -14.811  0.00  0.00    -0.370 N 
HETATM   30  H           1     -34.581  -4.054 -14.032  0.00  0.00     0.159 HD
HETATM   31  H           1     -33.178  -4.830 -14.740  0.00  0.00     0.159 HD
HETATM   32  O           1     -35.034  -2.658 -16.038  0.00  0.00    -0.274 OA
ENDBRANCH  27  28
ENDBRANCH  26  27
ENDBRANCH  21  26
ENDBRANCH   2  21
TORSDOF 11
ENDMDL
