MODEL 1
REMARK VINA RESULT:      -6.0      0.000      0.000
REMARK  8 active torsions:
REMARK  status: ('A' for Active; 'I' for Inactive)
REMARK    1  A    between atoms: C_1  and  C_8 
REMARK    2  A    between atoms: C_1  and  C_2 
REMARK    3  A    between atoms: C_1  and  N_11 
REMARK    4  A    between atoms: C_2  and  C_18 
REMARK    5  A    between atoms: C_3  and  C_4 
REMARK    6  A    between atoms: C_4  and  C_5 
REMARK    7  A    between atoms: C_5  and  C_6 
REMARK    8  A    between atoms: C_5  and  N_13 
REMARK       I    between atoms: C_8  and  N_13 
ROOT
HETATM    1  C           1     -20.979  -5.362  -6.281  0.00  0.00     0.249 C 
HETATM    2  O           1     -19.817  -5.057  -6.154  0.00  0.00    -0.271 OA
HETATM    3  N           1     -21.482  -6.436  -5.597  0.00  0.00    -0.344 N 
HETATM    4  H           1     -22.455  -6.693  -5.703  0.00  0.00     0.163 HD
ENDROOT
BRANCH   1   5
HETATM    5  C           1     -21.875  -4.562  -7.193  0.00  0.00     0.278 C 
BRANCH   5   6
HETATM    6  C           1     -21.641  -4.988  -8.637  0.00  0.00     0.021 C 
HETATM    7  C           1     -22.870  -4.647  -9.471  0.00  0.00     0.012 C 
BRANCH   6   8
HETATM    8  C           1     -20.431  -4.250  -9.193  0.00  0.00     0.002 C 
HETATM    9  C           1     -20.575  -4.104 -10.703  0.00  0.00     0.005 C 
ENDBRANCH   6   8
ENDBRANCH   5   6
BRANCH   5  10
HETATM   10  N           1     -21.562  -3.102  -7.046  0.00  0.00    -0.066 N 
HETATM   11  H           1     -22.053  -2.564  -7.795  0.00  0.00     0.275 HD
HETATM   12  H           1     -21.885  -2.770  -6.109  0.00  0.00     0.275 HD
HETATM   13  H           1     -20.531  -2.958  -7.131  0.00  0.00     0.275 HD
ENDBRANCH   5  10
ENDBRANCH   1   5
BRANCH   3  14
HETATM   14  C           1     -20.621  -7.206  -4.719  0.00  0.00     0.189 C 
BRANCH  14  15
HETATM   15  C           1     -21.364  -7.519  -3.427  0.00  0.00     0.014 C 
HETATM   16  C           1     -20.436  -8.264  -2.477  0.00  0.00     0.012 C 
BRANCH  15  17
HETATM   17  C           1     -21.821  -6.220  -2.777  0.00  0.00     0.002 C 
HETATM   18  C           1     -22.285  -6.499  -1.354  0.00  0.00     0.005 C 
ENDBRANCH  15  17
ENDBRANCH  14  15
BRANCH  14  19
HETATM   19  C           1     -20.232  -8.494  -5.401  0.00  0.00     0.197 C 
HETATM   20  O           1     -19.032  -8.726  -5.661  0.00  0.00    -0.646 OA
HETATM   21  O           1     -21.111  -9.330  -5.706  0.00  0.00    -0.646 OA
ENDBRANCH  14  19
ENDBRANCH   3  14
TORSDOF 8
ENDMDL
MODEL 2
REMARK VINA RESULT:      -5.8     15.142     17.333
REMARK  8 active torsions:
REMARK  status: ('A' for Active; 'I' for Inactive)
REMARK    1  A    between atoms: C_1  and  C_8 
REMARK    2  A    between atoms: C_1  and  C_2 
REMARK    3  A    between atoms: C_1  and  N_11 
REMARK    4  A    between atoms: C_2  and  C_18 
REMARK    5  A    between atoms: C_3  and  C_4 
REMARK    6  A    between atoms: C_4  and  C_5 
REMARK    7  A    between atoms: C_5  and  C_6 
REMARK    8  A    between atoms: C_5  and  N_13 
REMARK       I    between atoms: C_8  and  N_13 
ROOT
HETATM    1  C           1     -36.765  -0.394 -12.978  0.00  0.00     0.249 C 
HETATM    2  O           1     -37.937  -0.648 -12.834  0.00  0.00    -0.271 OA
HETATM    3  N           1     -35.866  -0.737 -12.005  0.00  0.00    -0.344 N 
HETATM    4  H           1     -34.884  -0.524 -12.125  0.00  0.00     0.163 HD
ENDROOT
BRANCH   1   5
HETATM    5  C           1     -36.293   0.302 -14.231  0.00  0.00     0.278 C 
BRANCH   5   6
HETATM    6  C           1     -36.688  -0.521 -15.450  0.00  0.00     0.021 C 
HETATM    7  C           1     -37.937   0.078 -16.083  0.00  0.00     0.012 C 
BRANCH   6   8
HETATM    8  C           1     -35.550  -0.507 -16.462  0.00  0.00     0.002 C 
HETATM    9  C           1     -35.143  -1.939 -16.789  0.00  0.00     0.005 C 
ENDBRANCH   6   8
ENDBRANCH   5   6
BRANCH   5  10
HETATM   10  N           1     -34.800   0.447 -14.188  0.00  0.00    -0.066 N 
HETATM   11  H           1     -34.542   1.443 -14.370  0.00  0.00     0.275 HD
HETATM   12  H           1     -34.449   0.163 -13.246  0.00  0.00     0.275 HD
HETATM   13  H           1     -34.371  -0.163 -14.920  0.00  0.00     0.275 HD
ENDBRANCH   5  10
ENDBRANCH   1   5
BRANCH   3  14
HETATM   14  C           1     -36.320  -1.406 -10.801  0.00  0.00     0.189 C 
BRANCH  14  15
HETATM   15  C           1     -35.257  -2.393 -10.338  0.00  0.00     0.014 C 
HETATM   16  C           1     -35.611  -3.788 -10.836  0.00  0.00     0.012 C 
BRANCH  15  17
HETATM   17  C           1     -33.903  -1.981 -10.901  0.00  0.00     0.002 C 
HETATM   18  C           1     -33.124  -3.223 -11.313  0.00  0.00     0.005 C 
ENDBRANCH  15  17
ENDBRANCH  14  15
BRANCH  14  19
HETATM   19  C           1     -36.561  -0.382  -9.719  0.00  0.00     0.197 C 
HETATM   20  O           1     -37.100  -0.724  -8.644  0.00  0.00    -0.646 OA
HETATM   21  O           1     -36.221   0.808  -9.897  0.00  0.00    -0.646 OA
ENDBRANCH  14  19
ENDBRANCH   3  14
TORSDOF 8
ENDMDL
MODEL 3
REMARK VINA RESULT:      -5.7      2.174      2.934
REMARK  8 active torsions:
REMARK  status: ('A' for Active; 'I' for Inactive)
REMARK    1  A    between atoms: C_1  and  C_8 
REMARK    2  A    between atoms: C_1  and  C_2 
REMARK    3  A    between atoms: C_1  and  N_11 
REMARK    4  A    between atoms: C_2  and  C_18 
REMARK    5  A    between atoms: C_3  and  C_4 
REMARK    6  A    between atoms: C_4  and  C_5 
REMARK    7  A    between atoms: C_5  and  C_6 
REMARK    8  A    between atoms: C_5  and  N_13 
REMARK       I    between atoms: C_8  and  N_13 
ROOT
HETATM    1  C           1     -21.642  -5.648  -5.613  0.00  0.00     0.249 C 
HETATM    2  O           1     -22.846  -5.744  -5.619  0.00  0.00    -0.271 OA
HETATM    3  N           1     -20.896  -6.450  -4.791  0.00  0.00    -0.344 N 
HETATM    4  H           1     -19.887  -6.370  -4.785  0.00  0.00     0.163 HD
ENDROOT
BRANCH   1   5
HETATM    5  C           1     -20.960  -4.645  -6.510  0.00  0.00     0.278 C 
BRANCH   5   6
HETATM    6  C           1     -21.335  -4.921  -7.959  0.00  0.00     0.021 C 
HETATM    7  C           1     -22.304  -3.849  -8.445  0.00  0.00     0.012 C 
BRANCH   6   8
HETATM    8  C           1     -20.080  -4.897  -8.822  0.00  0.00     0.002 C 
HETATM    9  C           1     -20.435  -4.412 -10.222  0.00  0.00     0.005 C 
ENDBRANCH   6   8
ENDBRANCH   5   6
BRANCH   5  10
HETATM   10  N           1     -19.473  -4.761  -6.348  0.00  0.00    -0.066 N 
HETATM   11  H           1     -19.147  -5.664  -6.760  0.00  0.00     0.275 HD
HETATM   12  H           1     -19.006  -3.966  -6.840  0.00  0.00     0.275 HD
HETATM   13  H           1     -19.231  -4.734  -5.332  0.00  0.00     0.275 HD
ENDBRANCH   5  10
ENDBRANCH   1   5
BRANCH   3  14
HETATM   14  C           1     -21.551  -7.415  -3.929  0.00  0.00     0.189 C 
BRANCH  14  15
HETATM   15  C           1     -20.757  -8.714  -3.927  0.00  0.00     0.014 C 
HETATM   16  C           1     -21.629  -9.841  -4.465  0.00  0.00     0.012 C 
BRANCH  15  17
HETATM   17  C           1     -19.527  -8.558  -4.811  0.00  0.00     0.002 C 
HETATM   18  C           1     -18.361  -9.324  -4.200  0.00  0.00     0.005 C 
ENDBRANCH  15  17
ENDBRANCH  14  15
BRANCH  14  19
HETATM   19  C           1     -21.622  -6.866  -2.525  0.00  0.00     0.197 C 
HETATM   20  O           1     -22.395  -5.920  -2.263  0.00  0.00    -0.646 OA
HETATM   21  O           1     -20.908  -7.359  -1.625  0.00  0.00    -0.646 OA
ENDBRANCH  14  19
ENDBRANCH   3  14
TORSDOF 8
ENDMDL
MODEL 4
REMARK VINA RESULT:      -5.6      3.732      6.842
REMARK  8 active torsions:
REMARK  status: ('A' for Active; 'I' for Inactive)
REMARK    1  A    between atoms: C_1  and  C_8 
REMARK    2  A    between atoms: C_1  and  C_2 
REMARK    3  A    between atoms: C_1  and  N_11 
REMARK    4  A    between atoms: C_2  and  C_18 
REMARK    5  A    between atoms: C_3  and  C_4 
REMARK    6  A    between atoms: C_4  and  C_5 
REMARK    7  A    between atoms: C_5  and  C_6 
REMARK    8  A    between atoms: C_5  and  N_13 
REMARK       I    between atoms: C_8  and  N_13 
ROOT
HETATM    1  C           1     -21.838 -10.389  -2.954  0.00  0.00     0.249 C 
HETATM    2  O           1     -22.492 -10.668  -3.931  0.00  0.00    -0.271 OA
HETATM    3  N           1     -20.882  -9.411  -3.028  0.00  0.00    -0.344 N 
HETATM    4  H           1     -20.334  -9.176  -2.211  0.00  0.00     0.163 HD
ENDROOT
BRANCH   1   5
HETATM    5  C           1     -22.072 -11.118  -1.655  0.00  0.00     0.278 C 
BRANCH   5   6
HETATM    6  C           1     -23.059 -10.332  -0.802  0.00  0.00     0.021 C 
HETATM    7  C           1     -23.962 -11.301  -0.048  0.00  0.00     0.012 C 
BRANCH   6   8
HETATM    8  C           1     -22.295  -9.471   0.196  0.00  0.00     0.002 C 
HETATM    9  C           1     -23.113  -8.229   0.526  0.00  0.00     0.005 C 
ENDBRANCH   6   8
ENDBRANCH   5   6
BRANCH   5  10
HETATM   10  N           1     -20.773 -11.254  -0.917  0.00  0.00    -0.066 N 
HETATM   11  H           1     -20.184 -11.983  -1.380  0.00  0.00     0.275 HD
HETATM   12  H           1     -20.268 -10.339  -0.929  0.00  0.00     0.275 HD
HETATM   13  H           1     -20.962 -11.536   0.071  0.00  0.00     0.275 HD
ENDBRANCH   5  10
ENDBRANCH   1   5
BRANCH   3  14
HETATM   14  C           1     -20.657  -8.709  -4.277  0.00  0.00     0.189 C 
BRANCH  14  15
HETATM   15  C           1     -20.892  -7.219  -4.071  0.00  0.00     0.014 C 
HETATM   16  C           1     -22.196  -6.814  -4.746  0.00  0.00     0.012 C 
BRANCH  15  17
HETATM   17  C           1     -20.977  -6.920  -2.581  0.00  0.00     0.002 C 
HETATM   18  C           1     -22.222  -6.090  -2.298  0.00  0.00     0.005 C 
ENDBRANCH  15  17
ENDBRANCH  14  15
BRANCH  14  19
HETATM   19  C           1     -19.236  -8.937  -4.731  0.00  0.00     0.197 C 
HETATM   20  O           1     -18.358  -9.253  -3.900  0.00  0.00    -0.646 OA
HETATM   21  O           1     -18.937  -8.810  -5.938  0.00  0.00    -0.646 OA
ENDBRANCH  14  19
ENDBRANCH   3  14
TORSDOF 8
ENDMDL
MODEL 5
REMARK VINA RESULT:      -5.4      5.118      6.677
REMARK  8 active torsions:
REMARK  status: ('A' for Active; 'I' for Inactive)
REMARK    1  A    between atoms: C_1  and  C_8 
REMARK    2  A    between atoms: C_1  and  C_2 
REMARK    3  A    between atoms: C_1  and  N_11 
REMARK    4  A    between atoms: C_2  and  C_18 
REMARK    5  A    between atoms: C_3  and  C_4 
REMARK    6  A    between atoms: C_4  and  C_5 
REMARK    7  A    between atoms: C_5  and  C_6 
REMARK    8  A    between atoms: C_5  and  N_13 
REMARK       I    between atoms: C_8  and  N_13 
ROOT
HETATM    1  C           1     -19.900 -10.750  -1.437  0.00  0.00     0.249 C 
HETATM    2  O           1     -19.659 -11.204  -0.344  0.00  0.00    -0.271 OA
HETATM    3  N           1     -21.069 -10.072  -1.653  0.00  0.00    -0.344 N 
HETATM    4  H           1     -21.272  -9.691  -2.568  0.00  0.00     0.163 HD
ENDROOT
BRANCH   1   5
HETATM    5  C           1     -18.913 -10.930  -2.564  0.00  0.00     0.278 C 
BRANCH   5   6
HETATM    6  C           1     -18.453  -9.566  -3.059  0.00  0.00     0.021 C 
HETATM    7  C           1     -16.944  -9.446  -2.886  0.00  0.00     0.012 C 
BRANCH   6   8
HETATM    8  C           1     -18.807  -9.416  -4.533  0.00  0.00     0.002 C 
HETATM    9  C           1     -19.820  -8.291  -4.701  0.00  0.00     0.005 C 
ENDBRANCH   6   8
ENDBRANCH   5   6
BRANCH   5  10
HETATM   10  N           1     -19.570 -11.675  -3.688  0.00  0.00    -0.066 N 
HETATM   11  H           1     -19.685 -11.038  -4.508  0.00  0.00     0.275 HD
HETATM   12  H           1     -18.975 -12.490  -3.960  0.00  0.00     0.275 HD
HETATM   13  H           1     -20.508 -12.016  -3.378  0.00  0.00     0.275 HD
ENDBRANCH   5  10
ENDBRANCH   1   5
BRANCH   3  14
HETATM   14  C           1     -22.018  -9.898  -0.570  0.00  0.00     0.189 C 
BRANCH  14  15
HETATM   15  C           1     -22.325  -8.416  -0.398  0.00  0.00     0.014 C 
HETATM   16  C           1     -21.990  -7.991   1.025  0.00  0.00     0.012 C 
BRANCH  15  17
HETATM   17  C           1     -21.488  -7.608  -1.380  0.00  0.00     0.002 C 
HETATM   18  C           1     -22.223  -6.323  -1.739  0.00  0.00     0.005 C 
ENDBRANCH  15  17
ENDBRANCH  14  15
BRANCH  14  19
HETATM   19  C           1     -23.290 -10.642  -0.893  0.00  0.00     0.197 C 
HETATM   20  O           1     -24.195 -10.732  -0.036  0.00  0.00    -0.646 OA
HETATM   21  O           1     -23.439 -11.166  -2.018  0.00  0.00    -0.646 OA
ENDBRANCH  14  19
ENDBRANCH   3  14
TORSDOF 8
ENDMDL
MODEL 6
REMARK VINA RESULT:      -5.4      3.293      4.816
REMARK  8 active torsions:
REMARK  status: ('A' for Active; 'I' for Inactive)
REMARK    1  A    between atoms: C_1  and  C_8 
REMARK    2  A    between atoms: C_1  and  C_2 
REMARK    3  A    between atoms: C_1  and  N_11 
REMARK    4  A    between atoms: C_2  and  C_18 
REMARK    5  A    between atoms: C_3  and  C_4 
REMARK    6  A    between atoms: C_4  and  C_5 
REMARK    7  A    between atoms: C_5  and  C_6 
REMARK    8  A    between atoms: C_5  and  N_13 
REMARK       I    between atoms: C_8  and  N_13 
ROOT
HETATM    1  C           1     -21.296  -7.791  -2.668  0.00  0.00     0.249 C 
HETATM    2  O           1     -20.775  -6.928  -2.003  0.00  0.00    -0.271 OA
HETATM    3  N           1     -21.556  -9.017  -2.116  0.00  0.00    -0.344 N 
HETATM    4  H           1     -21.993  -9.740  -2.673  0.00  0.00     0.163 HD
ENDROOT
BRANCH   1   5
HETATM    5  C           1     -21.660  -7.519  -4.107  0.00  0.00     0.278 C 
BRANCH   5   6
HETATM    6  C           1     -20.396  -7.230  -4.905  0.00  0.00     0.021 C 
HETATM    7  C           1     -19.649  -8.533  -5.163  0.00  0.00     0.012 C 
BRANCH   6   8
HETATM    8  C           1     -20.771  -6.591  -6.235  0.00  0.00     0.002 C 
HETATM    9  C           1     -19.981  -5.301  -6.420  0.00  0.00     0.005 C 
ENDBRANCH   6   8
ENDBRANCH   5   6
BRANCH   5  10
HETATM   10  N           1     -22.576  -6.333  -4.175  0.00  0.00    -0.066 N 
HETATM   11  H           1     -22.018  -5.456  -4.073  0.00  0.00     0.275 HD
HETATM   12  H           1     -23.070  -6.327  -5.095  0.00  0.00     0.275 HD
HETATM   13  H           1     -23.277  -6.391  -3.401  0.00  0.00     0.275 HD
ENDBRANCH   5  10
ENDBRANCH   1   5
BRANCH   3  14
HETATM   14  C           1     -21.207  -9.278  -0.733  0.00  0.00     0.189 C 
BRANCH  14  15
HETATM   15  C           1     -22.474  -9.548   0.067  0.00  0.00     0.014 C 
HETATM   16  C           1     -23.140  -8.225   0.423  0.00  0.00     0.012 C 
BRANCH  15  17
HETATM   17  C           1     -23.430 -10.390  -0.767  0.00  0.00     0.002 C 
HETATM   18  C           1     -23.801 -11.651   0.002  0.00  0.00     0.005 C 
ENDBRANCH  15  17
ENDBRANCH  14  15
BRANCH  14  19
HETATM   19  C           1     -20.302 -10.484  -0.664  0.00  0.00     0.197 C 
HETATM   20  O           1     -19.787 -10.939  -1.708  0.00  0.00    -0.646 OA
HETATM   21  O           1     -20.066 -11.026   0.437  0.00  0.00    -0.646 OA
ENDBRANCH  14  19
ENDBRANCH   3  14
TORSDOF 8
ENDMDL
MODEL 7
REMARK VINA RESULT:      -5.3      4.525      6.923
REMARK  8 active torsions:
REMARK  status: ('A' for Active; 'I' for Inactive)
REMARK    1  A    between atoms: C_1  and  C_8 
REMARK    2  A    between atoms: C_1  and  C_2 
REMARK    3  A    between atoms: C_1  and  N_11 
REMARK    4  A    between atoms: C_2  and  C_18 
REMARK    5  A    between atoms: C_3  and  C_4 
REMARK    6  A    between atoms: C_4  and  C_5 
REMARK    7  A    between atoms: C_5  and  C_6 
REMARK    8  A    between atoms: C_5  and  N_13 
REMARK       I    between atoms: C_8  and  N_13 
ROOT
HETATM    1  C           1     -20.842  -7.964  -2.040  0.00  0.00     0.249 C 
HETATM    2  O           1     -20.909  -6.922  -2.648  0.00  0.00    -0.271 OA
HETATM    3  N           1     -20.251  -9.055  -2.617  0.00  0.00    -0.344 N 
HETATM    4  H           1     -20.195  -9.929  -2.109  0.00  0.00     0.163 HD
ENDROOT
BRANCH   1   5
HETATM    5  C           1     -21.412  -8.063  -0.647  0.00  0.00     0.278 C 
BRANCH   5   6
HETATM    6  C           1     -21.844  -9.497  -0.375  0.00  0.00     0.021 C 
HETATM    7  C           1     -21.014 -10.069   0.768  0.00  0.00     0.012 C 
BRANCH   6   8
HETATM    8  C           1     -23.317  -9.519   0.009  0.00  0.00     0.002 C 
HETATM    9  C           1     -23.883 -10.915  -0.226  0.00  0.00     0.005 C 
ENDBRANCH   6   8
ENDBRANCH   5   6
BRANCH   5  10
HETATM   10  N           1     -22.598  -7.152  -0.527  0.00  0.00    -0.066 N 
HETATM   11  H           1     -22.806  -6.983   0.483  0.00  0.00     0.275 HD
HETATM   12  H           1     -22.388  -6.243  -0.996  0.00  0.00     0.275 HD
HETATM   13  H           1     -23.426  -7.598  -0.983  0.00  0.00     0.275 HD
ENDBRANCH   5  10
ENDBRANCH   1   5
BRANCH   3  14
HETATM   14  C           1     -19.702  -8.961  -3.956  0.00  0.00     0.189 C 
BRANCH  14  15
HETATM   15  C           1     -18.455  -9.828  -4.056  0.00  0.00     0.014 C 
HETATM   16  C           1     -17.783  -9.596  -5.403  0.00  0.00     0.012 C 
BRANCH  15  17
HETATM   17  C           1     -17.490  -9.458  -2.938  0.00  0.00     0.002 C 
HETATM   18  C           1     -16.057  -9.629  -3.424  0.00  0.00     0.005 C 
ENDBRANCH  15  17
ENDBRANCH  14  15
BRANCH  14  19
HETATM   19  C           1     -20.729  -9.439  -4.954  0.00  0.00     0.197 C 
HETATM   20  O           1     -21.151  -8.663  -5.837  0.00  0.00    -0.646 OA
HETATM   21  O           1     -21.157 -10.613  -4.896  0.00  0.00    -0.646 OA
ENDBRANCH  14  19
ENDBRANCH   3  14
TORSDOF 8
ENDMDL
MODEL 8
REMARK VINA RESULT:      -5.3      1.463      2.037
REMARK  8 active torsions:
REMARK  status: ('A' for Active; 'I' for Inactive)
REMARK    1  A    between atoms: C_1  and  C_8 
REMARK    2  A    between atoms: C_1  and  C_2 
REMARK    3  A    between atoms: C_1  and  N_11 
REMARK    4  A    between atoms: C_2  and  C_18 
REMARK    5  A    between atoms: C_3  and  C_4 
REMARK    6  A    between atoms: C_4  and  C_5 
REMARK    7  A    between atoms: C_5  and  C_6 
REMARK    8  A    between atoms: C_5  and  N_13 
REMARK       I    between atoms: C_8  and  N_13 
ROOT
HETATM    1  C           1     -20.829  -6.739  -6.062  0.00  0.00     0.249 C 
HETATM    2  O           1     -19.755  -7.175  -6.402  0.00  0.00    -0.271 OA
HETATM    3  N           1     -21.474  -7.278  -4.981  0.00  0.00    -0.344 N 
HETATM    4  H           1     -22.374  -6.914  -4.696  0.00  0.00     0.163 HD
ENDROOT
BRANCH   1   5
HETATM    5  C           1     -21.460  -5.603  -6.828  0.00  0.00     0.278 C 
BRANCH   5   6
HETATM    6  C           1     -20.587  -4.362  -6.708  0.00  0.00     0.021 C 
HETATM    7  C           1     -19.874  -4.371  -5.361  0.00  0.00     0.012 C 
BRANCH   6   8
HETATM    8  C           1     -19.554  -4.358  -7.827  0.00  0.00     0.002 C 
HETATM    9  C           1     -20.261  -4.467  -9.172  0.00  0.00     0.005 C 
ENDBRANCH   6   8
ENDBRANCH   5   6
BRANCH   5  10
HETATM   10  N           1     -22.820  -5.315  -6.264  0.00  0.00    -0.066 N 
HETATM   11  H           1     -22.890  -4.299  -6.028  0.00  0.00     0.275 HD
HETATM   12  H           1     -23.549  -5.560  -6.970  0.00  0.00     0.275 HD
HETATM   13  H           1     -22.964  -5.884  -5.399  0.00  0.00     0.275 HD
ENDBRANCH   5  10
ENDBRANCH   1   5
BRANCH   3  14
HETATM   14  C           1     -20.868  -8.370  -4.244  0.00  0.00     0.189 C 
BRANCH  14  15
HETATM   15  C           1     -21.189  -8.222  -2.763  0.00  0.00     0.014 C 
HETATM   16  C           1     -19.943  -8.526  -1.942  0.00  0.00     0.012 C 
BRANCH  15  17
HETATM   17  C           1     -21.646  -6.796  -2.484  0.00  0.00     0.002 C 
HETATM   18  C           1     -22.296  -6.731  -1.108  0.00  0.00     0.005 C 
ENDBRANCH  15  17
ENDBRANCH  14  15
BRANCH  14  19
HETATM   19  C           1     -21.416  -9.682  -4.750  0.00  0.00     0.197 C 
HETATM   20  O           1     -21.060 -10.119  -5.865  0.00  0.00    -0.646 OA
HETATM   21  O           1     -22.226 -10.331  -4.053  0.00  0.00    -0.646 OA
ENDBRANCH  14  19
ENDBRANCH   3  14
TORSDOF 8
ENDMDL
MODEL 9
REMARK VINA RESULT:      -5.3      5.023      8.182
REMARK  8 active torsions:
REMARK  status: ('A' for Active; 'I' for Inactive)
REMARK    1  A    between atoms: C_1  and  C_8 
REMARK    2  A    between atoms: C_1  and  C_2 
REMARK    3  A    between atoms: C_1  and  N_11 
REMARK    4  A    between atoms: C_2  and  C_18 
REMARK    5  A    between atoms: C_3  and  C_4 
REMARK    6  A    between atoms: C_4  and  C_5 
REMARK    7  A    between atoms: C_5  and  C_6 
REMARK    8  A    between atoms: C_5  and  N_13 
REMARK       I    between atoms: C_8  and  N_13 
ROOT
HETATM    1  C           1     -22.113 -11.004  -2.008  0.00  0.00     0.249 C 
HETATM    2  O           1     -22.709 -10.936  -3.056  0.00  0.00    -0.271 OA
HETATM    3  N           1     -21.455  -9.907  -1.523  0.00  0.00    -0.344 N 
HETATM    4  H           1     -20.955  -9.963  -0.644  0.00  0.00     0.163 HD
ENDROOT
BRANCH   1   5
HETATM    5  C           1     -22.094 -12.299  -1.233  0.00  0.00     0.278 C 
BRANCH   5   6
HETATM    6  C           1     -22.417 -12.022   0.229  0.00  0.00     0.021 C 
HETATM    7  C           1     -23.892 -11.662   0.363  0.00  0.00     0.012 C 
BRANCH   6   8
HETATM    8  C           1     -22.121 -13.264   1.058  0.00  0.00     0.002 C 
HETATM    9  C           1     -23.369 -13.667   1.833  0.00  0.00     0.005 C 
ENDBRANCH   6   8
ENDBRANCH   5   6
BRANCH   5  10
HETATM   10  N           1     -20.733 -12.921  -1.335  0.00  0.00    -0.066 N 
HETATM   11  H           1     -20.818 -13.959  -1.255  0.00  0.00     0.275 HD
HETATM   12  H           1     -20.306 -12.677  -2.257  0.00  0.00     0.275 HD
HETATM   13  H           1     -20.128 -12.561  -0.563  0.00  0.00     0.275 HD
ENDBRANCH   5  10
ENDBRANCH   1   5
BRANCH   3  14
HETATM   14  C           1     -21.474  -8.662  -2.266  0.00  0.00     0.189 C 
BRANCH  14  15
HETATM   15  C           1     -21.611  -7.494  -1.298  0.00  0.00     0.014 C 
HETATM   16  C           1     -22.115  -6.270  -2.050  0.00  0.00     0.012 C 
BRANCH  15  17
HETATM   17  C           1     -22.601  -7.860  -0.201  0.00  0.00     0.002 C 
HETATM   18  C           1     -21.860  -8.024   1.120  0.00  0.00     0.005 C 
ENDBRANCH  15  17
ENDBRANCH  14  15
BRANCH  14  19
HETATM   19  C           1     -20.187  -8.522  -3.044  0.00  0.00     0.197 C 
HETATM   20  O           1     -19.099  -8.830  -2.511  0.00  0.00    -0.646 OA
HETATM   21  O           1     -20.211  -8.100  -4.220  0.00  0.00    -0.646 OA
ENDBRANCH  14  19
ENDBRANCH   3  14
TORSDOF 8
ENDMDL
