MODEL 1
REMARK VINA RESULT:      -5.9      0.000      0.000
REMARK  7 active torsions:
REMARK  status: ('A' for Active; 'I' for Inactive)
REMARK    1  A    between atoms: C_4  and  N_5 
REMARK    2  A    between atoms: C_4  and  C_16 
REMARK    3  A    between atoms: C_9  and  C_11 
REMARK    4  A    between atoms: C_11  and  C_14 
REMARK    5  A    between atoms: C_11  and  N_20 
REMARK    6  A    between atoms: C_12  and  C_19 
REMARK    7  A    between atoms: C_14  and  C_16 
REMARK       I    between atoms: C_19  and  N_20 
ROOT
HETATM    1  C           1     -26.845  -6.914 -20.345  0.00  0.00     0.185 C 
ENDROOT
BRANCH   1   2
HETATM    2  C           1     -26.660  -8.132 -21.218  0.00  0.00     0.196 C 
HETATM    3  O           1     -25.528  -8.413 -21.666  0.00  0.00    -0.646 OA
HETATM    4  O           1     -27.640  -8.858 -21.492  0.00  0.00    -0.646 OA
ENDBRANCH   1   2
BRANCH   1   5
HETATM    5  C           1     -25.485  -6.418 -19.874  0.00  0.00     0.038 C 
BRANCH   5   6
HETATM    6  C           1     -25.276  -6.814 -18.418  0.00  0.00     0.030 C 
BRANCH   6   7
HETATM    7  C           1     -23.828  -7.238 -18.208  0.00  0.00     0.230 C 
BRANCH   7   8
HETATM    8  N           1     -23.669  -7.811 -16.831  0.00  0.00    -0.079 N 
HETATM    9  H           1     -23.446  -7.044 -16.158  0.00  0.00     0.274 HD
HETATM   10  H           1     -24.557  -8.279 -16.544  0.00  0.00     0.274 HD
HETATM   11  H           1     -22.891  -8.509 -16.832  0.00  0.00     0.274 HD
ENDBRANCH   7   8
ENDBRANCH   6   7
ENDBRANCH   5   6
ENDBRANCH   1   5
BRANCH   1  12
HETATM   12  N           1     -27.657  -7.263 -19.195  0.00  0.00    -0.345 N 
HETATM   13  H           1     -27.608  -8.196 -18.806  0.00  0.00     0.163 HD
HETATM   14  C           1     -28.490  -6.331 -18.637  0.00  0.00     0.251 C 
HETATM   15  O           1     -28.548  -5.218 -19.102  0.00  0.00    -0.271 OA
BRANCH  14  16
HETATM   16  C           1     -29.335  -6.695 -17.442  0.00  0.00     0.311 C 
HETATM   17  C           1     -29.678  -5.461 -16.626  0.00  0.00     0.047 C 
HETATM   18  C           1     -28.616  -5.397 -15.536  0.00  0.00     0.033 C 
HETATM   19  C           1     -27.724  -6.603 -15.780  0.00  0.00     0.271 C 
HETATM   20  N           1     -28.584  -7.530 -16.509  0.00  0.00     0.097 N 
HETATM   21  H           1     -29.211  -7.997 -15.854  0.00  0.00     0.317 HD
ENDBRANCH  14  16
ENDBRANCH   1  12
TORSDOF 7
ENDMDL
MODEL 2
REMARK VINA RESULT:      -5.4     18.752     20.549
REMARK  7 active torsions:
REMARK  status: ('A' for Active; 'I' for Inactive)
REMARK    1  A    between atoms: C_4  and  N_5 
REMARK    2  A    between atoms: C_4  and  C_16 
REMARK    3  A    between atoms: C_9  and  C_11 
REMARK    4  A    between atoms: C_11  and  C_14 
REMARK    5  A    between atoms: C_11  and  N_20 
REMARK    6  A    between atoms: C_12  and  C_19 
REMARK    7  A    between atoms: C_14  and  C_16 
REMARK       I    between atoms: C_19  and  N_20 
ROOT
HETATM    1  C           1     -10.100   5.759 -20.625  0.00  0.00     0.185 C 
ENDROOT
BRANCH   1   2
HETATM    2  C           1     -10.420   5.561 -19.163  0.00  0.00     0.196 C 
HETATM    3  O           1      -9.534   5.739 -18.300  0.00  0.00    -0.646 OA
HETATM    4  O           1     -11.571   5.220 -18.816  0.00  0.00    -0.646 OA
ENDBRANCH   1   2
BRANCH   1   5
HETATM    5  C           1      -9.486   7.137 -20.827  0.00  0.00     0.038 C 
BRANCH   5   6
HETATM    6  C           1     -10.585   8.192 -20.790  0.00  0.00     0.030 C 
BRANCH   6   7
HETATM    7  C           1     -10.148   9.350 -19.901  0.00  0.00     0.230 C 
BRANCH   7   8
HETATM    8  N           1     -10.036   8.878 -18.481  0.00  0.00    -0.079 N 
HETATM    9  H           1     -10.987   8.841 -18.051  0.00  0.00     0.274 HD
HETATM   10  H           1      -9.608   7.925 -18.465  0.00  0.00     0.274 HD
HETATM   11  H           1      -9.436   9.540 -17.941  0.00  0.00     0.274 HD
ENDBRANCH   7   8
ENDBRANCH   6   7
ENDBRANCH   5   6
ENDBRANCH   1   5
BRANCH   1  12
HETATM   12  N           1     -11.318   5.653 -21.405  0.00  0.00    -0.345 N 
HETATM   13  H           1     -11.963   6.432 -21.444  0.00  0.00     0.163 HD
HETATM   14  C           1     -11.596   4.499 -22.087  0.00  0.00     0.251 C 
HETATM   15  O           1     -10.827   3.570 -22.040  0.00  0.00    -0.271 OA
BRANCH  14  16
HETATM   16  C           1     -12.864   4.389 -22.897  0.00  0.00     0.311 C 
HETATM   17  C           1     -13.812   5.530 -22.575  0.00  0.00     0.047 C 
HETATM   18  C           1     -14.749   4.980 -21.507  0.00  0.00     0.033 C 
HETATM   19  C           1     -14.292   3.549 -21.278  0.00  0.00     0.271 C 
HETATM   20  N           1     -13.618   3.195 -22.523  0.00  0.00     0.097 N 
HETATM   21  H           1     -14.314   2.969 -23.234  0.00  0.00     0.317 HD
ENDBRANCH  14  16
ENDBRANCH   1  12
TORSDOF 7
ENDMDL
MODEL 3
REMARK VINA RESULT:      -5.3     13.582     15.452
REMARK  7 active torsions:
REMARK  status: ('A' for Active; 'I' for Inactive)
REMARK    1  A    between atoms: C_4  and  N_5 
REMARK    2  A    between atoms: C_4  and  C_16 
REMARK    3  A    between atoms: C_9  and  C_11 
REMARK    4  A    between atoms: C_11  and  C_14 
REMARK    5  A    between atoms: C_11  and  N_20 
REMARK    6  A    between atoms: C_12  and  C_19 
REMARK    7  A    between atoms: C_14  and  C_16 
REMARK       I    between atoms: C_19  and  N_20 
ROOT
HETATM    1  C           1     -21.690  -7.171  -4.158  0.00  0.00     0.185 C 
ENDROOT
BRANCH   1   2
HETATM    2  C           1     -21.695  -6.853  -2.682  0.00  0.00     0.196 C 
HETATM    3  O           1     -20.958  -7.493  -1.902  0.00  0.00    -0.646 OA
HETATM    4  O           1     -22.437  -5.950  -2.240  0.00  0.00    -0.646 OA
ENDBRANCH   1   2
BRANCH   1   5
HETATM    5  C           1     -21.084  -8.550  -4.377  0.00  0.00     0.038 C 
BRANCH   5   6
HETATM    6  C           1     -19.695  -8.404  -4.984  0.00  0.00     0.030 C 
BRANCH   6   7
HETATM    7  C           1     -18.753  -9.419  -4.349  0.00  0.00     0.230 C 
BRANCH   7   8
HETATM    8  N           1     -18.665  -9.166  -2.873  0.00  0.00    -0.079 N 
HETATM    9  H           1     -17.801  -9.612  -2.493  0.00  0.00     0.274 HD
HETATM   10  H           1     -18.633  -8.137  -2.698  0.00  0.00     0.274 HD
HETATM   11  H           1     -19.503  -9.574  -2.400  0.00  0.00     0.274 HD
ENDBRANCH   7   8
ENDBRANCH   6   7
ENDBRANCH   5   6
ENDBRANCH   1   5
BRANCH   1  12
HETATM   12  N           1     -20.901  -6.179  -4.862  0.00  0.00    -0.345 N 
HETATM   13  H           1     -19.901  -6.129  -4.713  0.00  0.00     0.163 HD
HETATM   14  C           1     -21.508  -5.310  -5.729  0.00  0.00     0.251 C 
HETATM   15  O           1     -22.701  -5.370  -5.906  0.00  0.00    -0.271 OA
BRANCH  14  16
HETATM   16  C           1     -20.687  -4.278  -6.461  0.00  0.00     0.311 C 
HETATM   17  C           1     -21.499  -3.624  -7.564  0.00  0.00     0.047 C 
HETATM   18  C           1     -21.165  -4.413  -8.824  0.00  0.00     0.033 C 
HETATM   19  C           1     -20.173  -5.474  -8.377  0.00  0.00     0.271 C 
HETATM   20  N           1     -19.576  -4.906  -7.172  0.00  0.00     0.097 N 
HETATM   21  H           1     -18.875  -4.213  -7.434  0.00  0.00     0.317 HD
ENDBRANCH  14  16
ENDBRANCH   1  12
TORSDOF 7
ENDMDL
MODEL 4
REMARK VINA RESULT:      -5.3      1.651      2.137
REMARK  7 active torsions:
REMARK  status: ('A' for Active; 'I' for Inactive)
REMARK    1  A    between atoms: C_4  and  N_5 
REMARK    2  A    between atoms: C_4  and  C_16 
REMARK    3  A    between atoms: C_9  and  C_11 
REMARK    4  A    between atoms: C_11  and  C_14 
REMARK    5  A    between atoms: C_11  and  N_20 
REMARK    6  A    between atoms: C_12  and  C_19 
REMARK    7  A    between atoms: C_14  and  C_16 
REMARK       I    between atoms: C_19  and  N_20 
ROOT
HETATM    1  C           1     -27.219  -6.769 -20.323  0.00  0.00     0.185 C 
ENDROOT
BRANCH   1   2
HETATM    2  C           1     -27.759  -8.155 -20.584  0.00  0.00     0.196 C 
HETATM    3  O           1     -28.736  -8.578 -19.929  0.00  0.00    -0.646 OA
HETATM    4  O           1     -27.230  -8.877 -21.455  0.00  0.00    -0.646 OA
ENDBRANCH   1   2
BRANCH   1   5
HETATM    5  C           1     -25.808  -6.662 -20.884  0.00  0.00     0.038 C 
BRANCH   5   6
HETATM    6  C           1     -24.800  -6.986 -19.789  0.00  0.00     0.030 C 
BRANCH   6   7
HETATM    7  C           1     -23.742  -7.935 -20.337  0.00  0.00     0.230 C 
BRANCH   7   8
HETATM    8  N           1     -24.214  -8.517 -21.636  0.00  0.00    -0.079 N 
HETATM    9  H           1     -23.918  -7.898 -22.424  0.00  0.00     0.274 HD
HETATM   10  H           1     -23.799  -9.467 -21.764  0.00  0.00     0.274 HD
HETATM   11  H           1     -25.257  -8.591 -21.625  0.00  0.00     0.274 HD
ENDBRANCH   7   8
ENDBRANCH   6   7
ENDBRANCH   5   6
ENDBRANCH   1   5
BRANCH   1  12
HETATM   12  N           1     -27.191  -6.523 -18.894  0.00  0.00    -0.345 N 
HETATM   13  H           1     -26.560  -7.049 -18.303  0.00  0.00     0.163 HD
HETATM   14  C           1     -28.019  -5.581 -18.345  0.00  0.00     0.251 C 
HETATM   15  O           1     -28.772  -4.955 -19.051  0.00  0.00    -0.271 OA
BRANCH  14  16
HETATM   16  C           1     -27.990  -5.326 -16.858  0.00  0.00     0.311 C 
HETATM   17  C           1     -27.060  -6.303 -16.160  0.00  0.00     0.047 C 
HETATM   18  C           1     -27.958  -7.440 -15.690  0.00  0.00     0.033 C 
HETATM   19  C           1     -29.357  -7.052 -16.138  0.00  0.00     0.271 C 
HETATM   20  N           1     -29.293  -5.598 -16.259  0.00  0.00     0.097 N 
HETATM   21  H           1     -29.361  -5.177 -15.332  0.00  0.00     0.317 HD
ENDBRANCH  14  16
ENDBRANCH   1  12
TORSDOF 7
ENDMDL
MODEL 5
REMARK VINA RESULT:      -5.3     13.185     14.983
REMARK  7 active torsions:
REMARK  status: ('A' for Active; 'I' for Inactive)
REMARK    1  A    between atoms: C_4  and  N_5 
REMARK    2  A    between atoms: C_4  and  C_16 
REMARK    3  A    between atoms: C_9  and  C_11 
REMARK    4  A    between atoms: C_11  and  C_14 
REMARK    5  A    between atoms: C_11  and  N_20 
REMARK    6  A    between atoms: C_12  and  C_19 
REMARK    7  A    between atoms: C_14  and  C_16 
REMARK       I    between atoms: C_19  and  N_20 
ROOT
HETATM    1  C           1     -20.902  -6.598  -4.729  0.00  0.00     0.185 C 
ENDROOT
BRANCH   1   2
HETATM    2  C           1     -20.535  -7.869  -5.457  0.00  0.00     0.196 C 
HETATM    3  O           1     -19.340  -8.105  -5.737  0.00  0.00    -0.646 OA
HETATM    4  O           1     -21.425  -8.684  -5.778  0.00  0.00    -0.646 OA
ENDBRANCH   1   2
BRANCH   1   5
HETATM    5  C           1     -21.970  -6.902  -3.688  0.00  0.00     0.038 C 
BRANCH   5   6
HETATM    6  C           1     -21.694  -6.094  -2.426  0.00  0.00     0.030 C 
BRANCH   6   7
HETATM    7  C           1     -22.262  -6.827  -1.218  0.00  0.00     0.230 C 
BRANCH   7   8
HETATM    8  N           1     -21.494  -8.096  -0.995  0.00  0.00    -0.079 N 
HETATM    9  H           1     -21.884  -8.851  -1.603  0.00  0.00     0.274 HD
HETATM   10  H           1     -20.489  -7.941  -1.234  0.00  0.00     0.274 HD
HETATM   11  H           1     -21.574  -8.381   0.007  0.00  0.00     0.274 HD
ENDBRANCH   7   8
ENDBRANCH   6   7
ENDBRANCH   5   6
ENDBRANCH   1   5
BRANCH   1  12
HETATM   12  N           1     -21.414  -5.629  -5.679  0.00  0.00    -0.345 N 
HETATM   13  H           1     -22.380  -5.674  -5.977  0.00  0.00     0.163 HD
HETATM   14  C           1     -20.591  -4.653  -6.172  0.00  0.00     0.251 C 
HETATM   15  O           1     -19.438  -4.598  -5.816  0.00  0.00    -0.271 OA
BRANCH  14  16
HETATM   16  C           1     -21.124  -3.645  -7.160  0.00  0.00     0.311 C 
HETATM   17  C           1     -22.432  -4.121  -7.767  0.00  0.00     0.047 C 
HETATM   18  C           1     -22.039  -4.811  -9.067  0.00  0.00     0.033 C 
HETATM   19  C           1     -20.526  -4.686  -9.141  0.00  0.00     0.271 C 
HETATM   20  N           1     -20.232  -3.523  -8.310  0.00  0.00     0.097 N 
HETATM   21  H           1     -20.431  -2.671  -8.834  0.00  0.00     0.317 HD
ENDBRANCH  14  16
ENDBRANCH   1  12
TORSDOF 7
ENDMDL
MODEL 6
REMARK VINA RESULT:      -5.2     19.167     20.885
REMARK  7 active torsions:
REMARK  status: ('A' for Active; 'I' for Inactive)
REMARK    1  A    between atoms: C_4  and  N_5 
REMARK    2  A    between atoms: C_4  and  C_16 
REMARK    3  A    between atoms: C_9  and  C_11 
REMARK    4  A    between atoms: C_11  and  C_14 
REMARK    5  A    between atoms: C_11  and  N_20 
REMARK    6  A    between atoms: C_12  and  C_19 
REMARK    7  A    between atoms: C_14  and  C_16 
REMARK       I    between atoms: C_19  and  N_20 
ROOT
HETATM    1  C           1     -11.649   8.310 -20.770  0.00  0.00     0.185 C 
ENDROOT
BRANCH   1   2
HETATM    2  C           1     -12.246   9.696 -20.812  0.00  0.00     0.196 C 
HETATM    3  O           1     -11.598  10.641 -21.311  0.00  0.00    -0.646 OA
HETATM    4  O           1     -13.389   9.898 -20.348  0.00  0.00    -0.646 OA
ENDBRANCH   1   2
BRANCH   1   5
HETATM    5  C           1     -10.394   8.273 -21.631  0.00  0.00     0.038 C 
BRANCH   5   6
HETATM    6  C           1      -9.212   7.815 -20.786  0.00  0.00     0.030 C 
BRANCH   6   7
HETATM    7  C           1      -9.176   6.293 -20.745  0.00  0.00     0.230 C 
BRANCH   7   8
HETATM    8  N           1      -9.246   5.829 -19.320  0.00  0.00    -0.079 N 
HETATM    9  H           1      -8.303   5.915 -18.878  0.00  0.00     0.274 HD
HETATM   10  H           1      -9.931   6.418 -18.796  0.00  0.00     0.274 HD
HETATM   11  H           1      -9.552   4.830 -19.294  0.00  0.00     0.274 HD
ENDBRANCH   7   8
ENDBRANCH   6   7
ENDBRANCH   5   6
ENDBRANCH   1   5
BRANCH   1  12
HETATM   12  N           1     -12.613   7.353 -21.280  0.00  0.00    -0.345 N 
HETATM   13  H           1     -13.067   7.518 -22.170  0.00  0.00     0.163 HD
HETATM   14  C           1     -12.909   6.229 -20.558  0.00  0.00     0.251 C 
HETATM   15  O           1     -12.368   6.034 -19.496  0.00  0.00    -0.271 OA
BRANCH  14  16
HETATM   16  C           1     -13.913   5.235 -21.088  0.00  0.00     0.311 C 
HETATM   17  C           1     -13.709   3.871 -20.454  0.00  0.00     0.047 C 
HETATM   18  C           1     -12.819   3.108 -21.428  0.00  0.00     0.033 C 
HETATM   19  C           1     -12.566   4.075 -22.573  0.00  0.00     0.271 C 
HETATM   20  N           1     -13.700   4.992 -22.512  0.00  0.00     0.097 N 
HETATM   21  H           1     -14.518   4.549 -22.930  0.00  0.00     0.317 HD
ENDBRANCH  14  16
ENDBRANCH   1  12
TORSDOF 7
ENDMDL
MODEL 7
REMARK VINA RESULT:      -5.2     16.218     18.089
REMARK  7 active torsions:
REMARK  status: ('A' for Active; 'I' for Inactive)
REMARK    1  A    between atoms: C_4  and  N_5 
REMARK    2  A    between atoms: C_4  and  C_16 
REMARK    3  A    between atoms: C_9  and  C_11 
REMARK    4  A    between atoms: C_11  and  C_14 
REMARK    5  A    between atoms: C_11  and  N_20 
REMARK    6  A    between atoms: C_12  and  C_19 
REMARK    7  A    between atoms: C_14  and  C_16 
REMARK       I    between atoms: C_19  and  N_20 
ROOT
HETATM    1  C           1     -21.203  -7.896  -1.696  0.00  0.00     0.185 C 
ENDROOT
BRANCH   1   2
HETATM    2  C           1     -22.311  -6.969  -1.260  0.00  0.00     0.196 C 
HETATM    3  O           1     -23.020  -7.262  -0.273  0.00  0.00    -0.646 OA
HETATM    4  O           1     -22.520  -5.908  -1.887  0.00  0.00    -0.646 OA
ENDBRANCH   1   2
BRANCH   1   5
HETATM    5  C           1     -20.636  -7.419  -3.026  0.00  0.00     0.038 C 
BRANCH   5   6
HETATM    6  C           1     -21.301  -8.181  -4.164  0.00  0.00     0.030 C 
BRANCH   6   7
HETATM    7  C           1     -21.599  -7.225  -5.312  0.00  0.00     0.230 C 
BRANCH   7   8
HETATM    8  N           1     -22.659  -6.251  -4.890  0.00  0.00    -0.079 N 
HETATM    9  H           1     -23.185  -5.923  -5.731  0.00  0.00     0.274 HD
HETATM   10  H           1     -23.316  -6.718  -4.227  0.00  0.00     0.274 HD
HETATM   11  H           1     -22.211  -5.432  -4.419  0.00  0.00     0.274 HD
ENDBRANCH   7   8
ENDBRANCH   6   7
ENDBRANCH   5   6
ENDBRANCH   1   5
BRANCH   1  12
HETATM   12  N           1     -21.729  -9.239  -1.849  0.00  0.00    -0.345 N 
HETATM   13  H           1     -22.418  -9.434  -2.566  0.00  0.00     0.163 HD
HETATM   14  C           1     -21.297 -10.242  -1.025  0.00  0.00     0.251 C 
HETATM   15  O           1     -20.476 -10.010  -0.170  0.00  0.00    -0.271 OA
BRANCH  14  16
HETATM   16  C           1     -21.845 -11.639  -1.184  0.00  0.00     0.311 C 
HETATM   17  C           1     -23.091 -11.635  -2.052  0.00  0.00     0.047 C 
HETATM   18  C           1     -24.257 -11.562  -1.074  0.00  0.00     0.033 C 
HETATM   19  C           1     -23.618 -11.535   0.304  0.00  0.00     0.271 C 
HETATM   20  N           1     -22.315 -12.162   0.096  0.00  0.00     0.097 N 
HETATM   21  H           1     -22.428 -13.175   0.055  0.00  0.00     0.317 HD
ENDBRANCH  14  16
ENDBRANCH   1  12
TORSDOF 7
ENDMDL
MODEL 8
REMARK VINA RESULT:      -5.1      1.945      2.524
REMARK  7 active torsions:
REMARK  status: ('A' for Active; 'I' for Inactive)
REMARK    1  A    between atoms: C_4  and  N_5 
REMARK    2  A    between atoms: C_4  and  C_16 
REMARK    3  A    between atoms: C_9  and  C_11 
REMARK    4  A    between atoms: C_11  and  C_14 
REMARK    5  A    between atoms: C_11  and  N_20 
REMARK    6  A    between atoms: C_12  and  C_19 
REMARK    7  A    between atoms: C_14  and  C_16 
REMARK       I    between atoms: C_19  and  N_20 
ROOT
HETATM    1  C           1     -27.019  -7.069 -20.253  0.00  0.00     0.185 C 
ENDROOT
BRANCH   1   2
HETATM    2  C           1     -27.607  -8.354 -20.782  0.00  0.00     0.196 C 
HETATM    3  O           1     -28.687  -8.783 -20.322  0.00  0.00    -0.646 OA
HETATM    4  O           1     -27.014  -8.989 -21.680  0.00  0.00    -0.646 OA
ENDBRANCH   1   2
BRANCH   1   5
HETATM    5  C           1     -25.501  -7.178 -20.230  0.00  0.00     0.038 C 
BRANCH   5   6
HETATM    6  C           1     -24.920  -6.425 -21.420  0.00  0.00     0.030 C 
BRANCH   6   7
HETATM    7  C           1     -24.141  -7.393 -22.302  0.00  0.00     0.230 C 
BRANCH   7   8
HETATM    8  N           1     -23.892  -8.667 -21.551  0.00  0.00    -0.079 N 
HETATM    9  H           1     -24.539  -9.409 -21.899  0.00  0.00     0.274 HD
HETATM   10  H           1     -22.903  -8.969 -21.697  0.00  0.00     0.274 HD
HETATM   11  H           1     -24.060  -8.508 -20.532  0.00  0.00     0.274 HD
ENDBRANCH   7   8
ENDBRANCH   6   7
ENDBRANCH   5   6
ENDBRANCH   1   5
BRANCH   1  12
HETATM   12  N           1     -27.507  -6.833 -18.907  0.00  0.00    -0.345 N 
HETATM   13  H           1     -27.229  -7.448 -18.153  0.00  0.00     0.163 HD
HETATM   14  C           1     -28.345  -5.779 -18.657  0.00  0.00     0.251 C 
HETATM   15  O           1     -28.677  -5.046 -19.558  0.00  0.00    -0.271 OA
BRANCH  14  16
HETATM   16  C           1     -28.853  -5.535 -17.258  0.00  0.00     0.311 C 
HETATM   17  C           1     -30.342  -5.238 -17.267  0.00  0.00     0.047 C 
HETATM   18  C           1     -30.444  -3.718 -17.297  0.00  0.00     0.033 C 
HETATM   19  C           1     -29.008  -3.224 -17.296  0.00  0.00     0.271 C 
HETATM   20  N           1     -28.261  -4.324 -16.695  0.00  0.00     0.097 N 
HETATM   21  H           1     -28.378  -4.301 -15.682  0.00  0.00     0.317 HD
ENDBRANCH  14  16
ENDBRANCH   1  12
TORSDOF 7
ENDMDL
MODEL 9
REMARK VINA RESULT:      -5.1     15.794     17.501
REMARK  7 active torsions:
REMARK  status: ('A' for Active; 'I' for Inactive)
REMARK    1  A    between atoms: C_4  and  N_5 
REMARK    2  A    between atoms: C_4  and  C_16 
REMARK    3  A    between atoms: C_9  and  C_11 
REMARK    4  A    between atoms: C_11  and  C_14 
REMARK    5  A    between atoms: C_11  and  N_20 
REMARK    6  A    between atoms: C_12  and  C_19 
REMARK    7  A    between atoms: C_14  and  C_16 
REMARK       I    between atoms: C_19  and  N_20 
ROOT
HETATM    1  C           1     -21.172  -7.796  -3.732  0.00  0.00     0.185 C 
ENDROOT
BRANCH   1   2
HETATM    2  C           1     -21.893  -6.472  -3.812  0.00  0.00     0.196 C 
HETATM    3  O           1     -22.032  -5.901  -4.915  0.00  0.00    -0.646 OA
HETATM    4  O           1     -22.351  -5.947  -2.775  0.00  0.00    -0.646 OA
ENDBRANCH   1   2
BRANCH   1   5
HETATM    5  C           1     -21.375  -8.562  -5.032  0.00  0.00     0.038 C 
BRANCH   5   6
HETATM    6  C           1     -20.330  -9.664  -5.141  0.00  0.00     0.030 C 
BRANCH   6   7
HETATM    7  C           1     -18.937  -9.056  -5.038  0.00  0.00     0.230 C 
BRANCH   7   8
HETATM    8  N           1     -18.172  -9.737  -3.942  0.00  0.00    -0.079 N 
HETATM    9  H           1     -17.832  -9.024  -3.259  0.00  0.00     0.274 HD
HETATM   10  H           1     -18.796 -10.418  -3.454  0.00  0.00     0.274 HD
HETATM   11  H           1     -17.355 -10.244  -4.351  0.00  0.00     0.274 HD
ENDBRANCH   7   8
ENDBRANCH   6   7
ENDBRANCH   5   6
ENDBRANCH   1   5
BRANCH   1  12
HETATM   12  N           1     -21.704  -8.569  -2.627  0.00  0.00    -0.345 N 
HETATM   13  H           1     -22.675  -8.854  -2.629  0.00  0.00     0.163 HD
HETATM   14  C           1     -20.893  -8.914  -1.579  0.00  0.00     0.251 C 
HETATM   15  O           1     -19.734  -8.574  -1.576  0.00  0.00    -0.271 OA
BRANCH  14  16
HETATM   16  C           1     -21.446  -9.718  -0.429  0.00  0.00     0.311 C 
HETATM   17  C           1     -22.963  -9.650  -0.402  0.00  0.00     0.047 C 
HETATM   18  C           1     -23.293  -8.518   0.562  0.00  0.00     0.033 C 
HETATM   19  C           1     -21.948  -8.001   1.043  0.00  0.00     0.271 C 
HETATM   20  N           1     -21.050  -9.136   0.850  0.00  0.00     0.097 N 
HETATM   21  H           1     -21.180  -9.805   1.609  0.00  0.00     0.317 HD
ENDBRANCH  14  16
ENDBRANCH   1  12
TORSDOF 7
ENDMDL
