MODEL 1
REMARK VINA RESULT:      -5.8      0.000      0.000
REMARK  6 active torsions:
REMARK  status: ('A' for Active; 'I' for Inactive)
REMARK    1  A    between atoms: C_1  and  C_4 
REMARK    2  A    between atoms: C_1  and  C_9 
REMARK       I    between atoms: N_2  and  C_3 
REMARK    3  A    between atoms: C_3  and  C_4 
REMARK    4  A    between atoms: C_4  and  N_15 
REMARK    5  A    between atoms: C_9  and  S_14 
REMARK    6  A    between atoms: C_16  and  C_18 
ROOT
HETATM    1  N           1     -21.531  -4.471  -9.360  0.00  0.00    -0.336 N 
HETATM    2  C           1     -21.624  -4.685  -8.011  0.00  0.00     0.251 C 
HETATM    3  C           1     -20.245  -3.768 -11.191  0.00  0.00     0.022 C 
HETATM    4  C           1     -20.489  -4.948 -10.266  0.00  0.00     0.127 C 
HETATM    5  O           1     -22.551  -4.222  -7.389  0.00  0.00    -0.271 OA
HETATM    6  C           1     -21.534  -2.955 -11.148  0.00  0.00     0.038 C 
HETATM    7  C           1     -22.451  -3.717 -10.207  0.00  0.00     0.188 C 
ENDROOT
BRANCH   2   8
HETATM    8  C           1     -20.570  -5.497  -7.301  0.00  0.00     0.275 C 
BRANCH   8   9
HETATM    9  C           1     -21.237  -6.445  -6.312  0.00  0.00     0.053 C 
BRANCH   9  10
HETATM   10  C           1     -20.943  -5.985  -4.891  0.00  0.00     0.076 C 
BRANCH  10  11
HETATM   11  S           1     -21.395  -7.299  -3.723  0.00  0.00    -0.173 SA
HETATM   12  C           1     -21.936  -6.200  -2.384  0.00  0.00     0.089 C 
ENDBRANCH  10  11
ENDBRANCH   9  10
ENDBRANCH   8   9
BRANCH   8  13
HETATM   13  N           1     -19.644  -4.577  -6.563  0.00  0.00    -0.066 N 
HETATM   14  H           1     -20.150  -4.148  -5.754  0.00  0.00     0.275 HD
HETATM   15  H           1     -18.823  -5.118  -6.211  0.00  0.00     0.275 HD
HETATM   16  H           1     -19.316  -3.821  -7.206  0.00  0.00     0.275 HD
ENDBRANCH   8  13
ENDBRANCH   2   8
BRANCH   7  17
HETATM   17  C           1     -23.358  -4.646 -10.975  0.00  0.00     0.196 C 
HETATM   18  O           1     -24.045  -5.494 -10.365  0.00  0.00    -0.646 OA
HETATM   19  O           1     -23.424  -4.567 -12.220  0.00  0.00    -0.646 OA
ENDBRANCH   7  17
TORSDOF 6
ENDMDL
MODEL 2
REMARK VINA RESULT:      -5.4     10.755     12.734
REMARK  6 active torsions:
REMARK  status: ('A' for Active; 'I' for Inactive)
REMARK    1  A    between atoms: C_1  and  C_4 
REMARK    2  A    between atoms: C_1  and  C_9 
REMARK       I    between atoms: N_2  and  C_3 
REMARK    3  A    between atoms: C_3  and  C_4 
REMARK    4  A    between atoms: C_4  and  N_15 
REMARK    5  A    between atoms: C_9  and  S_14 
REMARK    6  A    between atoms: C_16  and  C_18 
ROOT
HETATM    1  N           1     -26.706  -6.253 -18.185  0.00  0.00    -0.336 N 
HETATM    2  C           1     -25.587  -6.600 -18.892  0.00  0.00     0.251 C 
HETATM    3  C           1     -28.721  -5.056 -18.087  0.00  0.00     0.022 C 
HETATM    4  C           1     -28.097  -6.332 -18.626  0.00  0.00     0.127 C 
HETATM    5  O           1     -24.494  -6.477 -18.391  0.00  0.00    -0.271 OA
HETATM    6  C           1     -27.846  -4.652 -16.906  0.00  0.00     0.038 C 
HETATM    7  C           1     -26.771  -5.722 -16.826  0.00  0.00     0.188 C 
ENDROOT
BRANCH   2   8
HETATM    8  C           1     -25.718  -7.136 -20.297  0.00  0.00     0.275 C 
BRANCH   8   9
HETATM    9  C           1     -24.419  -7.822 -20.702  0.00  0.00     0.053 C 
BRANCH   9  10
HETATM   10  C           1     -24.288  -7.806 -22.219  0.00  0.00     0.076 C 
BRANCH  10  11
HETATM   11  S           1     -22.736  -8.612 -22.703  0.00  0.00    -0.173 SA
HETATM   12  C           1     -21.985  -8.610 -21.050  0.00  0.00     0.089 C 
ENDBRANCH  10  11
ENDBRANCH   9  10
ENDBRANCH   8   9
BRANCH   8  13
HETATM   13  N           1     -25.999  -6.003 -21.238  0.00  0.00    -0.066 N 
HETATM   14  H           1     -26.042  -6.366 -22.218  0.00  0.00     0.275 HD
HETATM   15  H           1     -26.914  -5.563 -20.990  0.00  0.00     0.275 HD
HETATM   16  H           1     -25.238  -5.290 -21.165  0.00  0.00     0.275 HD
ENDBRANCH   8  13
ENDBRANCH   2   8
BRANCH   7  17
HETATM   17  C           1     -27.159  -6.802 -15.846  0.00  0.00     0.196 C 
HETATM   18  O           1     -26.291  -7.583 -15.401  0.00  0.00    -0.646 OA
HETATM   19  O           1     -28.349  -6.914 -15.479  0.00  0.00    -0.646 OA
ENDBRANCH   7  17
TORSDOF 6
ENDMDL
MODEL 3
REMARK VINA RESULT:      -5.4     10.187     11.957
REMARK  6 active torsions:
REMARK  status: ('A' for Active; 'I' for Inactive)
REMARK    1  A    between atoms: C_1  and  C_4 
REMARK    2  A    between atoms: C_1  and  C_9 
REMARK       I    between atoms: N_2  and  C_3 
REMARK    3  A    between atoms: C_3  and  C_4 
REMARK    4  A    between atoms: C_4  and  N_15 
REMARK    5  A    between atoms: C_9  and  S_14 
REMARK    6  A    between atoms: C_16  and  C_18 
ROOT
HETATM    1  N           1     -28.436  -6.024 -16.787  0.00  0.00    -0.336 N 
HETATM    2  C           1     -27.336  -6.586 -16.200  0.00  0.00     0.251 C 
HETATM    3  C           1     -29.555  -4.090 -17.502  0.00  0.00     0.022 C 
HETATM    4  C           1     -28.463  -5.070 -17.894  0.00  0.00     0.127 C 
HETATM    5  O           1     -27.471  -7.364 -15.285  0.00  0.00    -0.271 OA
HETATM    6  C           1     -30.457  -4.860 -16.544  0.00  0.00     0.038 C 
HETATM    7  C           1     -29.838  -6.244 -16.445  0.00  0.00     0.188 C 
ENDROOT
BRANCH   2   8
HETATM    8  C           1     -25.954  -6.235 -16.693  0.00  0.00     0.275 C 
BRANCH   8   9
HETATM    9  C           1     -25.805  -6.675 -18.144  0.00  0.00     0.053 C 
BRANCH   9  10
HETATM   10  C           1     -24.355  -7.057 -18.413  0.00  0.00     0.076 C 
BRANCH  10  11
HETATM   11  S           1     -24.185  -7.623 -20.129  0.00  0.00    -0.173 SA
HETATM   12  C           1     -25.868  -7.188 -20.651  0.00  0.00     0.089 C 
ENDBRANCH  10  11
ENDBRANCH   9  10
ENDBRANCH   8   9
BRANCH   8  13
HETATM   13  N           1     -24.930  -6.937 -15.851  0.00  0.00    -0.066 N 
HETATM   14  H           1     -25.377  -7.743 -15.358  0.00  0.00     0.275 HD
HETATM   15  H           1     -24.159  -7.288 -16.462  0.00  0.00     0.275 HD
HETATM   16  H           1     -24.542  -6.271 -15.146  0.00  0.00     0.275 HD
ENDBRANCH   8  13
ENDBRANCH   2   8
BRANCH   7  17
HETATM   17  C           1     -30.487  -7.194 -17.421  0.00  0.00     0.196 C 
HETATM   18  O           1     -29.839  -8.162 -17.875  0.00  0.00    -0.646 OA
HETATM   19  O           1     -31.672  -7.014 -17.776  0.00  0.00    -0.646 OA
ENDBRANCH   7  17
TORSDOF 6
ENDMDL
MODEL 4
REMARK VINA RESULT:      -4.9      3.451      6.441
REMARK  6 active torsions:
REMARK  status: ('A' for Active; 'I' for Inactive)
REMARK    1  A    between atoms: C_1  and  C_4 
REMARK    2  A    between atoms: C_1  and  C_9 
REMARK       I    between atoms: N_2  and  C_3 
REMARK    3  A    between atoms: C_3  and  C_4 
REMARK    4  A    between atoms: C_4  and  N_15 
REMARK    5  A    between atoms: C_9  and  S_14 
REMARK    6  A    between atoms: C_16  and  C_18 
ROOT
HETATM    1  N           1     -21.109  -6.785  -5.413  0.00  0.00    -0.336 N 
HETATM    2  C           1     -20.666  -6.187  -6.561  0.00  0.00     0.251 C 
HETATM    3  C           1     -21.916  -6.561  -3.222  0.00  0.00     0.022 C 
HETATM    4  C           1     -22.340  -6.499  -4.679  0.00  0.00     0.127 C 
HETATM    5  O           1     -19.619  -6.532  -7.056  0.00  0.00    -0.271 OA
HETATM    6  C           1     -20.673  -7.443  -3.205  0.00  0.00     0.038 C 
HETATM    7  C           1     -20.456  -7.847  -4.653  0.00  0.00     0.188 C 
ENDROOT
BRANCH   2   8
HETATM    8  C           1     -21.484  -5.098  -7.209  0.00  0.00     0.275 C 
BRANCH   8   9
HETATM    9  C           1     -21.337  -5.183  -8.723  0.00  0.00     0.053 C 
BRANCH   9  10
HETATM   10  C           1     -22.581  -4.610  -9.388  0.00  0.00     0.076 C 
BRANCH  10  11
HETATM   11  S           1     -22.233  -4.271 -11.137  0.00  0.00    -0.173 SA
HETATM   12  C           1     -20.432  -4.138 -10.961  0.00  0.00     0.089 C 
ENDBRANCH  10  11
ENDBRANCH   9  10
ENDBRANCH   8   9
BRANCH   8  13
HETATM   13  N           1     -20.998  -3.760  -6.735  0.00  0.00    -0.066 N 
HETATM   14  H           1     -21.512  -3.491  -5.866  0.00  0.00     0.275 HD
HETATM   15  H           1     -19.975  -3.814  -6.531  0.00  0.00     0.275 HD
HETATM   16  H           1     -21.170  -3.044  -7.476  0.00  0.00     0.275 HD
ENDBRANCH   8  13
ENDBRANCH   2   8
BRANCH   7  17
HETATM   17  C           1     -21.095  -9.184  -4.940  0.00  0.00     0.196 C 
HETATM   18  O           1     -21.630  -9.832  -4.016  0.00  0.00    -0.646 OA
HETATM   19  O           1     -21.090  -9.642  -6.103  0.00  0.00    -0.646 OA
ENDBRANCH   7  17
TORSDOF 6
ENDMDL
MODEL 5
REMARK VINA RESULT:      -4.9      5.639      9.240
REMARK  6 active torsions:
REMARK  status: ('A' for Active; 'I' for Inactive)
REMARK    1  A    between atoms: C_1  and  C_4 
REMARK    2  A    between atoms: C_1  and  C_9 
REMARK       I    between atoms: N_2  and  C_3 
REMARK    3  A    between atoms: C_3  and  C_4 
REMARK    4  A    between atoms: C_4  and  N_15 
REMARK    5  A    between atoms: C_9  and  S_14 
REMARK    6  A    between atoms: C_16  and  C_18 
ROOT
HETATM    1  N           1     -21.514  -8.378  -0.934  0.00  0.00    -0.336 N 
HETATM    2  C           1     -21.069  -7.871  -2.125  0.00  0.00     0.251 C 
HETATM    3  C           1     -22.379  -7.985   1.211  0.00  0.00     0.022 C 
HETATM    4  C           1     -22.772  -8.076  -0.253  0.00  0.00     0.127 C 
HETATM    5  O           1     -19.999  -8.217  -2.565  0.00  0.00    -0.271 OA
HETATM    6  C           1     -21.103  -8.810   1.334  0.00  0.00     0.038 C 
HETATM    7  C           1     -20.837  -9.337  -0.066  0.00  0.00     0.188 C 
ENDROOT
BRANCH   2   8
HETATM    8  C           1     -21.915  -6.881  -2.887  0.00  0.00     0.275 C 
BRANCH   8   9
HETATM    9  C           1     -21.231  -6.537  -4.204  0.00  0.00     0.053 C 
BRANCH   9  10
HETATM   10  C           1     -22.285  -6.296  -5.276  0.00  0.00     0.076 C 
BRANCH  10  11
HETATM   11  S           1     -21.574  -5.298  -6.614  0.00  0.00    -0.173 SA
HETATM   12  C           1     -20.158  -4.672  -5.667  0.00  0.00     0.089 C 
ENDBRANCH  10  11
ENDBRANCH   9  10
ENDBRANCH   8   9
BRANCH   8  13
HETATM   13  N           1     -22.081  -5.635  -2.070  0.00  0.00    -0.066 N 
HETATM   14  H           1     -21.916  -4.797  -2.674  0.00  0.00     0.275 HD
HETATM   15  H           1     -23.051  -5.598  -1.685  0.00  0.00     0.275 HD
HETATM   16  H           1     -21.393  -5.638  -1.284  0.00  0.00     0.275 HD
ENDBRANCH   8  13
ENDBRANCH   2   8
BRANCH   7  17
HETATM   17  C           1     -21.417 -10.720  -0.239  0.00  0.00     0.196 C 
HETATM   18  O           1     -21.679 -11.417   0.765  0.00  0.00    -0.646 OA
HETATM   19  O           1     -21.635 -11.167  -1.386  0.00  0.00    -0.646 OA
ENDBRANCH   7  17
TORSDOF 6
ENDMDL
MODEL 6
REMARK VINA RESULT:      -4.7      7.149      9.757
REMARK  6 active torsions:
REMARK  status: ('A' for Active; 'I' for Inactive)
REMARK    1  A    between atoms: C_1  and  C_4 
REMARK    2  A    between atoms: C_1  and  C_9 
REMARK       I    between atoms: N_2  and  C_3 
REMARK    3  A    between atoms: C_3  and  C_4 
REMARK    4  A    between atoms: C_4  and  N_15 
REMARK    5  A    between atoms: C_9  and  S_14 
REMARK    6  A    between atoms: C_16  and  C_18 
ROOT
HETATM    1  N           1     -22.415  -9.468  -0.865  0.00  0.00    -0.336 N 
HETATM    2  C           1     -22.159  -8.124  -0.857  0.00  0.00     0.251 C 
HETATM    3  C           1     -23.704 -11.256  -1.667  0.00  0.00     0.022 C 
HETATM    4  C           1     -22.546 -10.342  -2.029  0.00  0.00     0.127 C 
HETATM    5  O           1     -22.079  -7.531   0.192  0.00  0.00    -0.271 OA
HETATM    6  C           1     -23.756 -11.252  -0.144  0.00  0.00     0.038 C 
HETATM    7  C           1     -22.618 -10.342   0.288  0.00  0.00     0.188 C 
ENDROOT
BRANCH   2   8
HETATM    8  C           1     -21.977  -7.383  -2.159  0.00  0.00     0.275 C 
BRANCH   8   9
HETATM    9  C           1     -20.531  -7.513  -2.620  0.00  0.00     0.053 C 
BRANCH   9  10
HETATM   10  C           1     -20.499  -7.874  -4.099  0.00  0.00     0.076 C 
BRANCH  10  11
HETATM   11  S           1     -19.496  -9.367  -4.339  0.00  0.00    -0.173 SA
HETATM   12  C           1     -18.880  -9.471  -2.635  0.00  0.00     0.089 C 
ENDBRANCH  10  11
ENDBRANCH   9  10
ENDBRANCH   8   9
BRANCH   8  13
HETATM   13  N           1     -22.308  -5.935  -1.959  0.00  0.00    -0.066 N 
HETATM   14  H           1     -21.450  -5.418  -1.663  0.00  0.00     0.275 HD
HETATM   15  H           1     -22.664  -5.532  -2.855  0.00  0.00     0.275 HD
HETATM   16  H           1     -23.041  -5.843  -1.220  0.00  0.00     0.275 HD
ENDBRANCH   8  13
ENDBRANCH   2   8
BRANCH   7  17
HETATM   17  C           1     -21.372 -11.141   0.582  0.00  0.00     0.196 C 
HETATM   18  O           1     -20.263 -10.569   0.641  0.00  0.00    -0.646 OA
HETATM   19  O           1     -21.450 -12.375   0.767  0.00  0.00    -0.646 OA
ENDBRANCH   7  17
TORSDOF 6
ENDMDL
MODEL 7
REMARK VINA RESULT:      -4.7      8.045     10.124
REMARK  6 active torsions:
REMARK  status: ('A' for Active; 'I' for Inactive)
REMARK    1  A    between atoms: C_1  and  C_4 
REMARK    2  A    between atoms: C_1  and  C_9 
REMARK       I    between atoms: N_2  and  C_3 
REMARK    3  A    between atoms: C_3  and  C_4 
REMARK    4  A    between atoms: C_4  and  N_15 
REMARK    5  A    between atoms: C_9  and  S_14 
REMARK    6  A    between atoms: C_16  and  C_18 
ROOT
HETATM    1  N           1     -21.217  -9.689  -0.675  0.00  0.00    -0.336 N 
HETATM    2  C           1     -20.962 -10.640   0.275  0.00  0.00     0.251 C 
HETATM    3  C           1     -20.892  -8.909  -2.863  0.00  0.00     0.022 C 
HETATM    4  C           1     -21.694  -9.902  -2.040  0.00  0.00     0.127 C 
HETATM    5  O           1     -20.568 -10.310   1.369  0.00  0.00    -0.271 OA
HETATM    6  C           1     -20.477  -7.819  -1.881  0.00  0.00     0.038 C 
HETATM    7  C           1     -21.071  -8.242  -0.548  0.00  0.00     0.188 C 
ENDROOT
BRANCH   2   8
HETATM    8  C           1     -21.173 -12.100  -0.042  0.00  0.00     0.275 C 
BRANCH   8   9
HETATM    9  C           1     -21.937 -12.763   1.098  0.00  0.00     0.053 C 
BRANCH   9  10
HETATM   10  C           1     -23.395 -12.939   0.698  0.00  0.00     0.076 C 
BRANCH  10  11
HETATM   11  S           1     -23.510 -13.145  -1.102  0.00  0.00    -0.173 SA
HETATM   12  C           1     -24.580 -14.610  -1.069  0.00  0.00     0.089 C 
ENDBRANCH  10  11
ENDBRANCH   9  10
ENDBRANCH   8   9
BRANCH   8  13
HETATM   13  N           1     -19.843 -12.772  -0.208  0.00  0.00    -0.066 N 
HETATM   14  H           1     -19.414 -12.935   0.731  0.00  0.00     0.275 HD
HETATM   15  H           1     -19.974 -13.688  -0.694  0.00  0.00     0.275 HD
HETATM   16  H           1     -19.212 -12.162  -0.776  0.00  0.00     0.275 HD
ENDBRANCH   8  13
ENDBRANCH   2   8
BRANCH   7  17
HETATM   17  C           1     -22.411  -7.585  -0.323  0.00  0.00     0.196 C 
HETATM   18  O           1     -22.741  -6.591  -1.005  0.00  0.00    -0.646 OA
HETATM   19  O           1     -23.190  -8.036   0.544  0.00  0.00    -0.646 OA
ENDBRANCH   7  17
TORSDOF 6
ENDMDL
MODEL 8
REMARK VINA RESULT:      -4.6     12.009     13.387
REMARK  6 active torsions:
REMARK  status: ('A' for Active; 'I' for Inactive)
REMARK    1  A    between atoms: C_1  and  C_4 
REMARK    2  A    between atoms: C_1  and  C_9 
REMARK       I    between atoms: N_2  and  C_3 
REMARK    3  A    between atoms: C_3  and  C_4 
REMARK    4  A    between atoms: C_4  and  N_15 
REMARK    5  A    between atoms: C_9  and  S_14 
REMARK    6  A    between atoms: C_16  and  C_18 
ROOT
HETATM    1  N           1     -28.275  -5.918 -18.507  0.00  0.00    -0.336 N 
HETATM    2  C           1     -27.572  -6.086 -19.669  0.00  0.00     0.251 C 
HETATM    3  C           1     -29.674  -6.837 -16.863  0.00  0.00     0.022 C 
HETATM    4  C           1     -28.224  -6.753 -17.309  0.00  0.00     0.127 C 
HETATM    5  O           1     -27.722  -5.308 -20.582  0.00  0.00    -0.271 OA
HETATM    6  C           1     -30.344  -5.600 -17.450  0.00  0.00     0.038 C 
HETATM    7  C           1     -29.240  -4.868 -18.194  0.00  0.00     0.188 C 
ENDROOT
BRANCH   2   8
HETATM    8  C           1     -26.612  -7.240 -19.811  0.00  0.00     0.275 C 
BRANCH   8   9
HETATM    9  C           1     -25.305  -6.744 -20.416  0.00  0.00     0.053 C 
BRANCH   9  10
HETATM   10  C           1     -24.372  -7.924 -20.649  0.00  0.00     0.076 C 
BRANCH  10  11
HETATM   11  S           1     -23.809  -7.921 -22.375  0.00  0.00    -0.173 SA
HETATM   12  C           1     -22.229  -8.762 -22.072  0.00  0.00     0.089 C 
ENDBRANCH  10  11
ENDBRANCH   9  10
ENDBRANCH   8   9
BRANCH   8  13
HETATM   13  N           1     -27.213  -8.282 -20.707  0.00  0.00    -0.066 N 
HETATM   14  H           1     -27.255  -7.917 -21.686  0.00  0.00     0.275 HD
HETATM   15  H           1     -26.623  -9.144 -20.683  0.00  0.00     0.275 HD
HETATM   16  H           1     -28.178  -8.510 -20.379  0.00  0.00     0.275 HD
ENDBRANCH   8  13
ENDBRANCH   2   8
BRANCH   7  17
HETATM   17  C           1     -28.615  -3.808 -17.321  0.00  0.00     0.196 C 
HETATM   18  O           1     -29.110  -2.661 -17.278  0.00  0.00    -0.646 OA
HETATM   19  O           1     -27.602  -4.077 -16.639  0.00  0.00    -0.646 OA
ENDBRANCH   7  17
TORSDOF 6
ENDMDL
MODEL 9
REMARK VINA RESULT:      -4.6      6.540      9.024
REMARK  6 active torsions:
REMARK  status: ('A' for Active; 'I' for Inactive)
REMARK    1  A    between atoms: C_1  and  C_4 
REMARK    2  A    between atoms: C_1  and  C_9 
REMARK       I    between atoms: N_2  and  C_3 
REMARK    3  A    between atoms: C_3  and  C_4 
REMARK    4  A    between atoms: C_4  and  N_15 
REMARK    5  A    between atoms: C_9  and  S_14 
REMARK    6  A    between atoms: C_16  and  C_18 
ROOT
HETATM    1  N           1     -21.173  -9.211  -1.280  0.00  0.00    -0.336 N 
HETATM    2  C           1     -20.066  -9.784  -1.846  0.00  0.00     0.251 C 
HETATM    3  C           1     -22.197  -7.308  -0.367  0.00  0.00     0.022 C 
HETATM    4  C           1     -21.840  -7.976  -1.684  0.00  0.00     0.127 C 
HETATM    5  O           1     -19.624 -10.815  -1.398  0.00  0.00    -0.271 OA
HETATM    6  C           1     -22.259  -8.442   0.651  0.00  0.00     0.038 C 
HETATM    7  C           1     -21.943  -9.700  -0.140  0.00  0.00     0.188 C 
ENDROOT
BRANCH   2   8
HETATM    8  C           1     -19.399  -9.127  -3.029  0.00  0.00     0.275 C 
BRANCH   8   9
HETATM    9  C           1     -19.807  -9.848  -4.308  0.00  0.00     0.053 C 
BRANCH   9  10
HETATM   10  C           1     -20.912  -9.063  -5.003  0.00  0.00     0.076 C 
BRANCH  10  11
HETATM   11  S           1     -20.358  -7.358  -5.287  0.00  0.00    -0.173 SA
HETATM   12  C           1     -21.999  -6.592  -5.174  0.00  0.00     0.089 C 
ENDBRANCH  10  11
ENDBRANCH   9  10
ENDBRANCH   8   9
BRANCH   8  13
HETATM   13  N           1     -17.910  -9.204  -2.868  0.00  0.00    -0.066 N 
HETATM   14  H           1     -17.645 -10.150  -2.511  0.00  0.00     0.275 HD
HETATM   15  H           1     -17.451  -9.040  -3.792  0.00  0.00     0.275 HD
HETATM   16  H           1     -17.595  -8.476  -2.187  0.00  0.00     0.275 HD
ENDBRANCH   8  13
ENDBRANCH   2   8
BRANCH   7  17
HETATM   17  C           1     -23.209 -10.379  -0.599  0.00  0.00     0.196 C 
HETATM   18  O           1     -24.242 -10.315   0.102  0.00  0.00    -0.646 OA
HETATM   19  O           1     -23.226 -11.004  -1.681  0.00  0.00    -0.646 OA
ENDBRANCH   7  17
TORSDOF 6
ENDMDL
