MODEL 1
REMARK VINA RESULT:      -5.5      0.000      0.000
REMARK  9 active torsions:
REMARK  status: ('A' for Active; 'I' for Inactive)
REMARK    1  A    between atoms: N_1  and  C_12 
REMARK       I    between atoms: N_1  and  C_2 
REMARK    2  A    between atoms: C_2  and  C_3 
REMARK    3  A    between atoms: C_3  and  C_4 
REMARK    4  A    between atoms: C_3  and  N_13 
REMARK    5  A    between atoms: C_4  and  C_16 
REMARK    6  A    between atoms: C_5  and  C_12 
REMARK    7  A    between atoms: S_7  and  C_19 
REMARK    8  A    between atoms: C_12  and  C_14 
REMARK    9  A    between atoms: C_14  and  C_19 
ROOT
HETATM    1  N           1     -21.828  -6.092  -6.207  0.00  0.00    -0.345 N 
HETATM    2  C           1     -21.646  -4.928  -6.905  0.00  0.00     0.249 C 
HETATM    3  O           1     -20.814  -4.131  -6.543  0.00  0.00    -0.271 OA
HETATM    4  H           1     -22.525  -6.760  -6.510  0.00  0.00     0.163 HD
ENDROOT
BRANCH   2   5
HETATM    5  C           1     -22.486  -4.641  -8.126  0.00  0.00     0.275 C 
BRANCH   5   6
HETATM    6  C           1     -21.793  -3.590  -8.983  0.00  0.00     0.046 C 
BRANCH   6   7
HETATM    7  C           1     -21.378  -4.211 -10.312  0.00  0.00    -0.020 C 
HETATM    8  C           1     -21.383  -3.142 -11.396  0.00  0.00     0.009 C 
HETATM    9  C           1     -19.978  -4.795 -10.182  0.00  0.00     0.009 C 
ENDBRANCH   6   7
ENDBRANCH   5   6
BRANCH   5  10
HETATM   10  N           1     -23.830  -4.131  -7.699  0.00  0.00    -0.066 N 
HETATM   11  H           1     -24.009  -4.409  -6.707  0.00  0.00     0.275 HD
HETATM   12  H           1     -23.847  -3.089  -7.776  0.00  0.00     0.275 HD
HETATM   13  H           1     -24.569  -4.539  -8.314  0.00  0.00     0.275 HD
ENDBRANCH   5  10
ENDBRANCH   2   5
BRANCH   1  14
HETATM   14  C           1     -21.022  -6.368  -5.034  0.00  0.00     0.186 C 
BRANCH  14  15
HETATM   15  C           1     -20.068  -7.499  -5.335  0.00  0.00     0.196 C 
HETATM   16  O           1     -19.420  -7.501  -6.404  0.00  0.00    -0.646 OA
HETATM   17  O           1     -19.925  -8.430  -4.516  0.00  0.00    -0.646 OA
ENDBRANCH  14  15
BRANCH  14  18
HETATM   18  C           1     -21.929  -6.763  -3.876  0.00  0.00     0.046 C 
BRANCH  18  19
HETATM   19  C           1     -21.470  -6.057  -2.608  0.00  0.00     0.076 C 
BRANCH  19  20
HETATM   20  S           1     -22.266  -6.820  -1.167  0.00  0.00    -0.173 SA
HETATM   21  C           1     -21.632  -8.497  -1.454  0.00  0.00     0.089 C 
ENDBRANCH  19  20
ENDBRANCH  18  19
ENDBRANCH  14  18
ENDBRANCH   1  14
TORSDOF 9
ENDMDL
MODEL 2
REMARK VINA RESULT:      -5.5      2.928      6.720
REMARK  9 active torsions:
REMARK  status: ('A' for Active; 'I' for Inactive)
REMARK    1  A    between atoms: N_1  and  C_12 
REMARK       I    between atoms: N_1  and  C_2 
REMARK    2  A    between atoms: C_2  and  C_3 
REMARK    3  A    between atoms: C_3  and  C_4 
REMARK    4  A    between atoms: C_3  and  N_13 
REMARK    5  A    between atoms: C_4  and  C_16 
REMARK    6  A    between atoms: C_5  and  C_12 
REMARK    7  A    between atoms: S_7  and  C_19 
REMARK    8  A    between atoms: C_12  and  C_14 
REMARK    9  A    between atoms: C_14  and  C_19 
ROOT
HETATM    1  N           1     -21.075  -5.363  -5.141  0.00  0.00    -0.345 N 
HETATM    2  C           1     -21.493  -6.389  -4.336  0.00  0.00     0.249 C 
HETATM    3  O           1     -22.054  -7.343  -4.817  0.00  0.00    -0.271 OA
HETATM    4  H           1     -20.603  -4.564  -4.738  0.00  0.00     0.163 HD
ENDROOT
BRANCH   2   5
HETATM    5  C           1     -21.251  -6.326  -2.847  0.00  0.00     0.275 C 
BRANCH   5   6
HETATM    6  C           1     -20.795  -7.691  -2.349  0.00  0.00     0.046 C 
BRANCH   6   7
HETATM    7  C           1     -21.817  -8.239  -1.361  0.00  0.00    -0.020 C 
HETATM    8  C           1     -22.160  -9.677  -1.730  0.00  0.00     0.009 C 
HETATM    9  C           1     -21.232  -8.203   0.044  0.00  0.00     0.009 C 
ENDBRANCH   6   7
ENDBRANCH   5   6
BRANCH   5  10
HETATM   10  N           1     -22.522  -5.940  -2.152  0.00  0.00    -0.066 N 
HETATM   11  H           1     -22.959  -6.789  -1.726  0.00  0.00     0.275 HD
HETATM   12  H           1     -22.311  -5.245  -1.401  0.00  0.00     0.275 HD
HETATM   13  H           1     -23.182  -5.518  -2.842  0.00  0.00     0.275 HD
ENDBRANCH   5  10
ENDBRANCH   2   5
BRANCH   1  14
HETATM   14  C           1     -21.306  -5.423  -6.571  0.00  0.00     0.186 C 
BRANCH  14  15
HETATM   15  C           1     -20.009  -5.735  -7.277  0.00  0.00     0.196 C 
HETATM   16  O           1     -19.499  -4.894  -8.049  0.00  0.00    -0.646 OA
HETATM   17  O           1     -19.444  -6.833  -7.088  0.00  0.00    -0.646 OA
ENDBRANCH  14  15
BRANCH  14  18
HETATM   18  C           1     -21.837  -4.080  -7.055  0.00  0.00     0.046 C 
BRANCH  18  19
HETATM   19  C           1     -23.039  -4.308  -7.963  0.00  0.00     0.076 C 
BRANCH  19  20
HETATM   20  S           1     -22.622  -3.803  -9.656  0.00  0.00    -0.173 SA
HETATM   21  C           1     -23.784  -4.923 -10.489  0.00  0.00     0.089 C 
ENDBRANCH  19  20
ENDBRANCH  18  19
ENDBRANCH  14  18
ENDBRANCH   1  14
TORSDOF 9
ENDMDL
MODEL 3
REMARK VINA RESULT:      -5.2      1.577      1.994
REMARK  9 active torsions:
REMARK  status: ('A' for Active; 'I' for Inactive)
REMARK    1  A    between atoms: N_1  and  C_12 
REMARK       I    between atoms: N_1  and  C_2 
REMARK    2  A    between atoms: C_2  and  C_3 
REMARK    3  A    between atoms: C_3  and  C_4 
REMARK    4  A    between atoms: C_3  and  N_13 
REMARK    5  A    between atoms: C_4  and  C_16 
REMARK    6  A    between atoms: C_5  and  C_12 
REMARK    7  A    between atoms: S_7  and  C_19 
REMARK    8  A    between atoms: C_12  and  C_14 
REMARK    9  A    between atoms: C_14  and  C_19 
ROOT
HETATM    1  N           1     -20.804  -6.303  -6.130  0.00  0.00    -0.345 N 
HETATM    2  C           1     -20.477  -4.974  -6.172  0.00  0.00     0.249 C 
HETATM    3  O           1     -20.070  -4.420  -5.180  0.00  0.00    -0.271 OA
HETATM    4  H           1     -21.145  -6.767  -6.962  0.00  0.00     0.163 HD
ENDROOT
BRANCH   2   5
HETATM    5  C           1     -20.624  -4.202  -7.461  0.00  0.00     0.275 C 
BRANCH   5   6
HETATM    6  C           1     -21.632  -4.904  -8.362  0.00  0.00     0.046 C 
BRANCH   6   7
HETATM    7  C           1     -22.232  -3.897  -9.335  0.00  0.00    -0.020 C 
HETATM    8  C           1     -21.919  -4.321 -10.764  0.00  0.00     0.009 C 
HETATM    9  C           1     -23.742  -3.845  -9.142  0.00  0.00     0.009 C 
ENDBRANCH   6   7
ENDBRANCH   5   6
BRANCH   5  10
HETATM   10  N           1     -19.296  -4.133  -8.156  0.00  0.00    -0.066 N 
HETATM   11  H           1     -18.747  -3.327  -7.780  0.00  0.00     0.275 HD
HETATM   12  H           1     -18.770  -5.020  -7.989  0.00  0.00     0.275 HD
HETATM   13  H           1     -19.446  -4.005  -9.181  0.00  0.00     0.275 HD
ENDBRANCH   5  10
ENDBRANCH   2   5
BRANCH   1  14
HETATM   14  C           1     -20.663  -7.045  -4.892  0.00  0.00     0.186 C 
BRANCH  14  15
HETATM   15  C           1     -20.246  -8.462  -5.202  0.00  0.00     0.196 C 
HETATM   16  O           1     -19.128  -8.880  -4.831  0.00  0.00    -0.646 OA
HETATM   17  O           1     -21.019  -9.218  -5.827  0.00  0.00    -0.646 OA
ENDBRANCH  14  15
BRANCH  14  18
HETATM   18  C           1     -21.994  -7.057  -4.153  0.00  0.00     0.046 C 
BRANCH  18  19
HETATM   19  C           1     -21.820  -6.414  -2.783  0.00  0.00     0.076 C 
BRANCH  19  20
HETATM   20  S           1     -21.191  -7.647  -1.610  0.00  0.00    -0.173 SA
HETATM   21  C           1     -22.515  -7.451  -0.385  0.00  0.00     0.089 C 
ENDBRANCH  19  20
ENDBRANCH  18  19
ENDBRANCH  14  18
ENDBRANCH   1  14
TORSDOF 9
ENDMDL
MODEL 4
REMARK VINA RESULT:      -5.2      2.783      6.620
REMARK  9 active torsions:
REMARK  status: ('A' for Active; 'I' for Inactive)
REMARK    1  A    between atoms: N_1  and  C_12 
REMARK       I    between atoms: N_1  and  C_2 
REMARK    2  A    between atoms: C_2  and  C_3 
REMARK    3  A    between atoms: C_3  and  C_4 
REMARK    4  A    between atoms: C_3  and  N_13 
REMARK    5  A    between atoms: C_4  and  C_16 
REMARK    6  A    between atoms: C_5  and  C_12 
REMARK    7  A    between atoms: S_7  and  C_19 
REMARK    8  A    between atoms: C_12  and  C_14 
REMARK    9  A    between atoms: C_14  and  C_19 
ROOT
HETATM    1  N           1     -21.763  -6.421  -5.660  0.00  0.00    -0.345 N 
HETATM    2  C           1     -21.107  -7.587  -5.370  0.00  0.00     0.249 C 
HETATM    3  O           1     -20.159  -7.928  -6.036  0.00  0.00    -0.271 OA
HETATM    4  H           1     -22.557  -6.135  -5.101  0.00  0.00     0.163 HD
ENDROOT
BRANCH   2   5
HETATM    5  C           1     -21.569  -8.447  -4.219  0.00  0.00     0.275 C 
BRANCH   5   6
HETATM    6  C           1     -20.820  -8.047  -2.954  0.00  0.00     0.046 C 
BRANCH   6   7
HETATM    7  C           1     -21.821  -7.714  -1.855  0.00  0.00    -0.020 C 
HETATM    8  C           1     -21.221  -8.063  -0.499  0.00  0.00     0.009 C 
HETATM    9  C           1     -22.143  -6.226  -1.898  0.00  0.00     0.009 C 
ENDBRANCH   6   7
ENDBRANCH   5   6
BRANCH   5  10
HETATM   10  N           1     -21.292  -9.888  -4.529  0.00  0.00    -0.066 N 
HETATM   11  H           1     -21.880 -10.496  -3.915  0.00  0.00     0.275 HD
HETATM   12  H           1     -21.522 -10.079  -5.530  0.00  0.00     0.275 HD
HETATM   13  H           1     -20.282 -10.093  -4.358  0.00  0.00     0.275 HD
ENDBRANCH   5  10
ENDBRANCH   2   5
BRANCH   1  14
HETATM   14  C           1     -21.319  -5.594  -6.765  0.00  0.00     0.186 C 
BRANCH  14  15
HETATM   15  C           1     -20.080  -4.834  -6.358  0.00  0.00     0.196 C 
HETATM   16  O           1     -20.013  -4.308  -5.226  0.00  0.00    -0.646 OA
HETATM   17  O           1     -19.121  -4.733  -7.153  0.00  0.00    -0.646 OA
ENDBRANCH  14  15
BRANCH  14  18
HETATM   18  C           1     -22.420  -4.610  -7.136  0.00  0.00     0.046 C 
BRANCH  18  19
HETATM   19  C           1     -22.048  -3.894  -8.428  0.00  0.00     0.076 C 
BRANCH  19  20
HETATM   20  S           1     -23.035  -4.562  -9.796  0.00  0.00    -0.173 SA
HETATM   21  C           1     -24.425  -3.408  -9.620  0.00  0.00     0.089 C 
ENDBRANCH  19  20
ENDBRANCH  18  19
ENDBRANCH  14  18
ENDBRANCH   1  14
TORSDOF 9
ENDMDL
MODEL 5
REMARK VINA RESULT:      -5.2      2.477      3.180
REMARK  9 active torsions:
REMARK  status: ('A' for Active; 'I' for Inactive)
REMARK    1  A    between atoms: N_1  and  C_12 
REMARK       I    between atoms: N_1  and  C_2 
REMARK    2  A    between atoms: C_2  and  C_3 
REMARK    3  A    between atoms: C_3  and  C_4 
REMARK    4  A    between atoms: C_3  and  N_13 
REMARK    5  A    between atoms: C_4  and  C_16 
REMARK    6  A    between atoms: C_5  and  C_12 
REMARK    7  A    between atoms: S_7  and  C_19 
REMARK    8  A    between atoms: C_12  and  C_14 
REMARK    9  A    between atoms: C_14  and  C_19 
ROOT
HETATM    1  N           1     -20.980  -6.550  -4.740  0.00  0.00    -0.345 N 
HETATM    2  C           1     -21.733  -5.759  -5.566  0.00  0.00     0.249 C 
HETATM    3  O           1     -22.938  -5.827  -5.534  0.00  0.00    -0.271 OA
HETATM    4  H           1     -19.970  -6.492  -4.766  0.00  0.00     0.163 HD
ENDROOT
BRANCH   2   5
HETATM    5  C           1     -21.056  -4.801  -6.516  0.00  0.00     0.275 C 
BRANCH   5   6
HETATM    6  C           1     -21.242  -5.288  -7.947  0.00  0.00     0.046 C 
BRANCH   6   7
HETATM    7  C           1     -21.423  -4.091  -8.872  0.00  0.00    -0.020 C 
HETATM    8  C           1     -20.483  -4.223 -10.064  0.00  0.00     0.009 C 
HETATM    9  C           1     -22.862  -4.045  -9.364  0.00  0.00     0.009 C 
ENDBRANCH   6   7
ENDBRANCH   5   6
BRANCH   5  10
HETATM   10  N           1     -19.592  -4.734  -6.197  0.00  0.00    -0.066 N 
HETATM   11  H           1     -19.163  -3.924  -6.699  0.00  0.00     0.275 HD
HETATM   12  H           1     -19.466  -4.610  -5.167  0.00  0.00     0.275 HD
HETATM   13  H           1     -19.128  -5.618  -6.501  0.00  0.00     0.275 HD
ENDBRANCH   5  10
ENDBRANCH   2   5
BRANCH   1  14
HETATM   14  C           1     -21.630  -7.470  -3.827  0.00  0.00     0.186 C 
BRANCH  14  15
HETATM   15  C           1     -21.604  -6.895  -2.431  0.00  0.00     0.196 C 
HETATM   16  O           1     -22.292  -5.888  -2.158  0.00  0.00    -0.646 OA
HETATM   17  O           1     -20.896  -7.427  -1.550  0.00  0.00    -0.646 OA
ENDBRANCH  14  15
BRANCH  14  18
HETATM   18  C           1     -20.894  -8.803  -3.841  0.00  0.00     0.046 C 
BRANCH  18  19
HETATM   19  C           1     -19.576  -8.648  -4.589  0.00  0.00     0.076 C 
BRANCH  19  20
HETATM   20  S           1     -18.249  -9.459  -3.654  0.00  0.00    -0.173 SA
HETATM   21  C           1     -19.333 -10.463  -2.600  0.00  0.00     0.089 C 
ENDBRANCH  19  20
ENDBRANCH  18  19
ENDBRANCH  14  18
ENDBRANCH   1  14
TORSDOF 9
ENDMDL
MODEL 6
REMARK VINA RESULT:      -5.2      3.029      4.507
REMARK  9 active torsions:
REMARK  status: ('A' for Active; 'I' for Inactive)
REMARK    1  A    between atoms: N_1  and  C_12 
REMARK       I    between atoms: N_1  and  C_2 
REMARK    2  A    between atoms: C_2  and  C_3 
REMARK    3  A    between atoms: C_3  and  C_4 
REMARK    4  A    between atoms: C_3  and  N_13 
REMARK    5  A    between atoms: C_4  and  C_16 
REMARK    6  A    between atoms: C_5  and  C_12 
REMARK    7  A    between atoms: S_7  and  C_19 
REMARK    8  A    between atoms: C_12  and  C_14 
REMARK    9  A    between atoms: C_14  and  C_19 
ROOT
HETATM    1  N           1     -20.745  -7.486  -2.965  0.00  0.00    -0.345 N 
HETATM    2  C           1     -21.017  -7.686  -4.292  0.00  0.00     0.249 C 
HETATM    3  O           1     -21.991  -8.319  -4.619  0.00  0.00    -0.271 OA
HETATM    4  H           1     -19.929  -6.954  -2.690  0.00  0.00     0.163 HD
ENDROOT
BRANCH   2   5
HETATM    5  C           1     -20.100  -7.113  -5.345  0.00  0.00     0.275 C 
BRANCH   5   6
HETATM    6  C           1     -20.929  -6.408  -6.411  0.00  0.00     0.046 C 
BRANCH   6   7
HETATM    7  C           1     -20.569  -4.928  -6.439  0.00  0.00    -0.020 C 
HETATM    8  C           1     -19.263  -4.736  -7.198  0.00  0.00     0.009 C 
HETATM    9  C           1     -21.678  -4.150  -7.134  0.00  0.00     0.009 C 
ENDBRANCH   6   7
ENDBRANCH   5   6
BRANCH   5  10
HETATM   10  N           1     -19.311  -8.221  -5.976  0.00  0.00    -0.066 N 
HETATM   11  H           1     -18.303  -7.948  -6.023  0.00  0.00     0.275 HD
HETATM   12  H           1     -19.410  -9.088  -5.402  0.00  0.00     0.275 HD
HETATM   13  H           1     -19.669  -8.398  -6.940  0.00  0.00     0.275 HD
ENDBRANCH   5  10
ENDBRANCH   2   5
BRANCH   1  14
HETATM   14  C           1     -21.625  -8.036  -1.953  0.00  0.00     0.186 C 
BRANCH  14  15
HETATM   15  C           1     -22.385  -6.915  -1.285  0.00  0.00     0.196 C 
HETATM   16  O           1     -22.977  -7.119  -0.204  0.00  0.00    -0.646 OA
HETATM   17  O           1     -22.420  -5.784  -1.814  0.00  0.00    -0.646 OA
ENDBRANCH  14  15
BRANCH  14  18
HETATM   18  C           1     -20.800  -8.780  -0.912  0.00  0.00     0.046 C 
BRANCH  18  19
HETATM   19  C           1     -20.948 -10.281  -1.125  0.00  0.00     0.076 C 
BRANCH  19  20
HETATM   20  S           1     -22.576 -10.633  -1.846  0.00  0.00    -0.173 SA
HETATM   21  C           1     -23.476 -10.719  -0.273  0.00  0.00     0.089 C 
ENDBRANCH  19  20
ENDBRANCH  18  19
ENDBRANCH  14  18
ENDBRANCH   1  14
TORSDOF 9
ENDMDL
MODEL 7
REMARK VINA RESULT:      -5.0      2.134      3.054
REMARK  9 active torsions:
REMARK  status: ('A' for Active; 'I' for Inactive)
REMARK    1  A    between atoms: N_1  and  C_12 
REMARK       I    between atoms: N_1  and  C_2 
REMARK    2  A    between atoms: C_2  and  C_3 
REMARK    3  A    between atoms: C_3  and  C_4 
REMARK    4  A    between atoms: C_3  and  N_13 
REMARK    5  A    between atoms: C_4  and  C_16 
REMARK    6  A    between atoms: C_5  and  C_12 
REMARK    7  A    between atoms: S_7  and  C_19 
REMARK    8  A    between atoms: C_12  and  C_14 
REMARK    9  A    between atoms: C_14  and  C_19 
ROOT
HETATM    1  N           1     -20.818  -7.926  -4.757  0.00  0.00    -0.345 N 
HETATM    2  C           1     -20.577  -7.083  -5.809  0.00  0.00     0.249 C 
HETATM    3  O           1     -19.616  -7.260  -6.518  0.00  0.00    -0.271 OA
HETATM    4  H           1     -21.624  -7.778  -4.164  0.00  0.00     0.163 HD
ENDROOT
BRANCH   2   5
HETATM    5  C           1     -21.515  -5.932  -6.082  0.00  0.00     0.275 C 
BRANCH   5   6
HETATM    6  C           1     -20.757  -4.617  -5.945  0.00  0.00     0.046 C 
BRANCH   6   7
HETATM    7  C           1     -20.842  -3.843  -7.255  0.00  0.00    -0.020 C 
HETATM    8  C           1     -19.604  -4.131  -8.096  0.00  0.00     0.009 C 
HETATM    9  C           1     -22.085  -4.277  -8.020  0.00  0.00     0.009 C 
ENDBRANCH   6   7
ENDBRANCH   5   6
BRANCH   5  10
HETATM   10  N           1     -22.643  -5.963  -5.095  0.00  0.00    -0.066 N 
HETATM   11  H           1     -23.123  -6.890  -5.144  0.00  0.00     0.275 HD
HETATM   12  H           1     -22.268  -5.816  -4.132  0.00  0.00     0.275 HD
HETATM   13  H           1     -23.326  -5.206  -5.323  0.00  0.00     0.275 HD
ENDBRANCH   5  10
ENDBRANCH   2   5
BRANCH   1  14
HETATM   14  C           1     -19.919  -9.033  -4.494  0.00  0.00     0.186 C 
BRANCH  14  15
HETATM   15  C           1     -20.562 -10.321  -4.947  0.00  0.00     0.196 C 
HETATM   16  O           1     -20.935 -11.163  -4.102  0.00  0.00    -0.646 OA
HETATM   17  O           1     -20.722 -10.545  -6.165  0.00  0.00    -0.646 OA
ENDBRANCH  14  15
BRANCH  14  18
HETATM   18  C           1     -19.628  -9.107  -3.002  0.00  0.00     0.046 C 
BRANCH  18  19
HETATM   19  C           1     -20.475  -8.075  -2.268  0.00  0.00     0.076 C 
BRANCH  19  20
HETATM   20  S           1     -21.642  -8.923  -1.166  0.00  0.00    -0.173 SA
HETATM   21  C           1     -22.410  -7.421  -0.497  0.00  0.00     0.089 C 
ENDBRANCH  19  20
ENDBRANCH  18  19
ENDBRANCH  14  18
ENDBRANCH   1  14
TORSDOF 9
ENDMDL
MODEL 8
REMARK VINA RESULT:      -5.0      2.511      3.274
REMARK  9 active torsions:
REMARK  status: ('A' for Active; 'I' for Inactive)
REMARK    1  A    between atoms: N_1  and  C_12 
REMARK       I    between atoms: N_1  and  C_2 
REMARK    2  A    between atoms: C_2  and  C_3 
REMARK    3  A    between atoms: C_3  and  C_4 
REMARK    4  A    between atoms: C_3  and  N_13 
REMARK    5  A    between atoms: C_4  and  C_16 
REMARK    6  A    between atoms: C_5  and  C_12 
REMARK    7  A    between atoms: S_7  and  C_19 
REMARK    8  A    between atoms: C_12  and  C_14 
REMARK    9  A    between atoms: C_14  and  C_19 
ROOT
HETATM    1  N           1     -20.962  -6.548  -4.309  0.00  0.00    -0.345 N 
HETATM    2  C           1     -21.782  -5.958  -5.234  0.00  0.00     0.249 C 
HETATM    3  O           1     -22.950  -6.258  -5.284  0.00  0.00    -0.271 OA
HETATM    4  H           1     -19.983  -6.296  -4.267  0.00  0.00     0.163 HD
ENDROOT
BRANCH   2   5
HETATM    5  C           1     -21.225  -4.932  -6.190  0.00  0.00     0.275 C 
BRANCH   5   6
HETATM    6  C           1     -21.268  -5.484  -7.609  0.00  0.00     0.046 C 
BRANCH   6   7
HETATM    7  C           1     -21.320  -4.329  -8.602  0.00  0.00    -0.020 C 
HETATM    8  C           1     -20.303  -4.568  -9.712  0.00  0.00     0.009 C 
HETATM    9  C           1     -22.715  -4.241  -9.204  0.00  0.00     0.009 C 
ENDBRANCH   6   7
ENDBRANCH   5   6
BRANCH   5  10
HETATM   10  N           1     -19.805  -4.623  -5.818  0.00  0.00    -0.066 N 
HETATM   11  H           1     -19.727  -4.540  -4.779  0.00  0.00     0.275 HD
HETATM   12  H           1     -19.182  -5.391  -6.153  0.00  0.00     0.275 HD
HETATM   13  H           1     -19.517  -3.722  -6.262  0.00  0.00     0.275 HD
ENDBRANCH   5  10
ENDBRANCH   2   5
BRANCH   1  14
HETATM   14  C           1     -21.497  -7.533  -3.389  0.00  0.00     0.186 C 
BRANCH  14  15
HETATM   15  C           1     -21.726  -6.891  -2.043  0.00  0.00     0.196 C 
HETATM   16  O           1     -22.214  -5.742  -1.973  0.00  0.00    -0.646 OA
HETATM   17  O           1     -21.429  -7.508  -0.998  0.00  0.00    -0.646 OA
ENDBRANCH  14  15
BRANCH  14  18
HETATM   18  C           1     -20.507  -8.681  -3.244  0.00  0.00     0.046 C 
BRANCH  18  19
HETATM   19  C           1     -21.204  -9.996  -3.564  0.00  0.00     0.076 C 
BRANCH  19  20
HETATM   20  S           1     -21.178 -11.068  -2.099  0.00  0.00    -0.173 SA
HETATM   21  C           1     -22.927 -10.852  -1.664  0.00  0.00     0.089 C 
ENDBRANCH  19  20
ENDBRANCH  18  19
ENDBRANCH  14  18
ENDBRANCH   1  14
TORSDOF 9
ENDMDL
MODEL 9
REMARK VINA RESULT:      -4.9      3.913      7.040
REMARK  9 active torsions:
REMARK  status: ('A' for Active; 'I' for Inactive)
REMARK    1  A    between atoms: N_1  and  C_12 
REMARK       I    between atoms: N_1  and  C_2 
REMARK    2  A    between atoms: C_2  and  C_3 
REMARK    3  A    between atoms: C_3  and  C_4 
REMARK    4  A    between atoms: C_3  and  N_13 
REMARK    5  A    between atoms: C_4  and  C_16 
REMARK    6  A    between atoms: C_5  and  C_12 
REMARK    7  A    between atoms: S_7  and  C_19 
REMARK    8  A    between atoms: C_12  and  C_14 
REMARK    9  A    between atoms: C_14  and  C_19 
ROOT
HETATM    1  N           1     -20.482  -8.988  -3.408  0.00  0.00    -0.345 N 
HETATM    2  C           1     -21.539  -9.679  -2.878  0.00  0.00     0.249 C 
HETATM    3  O           1     -22.311 -10.252  -3.608  0.00  0.00    -0.271 OA
HETATM    4  H           1     -19.834  -8.508  -2.797  0.00  0.00     0.163 HD
ENDROOT
BRANCH   2   5
HETATM    5  C           1     -21.738  -9.723  -1.383  0.00  0.00     0.275 C 
BRANCH   5   6
HETATM    6  C           1     -20.961  -8.585  -0.733  0.00  0.00     0.046 C 
BRANCH   6   7
HETATM    7  C           1     -21.937  -7.537  -0.213  0.00  0.00    -0.020 C 
HETATM    8  C           1     -22.329  -6.600  -1.348  0.00  0.00     0.009 C 
HETATM    9  C           1     -23.182  -8.227   0.327  0.00  0.00     0.009 C 
ENDBRANCH   6   7
ENDBRANCH   5   6
BRANCH   5  10
HETATM   10  N           1     -21.239 -11.034  -0.852  0.00  0.00    -0.066 N 
HETATM   11  H           1     -20.733 -10.876   0.049  0.00  0.00     0.275 HD
HETATM   12  H           1     -22.049 -11.674  -0.688  0.00  0.00     0.275 HD
HETATM   13  H           1     -20.589 -11.466  -1.546  0.00  0.00     0.275 HD
ENDBRANCH   5  10
ENDBRANCH   2   5
BRANCH   1  14
HETATM   14  C           1     -20.290  -8.945  -4.844  0.00  0.00     0.186 C 
BRANCH  14  15
HETATM   15  C           1     -18.998  -9.641  -5.199  0.00  0.00     0.196 C 
HETATM   16  O           1     -18.633 -10.649  -4.555  0.00  0.00    -0.646 OA
HETATM   17  O           1     -18.294  -9.210  -6.137  0.00  0.00    -0.646 OA
ENDBRANCH  14  15
BRANCH  14  18
HETATM   18  C           1     -20.229  -7.495  -5.305  0.00  0.00     0.046 C 
BRANCH  18  19
HETATM   19  C           1     -21.640  -6.925  -5.373  0.00  0.00     0.076 C 
BRANCH  19  20
HETATM   20  S           1     -21.637  -5.419  -6.387  0.00  0.00    -0.173 SA
HETATM   21  C           1     -20.112  -4.717  -5.695  0.00  0.00     0.089 C 
ENDBRANCH  19  20
ENDBRANCH  18  19
ENDBRANCH  14  18
ENDBRANCH   1  14
TORSDOF 9
ENDMDL
