MODEL 1
REMARK VINA RESULT:      -5.2      0.000      0.000
REMARK  4 active torsions:
REMARK  status: ('A' for Active; 'I' for Inactive)
REMARK    1  A    between atoms: C_1  and  C_8 
REMARK    2  A    between atoms: C_1  and  N_3 
REMARK    3  A    between atoms: N_7  and  C_12 
REMARK       I    between atoms: N_7  and  C_8 
REMARK    4  A    between atoms: C_11  and  C_12 
ROOT
HETATM    1  O           1     -21.549  -3.238  -7.297  0.00  0.00    -0.271 OA
HETATM    2  N           1     -21.870  -4.701  -8.953  0.00  0.00    -0.345 N 
HETATM    3  C           1     -21.495  -4.383  -7.675  0.00  0.00     0.248 C 
HETATM    4  H           1     -21.825  -5.660  -9.271  0.00  0.00     0.163 HD
ENDROOT
BRANCH   3   5
HETATM    5  C           1     -21.013  -5.466  -6.740  0.00  0.00     0.270 C 
HETATM    6  C           1     -20.403  -4.830  -5.498  0.00  0.00     0.050 C 
BRANCH   5   7
HETATM    7  N           1     -19.976  -6.299  -7.434  0.00  0.00    -0.067 N 
HETATM    8  H           1     -20.305  -7.290  -7.488  0.00  0.00     0.275 HD
HETATM    9  H           1     -19.823  -5.931  -8.400  0.00  0.00     0.275 HD
HETATM   10  H           1     -19.080  -6.258  -6.898  0.00  0.00     0.275 HD
ENDBRANCH   5   7
ENDBRANCH   3   5
BRANCH   2  11
HETATM   11  C           1     -22.333  -3.661  -9.852  0.00  0.00     0.181 C 
HETATM   12  C           1     -21.432  -3.613 -11.079  0.00  0.00     0.043 C 
BRANCH  11  13
HETATM   13  C           1     -23.749  -3.960 -10.278  0.00  0.00     0.196 C 
HETATM   14  O           1     -24.170  -5.137 -10.269  0.00  0.00    -0.646 OA
HETATM   15  O           1     -24.503  -3.030 -10.641  0.00  0.00    -0.646 OA
ENDBRANCH  11  13
ENDBRANCH   2  11
TORSDOF 4
ENDMDL
MODEL 2
REMARK VINA RESULT:      -5.0     10.182     11.401
REMARK  4 active torsions:
REMARK  status: ('A' for Active; 'I' for Inactive)
REMARK    1  A    between atoms: C_1  and  C_8 
REMARK    2  A    between atoms: C_1  and  N_3 
REMARK    3  A    between atoms: N_7  and  C_12 
REMARK       I    between atoms: N_7  and  C_8 
REMARK    4  A    between atoms: C_11  and  C_12 
ROOT
HETATM    1  O           1     -27.161  -6.461 -20.004  0.00  0.00    -0.271 OA
HETATM    2  N           1     -26.658  -6.445 -17.828  0.00  0.00    -0.345 N 
HETATM    3  C           1     -26.315  -6.564 -19.148  0.00  0.00     0.248 C 
HETATM    4  H           1     -25.949  -6.531 -17.111  0.00  0.00     0.163 HD
ENDROOT
BRANCH   3   5
HETATM    5  C           1     -24.880  -6.825 -19.534  0.00  0.00     0.270 C 
HETATM    6  C           1     -24.839  -7.744 -20.748  0.00  0.00     0.050 C 
BRANCH   5   7
HETATM    7  N           1     -24.166  -7.479 -18.388  0.00  0.00    -0.067 N 
HETATM    8  H           1     -24.758  -8.250 -18.003  0.00  0.00     0.275 HD
HETATM    9  H           1     -23.258  -7.873 -18.723  0.00  0.00     0.275 HD
HETATM   10  H           1     -23.986  -6.772 -17.640  0.00  0.00     0.275 HD
ENDBRANCH   5   7
ENDBRANCH   3   5
BRANCH   2  11
HETATM   11  C           1     -28.038  -6.194 -17.457  0.00  0.00     0.181 C 
HETATM   12  C           1     -28.337  -6.873 -16.127  0.00  0.00     0.043 C 
BRANCH  11  13
HETATM   13  C           1     -28.260  -4.708 -17.326  0.00  0.00     0.196 C 
HETATM   14  O           1     -29.062  -4.125 -18.088  0.00  0.00    -0.646 OA
HETATM   15  O           1     -27.642  -4.058 -16.454  0.00  0.00    -0.646 OA
ENDBRANCH  11  13
ENDBRANCH   2  11
TORSDOF 4
ENDMDL
MODEL 3
REMARK VINA RESULT:      -5.0      9.764     11.745
REMARK  4 active torsions:
REMARK  status: ('A' for Active; 'I' for Inactive)
REMARK    1  A    between atoms: C_1  and  C_8 
REMARK    2  A    between atoms: C_1  and  N_3 
REMARK    3  A    between atoms: N_7  and  C_12 
REMARK       I    between atoms: N_7  and  C_8 
REMARK    4  A    between atoms: C_11  and  C_12 
ROOT
HETATM    1  O           1     -30.619  -6.474 -17.152  0.00  0.00    -0.271 OA
HETATM    2  N           1     -28.769  -5.223 -17.146  0.00  0.00    -0.345 N 
HETATM    3  C           1     -30.127  -5.375 -17.063  0.00  0.00     0.248 C 
HETATM    4  H           1     -28.356  -4.302 -17.072  0.00  0.00     0.163 HD
ENDROOT
BRANCH   3   5
HETATM    5  C           1     -31.009  -4.167 -16.861  0.00  0.00     0.270 C 
HETATM    6  C           1     -32.468  -4.602 -16.834  0.00  0.00     0.050 C 
BRANCH   5   7
HETATM    7  N           1     -30.798  -3.201 -17.989  0.00  0.00    -0.067 N 
HETATM    8  H           1     -31.687  -2.684 -18.176  0.00  0.00     0.275 HD
HETATM    9  H           1     -30.049  -2.520 -17.729  0.00  0.00     0.275 HD
HETATM   10  H           1     -30.511  -3.724 -18.847  0.00  0.00     0.275 HD
ENDBRANCH   5   7
ENDBRANCH   3   5
BRANCH   2  11
HETATM   11  C           1     -27.920  -6.384 -17.340  0.00  0.00     0.181 C 
HETATM   12  C           1     -27.290  -6.326 -18.725  0.00  0.00     0.043 C 
BRANCH  11  13
HETATM   13  C           1     -26.835  -6.393 -16.292  0.00  0.00     0.196 C 
HETATM   14  O           1     -26.009  -5.456 -16.240  0.00  0.00    -0.646 OA
HETATM   15  O           1     -26.761  -7.337 -15.476  0.00  0.00    -0.646 OA
ENDBRANCH  11  13
ENDBRANCH   2  11
TORSDOF 4
ENDMDL
MODEL 4
REMARK VINA RESULT:      -4.7      1.174      1.334
REMARK  4 active torsions:
REMARK  status: ('A' for Active; 'I' for Inactive)
REMARK    1  A    between atoms: C_1  and  C_8 
REMARK    2  A    between atoms: C_1  and  N_3 
REMARK    3  A    between atoms: N_7  and  C_12 
REMARK       I    between atoms: N_7  and  C_8 
REMARK    4  A    between atoms: C_11  and  C_12 
ROOT
HETATM    1  O           1     -20.850  -3.971  -6.629  0.00  0.00    -0.271 OA
HETATM    2  N           1     -21.557  -5.148  -8.389  0.00  0.00    -0.345 N 
HETATM    3  C           1     -21.171  -5.044  -7.080  0.00  0.00     0.248 C 
HETATM    4  H           1     -21.825  -6.048  -8.768  0.00  0.00     0.163 HD
ENDROOT
BRANCH   3   5
HETATM    5  C           1     -21.144  -6.271  -6.202  0.00  0.00     0.270 C 
HETATM    6  C           1     -21.159  -5.848  -4.739  0.00  0.00     0.050 C 
BRANCH   5   7
HETATM    7  N           1     -19.899  -7.058  -6.481  0.00  0.00    -0.067 N 
HETATM    8  H           1     -20.158  -8.001  -6.851  0.00  0.00     0.275 HD
HETATM    9  H           1     -19.320  -6.555  -7.191  0.00  0.00     0.275 HD
HETATM   10  H           1     -19.350  -7.169  -5.599  0.00  0.00     0.275 HD
ENDBRANCH   5   7
ENDBRANCH   3   5
BRANCH   2  11
HETATM   11  C           1     -21.582  -3.969  -9.234  0.00  0.00     0.181 C 
HETATM   12  C           1     -20.700  -4.201 -10.454  0.00  0.00     0.043 C 
BRANCH  11  13
HETATM   13  C           1     -22.999  -3.702  -9.680  0.00  0.00     0.196 C 
HETATM   14  O           1     -23.224  -3.312 -10.846  0.00  0.00    -0.646 OA
HETATM   15  O           1     -23.947  -3.870  -8.883  0.00  0.00    -0.646 OA
ENDBRANCH  11  13
ENDBRANCH   2  11
TORSDOF 4
ENDMDL
MODEL 5
REMARK VINA RESULT:      -4.7      1.733      2.082
REMARK  4 active torsions:
REMARK  status: ('A' for Active; 'I' for Inactive)
REMARK    1  A    between atoms: C_1  and  C_8 
REMARK    2  A    between atoms: C_1  and  N_3 
REMARK    3  A    between atoms: N_7  and  C_12 
REMARK       I    between atoms: N_7  and  C_8 
REMARK    4  A    between atoms: C_11  and  C_12 
ROOT
HETATM    1  O           1     -22.670  -5.056  -7.243  0.00  0.00    -0.271 OA
HETATM    2  N           1     -22.028  -3.972  -9.087  0.00  0.00    -0.345 N 
HETATM    3  C           1     -21.840  -4.371  -7.791  0.00  0.00     0.248 C 
HETATM    4  H           1     -21.332  -3.398  -9.546  0.00  0.00     0.163 HD
ENDROOT
BRANCH   3   5
HETATM    5  C           1     -20.594  -3.954  -7.047  0.00  0.00     0.270 C 
HETATM    6  C           1     -19.365  -4.341  -7.858  0.00  0.00     0.050 C 
BRANCH   5   7
HETATM    7  N           1     -20.553  -4.646  -5.717  0.00  0.00    -0.067 N 
HETATM    8  H           1     -21.495  -5.044  -5.501  0.00  0.00     0.275 HD
HETATM    9  H           1     -19.849  -5.418  -5.747  0.00  0.00     0.275 HD
HETATM   10  H           1     -20.286  -3.960  -4.975  0.00  0.00     0.275 HD
ENDBRANCH   5   7
ENDBRANCH   3   5
BRANCH   2  11
HETATM   11  C           1     -23.224  -4.372  -9.802  0.00  0.00     0.181 C 
HETATM   12  C           1     -24.292  -3.298  -9.645  0.00  0.00     0.043 C 
BRANCH  11  13
HETATM   13  C           1     -22.899  -4.549 -11.265  0.00  0.00     0.196 C 
HETATM   14  O           1     -21.708  -4.636 -11.634  0.00  0.00    -0.646 OA
HETATM   15  O           1     -23.821  -4.607 -12.107  0.00  0.00    -0.646 OA
ENDBRANCH  11  13
ENDBRANCH   2  11
TORSDOF 4
ENDMDL
MODEL 6
REMARK VINA RESULT:      -4.6      2.434      4.590
REMARK  4 active torsions:
REMARK  status: ('A' for Active; 'I' for Inactive)
REMARK    1  A    between atoms: C_1  and  C_8 
REMARK    2  A    between atoms: C_1  and  N_3 
REMARK    3  A    between atoms: N_7  and  C_12 
REMARK       I    between atoms: N_7  and  C_8 
REMARK    4  A    between atoms: C_11  and  C_12 
ROOT
HETATM    1  O           1     -19.934  -4.890 -10.090  0.00  0.00    -0.271 OA
HETATM    2  N           1     -21.322  -4.703  -8.351  0.00  0.00    -0.345 N 
HETATM    3  C           1     -20.970  -4.452  -9.650  0.00  0.00     0.248 C 
HETATM    4  H           1     -22.191  -4.337  -7.982  0.00  0.00     0.163 HD
ENDROOT
BRANCH   3   5
HETATM    5  C           1     -21.877  -3.629 -10.532  0.00  0.00     0.270 C 
HETATM    6  C           1     -22.969  -4.519 -11.109  0.00  0.00     0.050 C 
BRANCH   5   7
HETATM    7  N           1     -21.077  -3.031 -11.650  0.00  0.00    -0.067 N 
HETATM    8  H           1     -20.569  -2.186 -11.303  0.00  0.00     0.275 HD
HETATM    9  H           1     -20.385  -3.732 -11.998  0.00  0.00     0.275 HD
HETATM   10  H           1     -21.717  -2.756 -12.430  0.00  0.00     0.275 HD
ENDBRANCH   5   7
ENDBRANCH   3   5
BRANCH   2  11
HETATM   11  C           1     -20.451  -5.495  -7.504  0.00  0.00     0.181 C 
HETATM   12  C           1     -19.450  -4.580  -6.811  0.00  0.00     0.043 C 
BRANCH  11  13
HETATM   13  C           1     -21.278  -6.214  -6.466  0.00  0.00     0.196 C 
HETATM   14  O           1     -21.141  -7.445  -6.301  0.00  0.00    -0.646 OA
HETATM   15  O           1     -22.100  -5.577  -5.772  0.00  0.00    -0.646 OA
ENDBRANCH  11  13
ENDBRANCH   2  11
TORSDOF 4
ENDMDL
MODEL 7
REMARK VINA RESULT:      -4.3      4.456      5.997
REMARK  4 active torsions:
REMARK  status: ('A' for Active; 'I' for Inactive)
REMARK    1  A    between atoms: C_1  and  C_8 
REMARK    2  A    between atoms: C_1  and  N_3 
REMARK    3  A    between atoms: N_7  and  C_12 
REMARK       I    between atoms: N_7  and  C_8 
REMARK    4  A    between atoms: C_11  and  C_12 
ROOT
HETATM    1  O           1     -22.584  -5.875  -2.592  0.00  0.00    -0.271 OA
HETATM    2  N           1     -20.943  -6.838  -3.761  0.00  0.00    -0.345 N 
HETATM    3  C           1     -21.679  -6.674  -2.618  0.00  0.00     0.248 C 
HETATM    4  H           1     -20.184  -7.507  -3.783  0.00  0.00     0.163 HD
ENDROOT
BRANCH   3   5
HETATM    5  C           1     -21.357  -7.491  -1.391  0.00  0.00     0.270 C 
HETATM    6  C           1     -21.137  -8.944  -1.792  0.00  0.00     0.050 C 
BRANCH   5   7
HETATM    7  N           1     -22.500  -7.408  -0.423  0.00  0.00    -0.067 N 
HETATM    8  H           1     -22.464  -6.493   0.081  0.00  0.00     0.275 HD
HETATM    9  H           1     -23.403  -7.483  -0.943  0.00  0.00     0.275 HD
HETATM   10  H           1     -22.429  -8.189   0.268  0.00  0.00     0.275 HD
ENDBRANCH   5   7
ENDBRANCH   3   5
BRANCH   2  11
HETATM   11  C           1     -21.251  -6.052  -4.941  0.00  0.00     0.181 C 
HETATM   12  C           1     -20.262  -4.900  -5.056  0.00  0.00     0.043 C 
BRANCH  11  13
HETATM   13  C           1     -21.151  -6.927  -6.166  0.00  0.00     0.196 C 
HETATM   14  O           1     -20.949  -6.412  -7.287  0.00  0.00    -0.646 OA
HETATM   15  O           1     -21.270  -8.167  -6.061  0.00  0.00    -0.646 OA
ENDBRANCH  11  13
ENDBRANCH   2  11
TORSDOF 4
ENDMDL
MODEL 8
REMARK VINA RESULT:      -4.3      3.653      6.201
REMARK  4 active torsions:
REMARK  status: ('A' for Active; 'I' for Inactive)
REMARK    1  A    between atoms: C_1  and  C_8 
REMARK    2  A    between atoms: C_1  and  N_3 
REMARK    3  A    between atoms: N_7  and  C_12 
REMARK       I    between atoms: N_7  and  C_8 
REMARK    4  A    between atoms: C_11  and  C_12 
ROOT
HETATM    1  O           1     -22.597  -5.546  -5.732  0.00  0.00    -0.271 OA
HETATM    2  N           1     -20.882  -6.656  -4.830  0.00  0.00    -0.345 N 
HETATM    3  C           1     -21.404  -5.734  -5.696  0.00  0.00     0.248 C 
HETATM    4  H           1     -19.883  -6.814  -4.799  0.00  0.00     0.163 HD
ENDROOT
BRANCH   3   5
HETATM    5  C           1     -20.489  -4.952  -6.606  0.00  0.00     0.270 C 
HETATM    6  C           1     -21.232  -3.741  -7.156  0.00  0.00     0.050 C 
BRANCH   5   7
HETATM    7  N           1     -20.049  -5.826  -7.742  0.00  0.00    -0.067 N 
HETATM    8  H           1     -19.030  -6.038  -7.645  0.00  0.00     0.275 HD
HETATM    9  H           1     -20.592  -6.718  -7.726  0.00  0.00     0.275 HD
HETATM   10  H           1     -20.217  -5.332  -8.648  0.00  0.00     0.275 HD
ENDBRANCH   5   7
ENDBRANCH   3   5
BRANCH   2  11
HETATM   11  C           1     -21.762  -7.408  -3.955  0.00  0.00     0.181 C 
HETATM   12  C           1     -21.364  -8.878  -3.977  0.00  0.00     0.043 C 
BRANCH  11  13
HETATM   13  C           1     -21.645  -6.876  -2.548  0.00  0.00     0.196 C 
HETATM   14  O           1     -22.309  -5.875  -2.201  0.00  0.00    -0.646 OA
HETATM   15  O           1     -20.885  -7.436  -1.729  0.00  0.00    -0.646 OA
ENDBRANCH  11  13
ENDBRANCH   2  11
TORSDOF 4
ENDMDL
MODEL 9
REMARK VINA RESULT:      -4.2      8.896     10.324
REMARK  4 active torsions:
REMARK  status: ('A' for Active; 'I' for Inactive)
REMARK    1  A    between atoms: C_1  and  C_8 
REMARK    2  A    between atoms: C_1  and  N_3 
REMARK    3  A    between atoms: N_7  and  C_12 
REMARK       I    between atoms: N_7  and  C_8 
REMARK    4  A    between atoms: C_11  and  C_12 
ROOT
HETATM    1  O           1     -25.832  -6.267 -18.485  0.00  0.00    -0.271 OA
HETATM    2  N           1     -27.476  -6.611 -17.014  0.00  0.00    -0.345 N 
HETATM    3  C           1     -26.163  -6.674 -17.398  0.00  0.00     0.248 C 
HETATM    4  H           1     -27.754  -6.953 -16.103  0.00  0.00     0.163 HD
ENDROOT
BRANCH   3   5
HETATM    5  C           1     -25.131  -7.252 -16.461  0.00  0.00     0.270 C 
HETATM    6  C           1     -24.979  -6.342 -15.249  0.00  0.00     0.050 C 
BRANCH   5   7
HETATM    7  N           1     -23.815  -7.358 -17.173  0.00  0.00    -0.067 N 
HETATM    8  H           1     -23.431  -8.323 -17.054  0.00  0.00     0.275 HD
HETATM    9  H           1     -23.952  -7.162 -18.190  0.00  0.00     0.275 HD
HETATM   10  H           1     -23.144  -6.664 -16.771  0.00  0.00     0.275 HD
ENDBRANCH   5   7
ENDBRANCH   3   5
BRANCH   2  11
HETATM   11  C           1     -28.469  -6.056 -17.914  0.00  0.00     0.181 C 
HETATM   12  C           1     -29.514  -7.117 -18.234  0.00  0.00     0.043 C 
BRANCH  11  13
HETATM   13  C           1     -29.136  -4.874 -17.257  0.00  0.00     0.196 C 
HETATM   14  O           1     -29.935  -5.052 -16.312  0.00  0.00    -0.646 OA
HETATM   15  O           1     -28.891  -3.715 -17.658  0.00  0.00    -0.646 OA
ENDBRANCH  11  13
ENDBRANCH   2  11
TORSDOF 4
ENDMDL
