MODEL 1
REMARK VINA RESULT:      -6.2      0.000      0.000
REMARK  10 active torsions:
REMARK  status: ('A' for Active; 'I' for Inactive)
REMARK    1  A    between atoms: C_2  and  C_14 
REMARK    2  A    between atoms: C_2  and  C_3 
REMARK    3  A    between atoms: C_3  and  C_13 
REMARK    4  A    between atoms: C_5  and  C_20 
REMARK    5  A    between atoms: C_5  and  C_6 
REMARK    6  A    between atoms: C_5  and  N_9 
REMARK    7  A    between atoms: C_6  and  C_7 
REMARK    8  A    between atoms: C_7  and  S_15 
REMARK    9  A    between atoms: N_11  and  C_13 
REMARK       I    between atoms: N_11  and  C_20 
REMARK   10  A    between atoms: C_13  and  C_19 
ROOT
HETATM    1  O           1     -26.174  -5.936 -17.211  0.00  0.00    -0.271 OA
HETATM    2  H           1     -27.541  -7.036 -19.812  0.00  0.00     0.163 HD
HETATM    3  N           1     -27.478  -6.652 -18.878  0.00  0.00    -0.345 N 
HETATM    4  C           1     -26.251  -6.395 -18.327  0.00  0.00     0.249 C 
ENDROOT
BRANCH   3   5
HETATM    5  C           1     -28.684  -6.374 -18.125  0.00  0.00     0.186 C 
BRANCH   5   6
HETATM    6  C           1     -29.358  -5.130 -18.687  0.00  0.00     0.046 C 
BRANCH   6   7
HETATM    7  C           1     -29.540  -4.104 -17.577  0.00  0.00     0.116 C 
BRANCH   7   8
HETATM    8  C           1     -31.012  -3.911 -17.305  0.00  0.00     0.172 C 
HETATM    9  O           1     -31.611  -4.687 -16.530  0.00  0.00    -0.648 OA
HETATM   10  O           1     -31.632  -2.975 -17.855  0.00  0.00    -0.648 OA
ENDBRANCH   7   8
ENDBRANCH   6   7
ENDBRANCH   5   6
BRANCH   5  11
HETATM   11  C           1     -29.625  -7.549 -18.231  0.00  0.00     0.196 C 
HETATM   12  O           1     -30.523  -7.709 -17.377  0.00  0.00    -0.646 OA
HETATM   13  O           1     -29.508  -8.361 -19.175  0.00  0.00    -0.646 OA
ENDBRANCH   5  11
ENDBRANCH   3   5
BRANCH   4  14
HETATM   14  C           1     -24.995  -6.684 -19.111  0.00  0.00     0.275 C 
BRANCH  14  15
HETATM   15  C           1     -25.360  -7.334 -20.438  0.00  0.00     0.053 C 
BRANCH  15  16
HETATM   16  C           1     -24.201  -8.196 -20.919  0.00  0.00     0.076 C 
BRANCH  16  17
HETATM   17  S           1     -23.838  -7.811 -22.655  0.00  0.00    -0.173 SA
HETATM   18  C           1     -22.336  -8.823 -22.774  0.00  0.00     0.089 C 
ENDBRANCH  16  17
ENDBRANCH  15  16
ENDBRANCH  14  15
BRANCH  14  19
HETATM   19  N           1     -24.119  -7.614 -18.325  0.00  0.00    -0.066 N 
HETATM   20  H           1     -23.787  -8.387 -18.945  0.00  0.00     0.275 HD
HETATM   21  H           1     -24.663  -8.017 -17.529  0.00  0.00     0.275 HD
HETATM   22  H           1     -23.296  -7.086 -17.953  0.00  0.00     0.275 HD
ENDBRANCH  14  19
ENDBRANCH   4  14
TORSDOF 10
ENDMDL
MODEL 2
REMARK VINA RESULT:      -6.1      1.956      3.293
REMARK  10 active torsions:
REMARK  status: ('A' for Active; 'I' for Inactive)
REMARK    1  A    between atoms: C_2  and  C_14 
REMARK    2  A    between atoms: C_2  and  C_3 
REMARK    3  A    between atoms: C_3  and  C_13 
REMARK    4  A    between atoms: C_5  and  C_20 
REMARK    5  A    between atoms: C_5  and  C_6 
REMARK    6  A    between atoms: C_5  and  N_9 
REMARK    7  A    between atoms: C_6  and  C_7 
REMARK    8  A    between atoms: C_7  and  S_15 
REMARK    9  A    between atoms: N_11  and  C_13 
REMARK       I    between atoms: N_11  and  C_20 
REMARK   10  A    between atoms: C_13  and  C_19 
ROOT
HETATM    1  O           1     -27.139  -5.558 -20.643  0.00  0.00    -0.271 OA
HETATM    2  H           1     -27.281  -7.326 -18.056  0.00  0.00     0.163 HD
HETATM    3  N           1     -27.440  -6.525 -18.652  0.00  0.00    -0.345 N 
HETATM    4  C           1     -26.949  -6.515 -19.930  0.00  0.00     0.249 C 
ENDROOT
BRANCH   3   5
HETATM    5  C           1     -28.189  -5.388 -18.155  0.00  0.00     0.186 C 
BRANCH   5   6
HETATM    6  C           1     -29.603  -5.828 -17.801  0.00  0.00     0.046 C 
BRANCH   6   7
HETATM    7  C           1     -29.619  -7.328 -17.538  0.00  0.00     0.116 C 
BRANCH   7   8
HETATM    8  C           1     -30.272  -8.036 -18.699  0.00  0.00     0.172 C 
HETATM    9  O           1     -29.598  -8.793 -19.430  0.00  0.00    -0.648 OA
HETATM   10  O           1     -31.489  -7.866 -18.929  0.00  0.00    -0.648 OA
ENDBRANCH   7   8
ENDBRANCH   6   7
ENDBRANCH   5   6
BRANCH   5  11
HETATM   11  C           1     -27.510  -4.837 -16.925  0.00  0.00     0.196 C 
HETATM   12  O           1     -26.438  -5.340 -16.525  0.00  0.00    -0.646 OA
HETATM   13  O           1     -28.019  -3.877 -16.307  0.00  0.00    -0.646 OA
ENDBRANCH   5  11
ENDBRANCH   3   5
BRANCH   4  14
HETATM   14  C           1     -26.169  -7.698 -20.448  0.00  0.00     0.275 C 
BRANCH  14  15
HETATM   15  C           1     -25.077  -7.214 -21.393  0.00  0.00     0.053 C 
BRANCH  15  16
HETATM   16  C           1     -23.857  -8.117 -21.264  0.00  0.00     0.076 C 
BRANCH  16  17
HETATM   17  S           1     -23.105  -8.355 -22.899  0.00  0.00    -0.173 SA
HETATM   18  C           1     -21.617  -9.212 -22.310  0.00  0.00     0.089 C 
ENDBRANCH  16  17
ENDBRANCH  15  16
ENDBRANCH  14  15
BRANCH  14  19
HETATM   19  N           1     -27.093  -8.621 -21.186  0.00  0.00    -0.066 N 
HETATM   20  H           1     -27.084  -9.561 -20.730  0.00  0.00     0.275 HD
HETATM   21  H           1     -26.777  -8.713 -22.178  0.00  0.00     0.275 HD
HETATM   22  H           1     -28.063  -8.231 -21.165  0.00  0.00     0.275 HD
ENDBRANCH  14  19
ENDBRANCH   4  14
TORSDOF 10
ENDMDL
MODEL 3
REMARK VINA RESULT:      -6.0      1.668      2.705
REMARK  10 active torsions:
REMARK  status: ('A' for Active; 'I' for Inactive)
REMARK    1  A    between atoms: C_2  and  C_14 
REMARK    2  A    between atoms: C_2  and  C_3 
REMARK    3  A    between atoms: C_3  and  C_13 
REMARK    4  A    between atoms: C_5  and  C_20 
REMARK    5  A    between atoms: C_5  and  C_6 
REMARK    6  A    between atoms: C_5  and  N_9 
REMARK    7  A    between atoms: C_6  and  C_7 
REMARK    8  A    between atoms: C_7  and  S_15 
REMARK    9  A    between atoms: N_11  and  C_13 
REMARK       I    between atoms: N_11  and  C_20 
REMARK   10  A    between atoms: C_13  and  C_19 
ROOT
HETATM    1  O           1     -24.321  -6.416 -18.670  0.00  0.00    -0.271 OA
HETATM    2  H           1     -27.386  -7.087 -18.647  0.00  0.00     0.163 HD
HETATM    3  N           1     -26.508  -6.708 -18.318  0.00  0.00    -0.345 N 
HETATM    4  C           1     -25.371  -6.870 -19.063  0.00  0.00     0.249 C 
ENDROOT
BRANCH   3   5
HETATM    5  C           1     -26.454  -5.992 -17.059  0.00  0.00     0.186 C 
BRANCH   5   6
HETATM    6  C           1     -27.689  -5.113 -16.922  0.00  0.00     0.046 C 
BRANCH   6   7
HETATM    7  C           1     -28.652  -5.407 -18.064  0.00  0.00     0.116 C 
BRANCH   7   8
HETATM    8  C           1     -30.006  -5.767 -17.503  0.00  0.00     0.172 C 
HETATM    9  O           1     -30.770  -4.869 -17.089  0.00  0.00    -0.648 OA
HETATM   10  O           1     -30.362  -6.964 -17.452  0.00  0.00    -0.648 OA
ENDBRANCH   7   8
ENDBRANCH   6   7
ENDBRANCH   5   6
BRANCH   5  11
HETATM   11  C           1     -26.410  -6.981 -15.919  0.00  0.00     0.196 C 
HETATM   12  O           1     -27.474  -7.410 -15.424  0.00  0.00    -0.646 OA
HETATM   13  O           1     -25.310  -7.372 -15.472  0.00  0.00    -0.646 OA
ENDBRANCH   5  11
ENDBRANCH   3   5
BRANCH   4  14
HETATM   14  C           1     -25.426  -7.615 -20.373  0.00  0.00     0.275 C 
BRANCH  14  15
HETATM   15  C           1     -24.875  -6.732 -21.485  0.00  0.00     0.053 C 
BRANCH  15  16
HETATM   16  C           1     -24.028  -7.573 -22.430  0.00  0.00     0.076 C 
BRANCH  16  17
HETATM   17  S           1     -22.815  -8.525 -21.472  0.00  0.00    -0.173 SA
HETATM   18  C           1     -21.938  -9.223 -22.899  0.00  0.00     0.089 C 
ENDBRANCH  16  17
ENDBRANCH  15  16
ENDBRANCH  14  15
BRANCH  14  19
HETATM   19  N           1     -26.848  -7.977 -20.682  0.00  0.00    -0.066 N 
HETATM   20  H           1     -26.970  -8.057 -21.717  0.00  0.00     0.275 HD
HETATM   21  H           1     -27.485  -7.235 -20.314  0.00  0.00     0.275 HD
HETATM   22  H           1     -27.080  -8.891 -20.231  0.00  0.00     0.275 HD
ENDBRANCH  14  19
ENDBRANCH   4  14
TORSDOF 10
ENDMDL
MODEL 4
REMARK VINA RESULT:      -5.7     13.092     14.606
REMARK  10 active torsions:
REMARK  status: ('A' for Active; 'I' for Inactive)
REMARK    1  A    between atoms: C_2  and  C_14 
REMARK    2  A    between atoms: C_2  and  C_3 
REMARK    3  A    between atoms: C_3  and  C_13 
REMARK    4  A    between atoms: C_5  and  C_20 
REMARK    5  A    between atoms: C_5  and  C_6 
REMARK    6  A    between atoms: C_5  and  N_9 
REMARK    7  A    between atoms: C_6  and  C_7 
REMARK    8  A    between atoms: C_7  and  S_15 
REMARK    9  A    between atoms: N_11  and  C_13 
REMARK       I    between atoms: N_11  and  C_20 
REMARK   10  A    between atoms: C_13  and  C_19 
ROOT
HETATM    1  O           1     -21.248  -7.208  -6.763  0.00  0.00    -0.271 OA
HETATM    2  H           1     -21.283  -4.168  -5.988  0.00  0.00     0.163 HD
HETATM    3  N           1     -21.322  -4.983  -6.588  0.00  0.00    -0.345 N 
HETATM    4  C           1     -21.201  -6.235  -6.048  0.00  0.00     0.249 C 
ENDROOT
BRANCH   3   5
HETATM    5  C           1     -21.508  -4.824  -8.016  0.00  0.00     0.186 C 
BRANCH   5   6
HETATM    6  C           1     -22.453  -3.659  -8.279  0.00  0.00     0.046 C 
BRANCH   6   7
HETATM    7  C           1     -23.719  -4.173  -8.950  0.00  0.00     0.116 C 
BRANCH   7   8
HETATM    8  C           1     -23.891  -3.495 -10.287  0.00  0.00     0.172 C 
HETATM    9  O           1     -25.034  -3.194 -10.693  0.00  0.00    -0.648 OA
HETATM   10  O           1     -22.890  -3.235 -10.989  0.00  0.00    -0.648 OA
ENDBRANCH   7   8
ENDBRANCH   6   7
ENDBRANCH   5   6
BRANCH   5  11
HETATM   11  C           1     -20.175  -4.548  -8.669  0.00  0.00     0.196 C 
HETATM   12  O           1     -20.029  -4.737  -9.895  0.00  0.00    -0.646 OA
HETATM   13  O           1     -19.218  -4.128  -7.982  0.00  0.00    -0.646 OA
ENDBRANCH   5  11
ENDBRANCH   3   5
BRANCH   4  14
HETATM   14  C           1     -21.008  -6.401  -4.561  0.00  0.00     0.275 C 
BRANCH  14  15
HETATM   15  C           1     -20.531  -7.817  -4.264  0.00  0.00     0.053 C 
BRANCH  15  16
HETATM   16  C           1     -21.375  -8.413  -3.146  0.00  0.00     0.076 C 
BRANCH  16  17
HETATM   17  S           1     -20.287  -9.125  -1.880  0.00  0.00    -0.173 SA
HETATM   18  C           1     -21.153  -8.418  -0.451  0.00  0.00     0.089 C 
ENDBRANCH  16  17
ENDBRANCH  15  16
ENDBRANCH  14  15
BRANCH  14  19
HETATM   19  N           1     -22.310  -6.156  -3.858  0.00  0.00    -0.066 N 
HETATM   20  H           1     -22.219  -6.424  -2.852  0.00  0.00     0.275 HD
HETATM   21  H           1     -23.061  -6.730  -4.303  0.00  0.00     0.275 HD
HETATM   22  H           1     -22.558  -5.143  -3.929  0.00  0.00     0.275 HD
ENDBRANCH  14  19
ENDBRANCH   4  14
TORSDOF 10
ENDMDL
MODEL 5
REMARK VINA RESULT:      -5.4      1.845      2.592
REMARK  10 active torsions:
REMARK  status: ('A' for Active; 'I' for Inactive)
REMARK    1  A    between atoms: C_2  and  C_14 
REMARK    2  A    between atoms: C_2  and  C_3 
REMARK    3  A    between atoms: C_3  and  C_13 
REMARK    4  A    between atoms: C_5  and  C_20 
REMARK    5  A    between atoms: C_5  and  C_6 
REMARK    6  A    between atoms: C_5  and  N_9 
REMARK    7  A    between atoms: C_6  and  C_7 
REMARK    8  A    between atoms: C_7  and  S_15 
REMARK    9  A    between atoms: N_11  and  C_13 
REMARK       I    between atoms: N_11  and  C_20 
REMARK   10  A    between atoms: C_13  and  C_19 
ROOT
HETATM    1  O           1     -27.519  -5.625 -20.334  0.00  0.00    -0.271 OA
HETATM    2  H           1     -27.249  -7.423 -17.777  0.00  0.00     0.163 HD
HETATM    3  N           1     -27.528  -6.628 -18.338  0.00  0.00    -0.345 N 
HETATM    4  C           1     -27.185  -6.573 -19.662  0.00  0.00     0.249 C 
ENDROOT
BRANCH   3   5
HETATM    5  C           1     -28.292  -5.551 -17.741  0.00  0.00     0.186 C 
BRANCH   5   6
HETATM    6  C           1     -29.569  -6.111 -17.131  0.00  0.00     0.046 C 
BRANCH   6   7
HETATM    7  C           1     -30.776  -5.537 -17.859  0.00  0.00     0.116 C 
BRANCH   7   8
HETATM    8  C           1     -31.255  -4.298 -17.142  0.00  0.00     0.172 C 
HETATM    9  O           1     -30.845  -3.173 -17.497  0.00  0.00    -0.648 OA
HETATM   10  O           1     -32.063  -4.399 -16.193  0.00  0.00    -0.648 OA
ENDBRANCH   7   8
ENDBRANCH   6   7
ENDBRANCH   5   6
BRANCH   5  11
HETATM   11  C           1     -27.468  -4.887 -16.665  0.00  0.00     0.196 C 
HETATM   12  O           1     -27.972  -3.990 -15.956  0.00  0.00    -0.646 OA
HETATM   13  O           1     -26.281  -5.236 -16.482  0.00  0.00    -0.646 OA
ENDBRANCH   5  11
ENDBRANCH   3   5
BRANCH   4  14
HETATM   14  C           1     -26.391  -7.694 -20.285  0.00  0.00     0.275 C 
BRANCH  14  15
HETATM   15  C           1     -25.245  -7.115 -21.103  0.00  0.00     0.053 C 
BRANCH  15  16
HETATM   16  C           1     -24.034  -8.032 -21.003  0.00  0.00     0.076 C 
BRANCH  16  17
HETATM   17  S           1     -23.274  -8.213 -22.641  0.00  0.00    -0.173 SA
HETATM   18  C           1     -21.810  -9.127 -22.082  0.00  0.00     0.089 C 
ENDBRANCH  16  17
ENDBRANCH  15  16
ENDBRANCH  14  15
BRANCH  14  19
HETATM   19  N           1     -27.283  -8.502 -21.180  0.00  0.00    -0.066 N 
HETATM   20  H           1     -27.309  -9.492 -20.845  0.00  0.00     0.275 HD
HETATM   21  H           1     -26.915  -8.475 -22.157  0.00  0.00     0.275 HD
HETATM   22  H           1     -28.250  -8.102 -21.160  0.00  0.00     0.275 HD
ENDBRANCH  14  19
ENDBRANCH   4  14
TORSDOF 10
ENDMDL
MODEL 6
REMARK VINA RESULT:      -5.4     13.948     15.398
REMARK  10 active torsions:
REMARK  status: ('A' for Active; 'I' for Inactive)
REMARK    1  A    between atoms: C_2  and  C_14 
REMARK    2  A    between atoms: C_2  and  C_3 
REMARK    3  A    between atoms: C_3  and  C_13 
REMARK    4  A    between atoms: C_5  and  C_20 
REMARK    5  A    between atoms: C_5  and  C_6 
REMARK    6  A    between atoms: C_5  and  N_9 
REMARK    7  A    between atoms: C_6  and  C_7 
REMARK    8  A    between atoms: C_7  and  S_15 
REMARK    9  A    between atoms: N_11  and  C_13 
REMARK       I    between atoms: N_11  and  C_20 
REMARK   10  A    between atoms: C_13  and  C_19 
ROOT
HETATM    1  O           1     -19.979  -4.415  -5.140  0.00  0.00    -0.271 OA
HETATM    2  H           1     -21.923  -6.444  -6.535  0.00  0.00     0.163 HD
HETATM    3  N           1     -21.311  -6.075  -5.819  0.00  0.00    -0.345 N 
HETATM    4  C           1     -20.711  -4.857  -5.994  0.00  0.00     0.249 C 
ENDROOT
BRANCH   3   5
HETATM    5  C           1     -21.068  -6.835  -4.609  0.00  0.00     0.186 C 
BRANCH   5   6
HETATM    6  C           1     -22.234  -6.644  -3.648  0.00  0.00     0.046 C 
BRANCH   6   7
HETATM    7  C           1     -21.718  -6.091  -2.326  0.00  0.00     0.116 C 
BRANCH   7   8
HETATM    8  C           1     -21.929  -7.113  -1.236  0.00  0.00     0.172 C 
HETATM    9  O           1     -21.066  -7.993  -1.030  0.00  0.00    -0.648 OA
HETATM   10  O           1     -22.966  -7.079  -0.539  0.00  0.00    -0.648 OA
ENDBRANCH   7   8
ENDBRANCH   6   7
ENDBRANCH   5   6
BRANCH   5  11
HETATM   11  C           1     -20.933  -8.298  -4.953  0.00  0.00     0.196 C 
HETATM   12  O           1     -21.209  -8.698  -6.104  0.00  0.00    -0.646 OA
HETATM   13  O           1     -20.542  -9.110  -4.086  0.00  0.00    -0.646 OA
ENDBRANCH   5  11
ENDBRANCH   3   5
BRANCH   4  14
HETATM   14  C           1     -20.963  -4.065  -7.254  0.00  0.00     0.275 C 
BRANCH  14  15
HETATM   15  C           1     -22.062  -4.735  -8.066  0.00  0.00     0.053 C 
BRANCH  15  16
HETATM   16  C           1     -22.018  -4.225  -9.500  0.00  0.00     0.076 C 
BRANCH  16  17
HETATM   17  S           1     -23.530  -4.727 -10.369  0.00  0.00    -0.173 SA
HETATM   18  C           1     -24.588  -3.411  -9.705  0.00  0.00     0.089 C 
ENDBRANCH  16  17
ENDBRANCH  15  16
ENDBRANCH  14  15
BRANCH  14  19
HETATM   19  N           1     -19.704  -4.009  -8.068  0.00  0.00    -0.066 N 
HETATM   20  H           1     -19.936  -4.150  -9.077  0.00  0.00     0.275 HD
HETATM   21  H           1     -19.051  -4.761  -7.753  0.00  0.00     0.275 HD
HETATM   22  H           1     -19.249  -3.076  -7.941  0.00  0.00     0.275 HD
ENDBRANCH  14  19
ENDBRANCH   4  14
TORSDOF 10
ENDMDL
MODEL 7
REMARK VINA RESULT:      -5.2     14.666     15.936
REMARK  10 active torsions:
REMARK  status: ('A' for Active; 'I' for Inactive)
REMARK    1  A    between atoms: C_2  and  C_14 
REMARK    2  A    between atoms: C_2  and  C_3 
REMARK    3  A    between atoms: C_3  and  C_13 
REMARK    4  A    between atoms: C_5  and  C_20 
REMARK    5  A    between atoms: C_5  and  C_6 
REMARK    6  A    between atoms: C_5  and  N_9 
REMARK    7  A    between atoms: C_6  and  C_7 
REMARK    8  A    between atoms: C_7  and  S_15 
REMARK    9  A    between atoms: N_11  and  C_13 
REMARK       I    between atoms: N_11  and  C_20 
REMARK   10  A    between atoms: C_13  and  C_19 
ROOT
HETATM    1  O           1     -19.752  -7.793  -5.661  0.00  0.00    -0.271 OA
HETATM    2  H           1     -22.643  -7.852  -4.444  0.00  0.00     0.163 HD
HETATM    3  N           1     -21.680  -8.128  -4.583  0.00  0.00    -0.345 N 
HETATM    4  C           1     -20.903  -7.465  -5.495  0.00  0.00     0.249 C 
ENDROOT
BRANCH   3   5
HETATM    5  C           1     -21.121  -9.223  -3.816  0.00  0.00     0.186 C 
BRANCH   5   6
HETATM    6  C           1     -21.486  -9.052  -2.348  0.00  0.00     0.046 C 
BRANCH   6   7
HETATM    7  C           1     -20.955  -7.717  -1.844  0.00  0.00     0.116 C 
BRANCH   7   8
HETATM    8  C           1     -22.108  -6.773  -1.608  0.00  0.00     0.172 C 
HETATM    9  O           1     -22.816  -6.894  -0.586  0.00  0.00    -0.648 OA
HETATM   10  O           1     -22.354  -5.869  -2.436  0.00  0.00    -0.648 OA
ENDBRANCH   7   8
ENDBRANCH   6   7
ENDBRANCH   5   6
BRANCH   5  11
HETATM   11  C           1     -21.680 -10.530  -4.325  0.00  0.00     0.196 C 
HETATM   12  O           1     -21.230 -11.035  -5.375  0.00  0.00    -0.646 OA
HETATM   13  O           1     -22.592 -11.108  -3.694  0.00  0.00    -0.646 OA
ENDBRANCH   5  11
ENDBRANCH   3   5
BRANCH   4  14
HETATM   14  C           1     -21.484  -6.324  -6.294  0.00  0.00     0.275 C 
BRANCH  14  15
HETATM   15  C           1     -20.398  -5.296  -6.577  0.00  0.00     0.053 C 
BRANCH  15  16
HETATM   16  C           1     -21.041  -3.968  -6.955  0.00  0.00     0.076 C 
BRANCH  16  17
HETATM   17  S           1     -21.754  -4.092  -8.619  0.00  0.00    -0.173 SA
HETATM   18  C           1     -20.217  -4.563  -9.460  0.00  0.00     0.089 C 
ENDBRANCH  16  17
ENDBRANCH  15  16
ENDBRANCH  14  15
BRANCH  14  19
HETATM   19  N           1     -22.590  -5.679  -5.513  0.00  0.00    -0.066 N 
HETATM   20  H           1     -22.191  -5.204  -4.671  0.00  0.00     0.275 HD
HETATM   21  H           1     -23.274  -6.408  -5.208  0.00  0.00     0.275 HD
HETATM   22  H           1     -23.076  -4.975  -6.114  0.00  0.00     0.275 HD
ENDBRANCH  14  19
ENDBRANCH   4  14
TORSDOF 10
ENDMDL
MODEL 8
REMARK VINA RESULT:      -5.0     14.218     15.989
REMARK  10 active torsions:
REMARK  status: ('A' for Active; 'I' for Inactive)
REMARK    1  A    between atoms: C_2  and  C_14 
REMARK    2  A    between atoms: C_2  and  C_3 
REMARK    3  A    between atoms: C_3  and  C_13 
REMARK    4  A    between atoms: C_5  and  C_20 
REMARK    5  A    between atoms: C_5  and  C_6 
REMARK    6  A    between atoms: C_5  and  N_9 
REMARK    7  A    between atoms: C_6  and  C_7 
REMARK    8  A    between atoms: C_7  and  S_15 
REMARK    9  A    between atoms: N_11  and  C_13 
REMARK       I    between atoms: N_11  and  C_20 
REMARK   10  A    between atoms: C_13  and  C_19 
ROOT
HETATM    1  O           1     -22.628  -5.594  -5.718  0.00  0.00    -0.271 OA
HETATM    2  H           1     -19.784  -6.609  -4.865  0.00  0.00     0.163 HD
HETATM    3  N           1     -20.794  -6.555  -4.878  0.00  0.00    -0.345 N 
HETATM    4  C           1     -21.421  -5.658  -5.701  0.00  0.00     0.249 C 
ENDROOT
BRANCH   3   5
HETATM    5  C           1     -21.578  -7.428  -4.027  0.00  0.00     0.186 C 
BRANCH   5   6
HETATM    6  C           1     -20.936  -8.807  -3.986  0.00  0.00     0.046 C 
BRANCH   6   7
HETATM    7  C           1     -19.670  -8.805  -4.832  0.00  0.00     0.116 C 
BRANCH   7   8
HETATM    8  C           1     -18.508  -9.297  -4.004  0.00  0.00     0.172 C 
HETATM    9  O           1     -18.616  -9.378  -2.762  0.00  0.00    -0.648 OA
HETATM   10  O           1     -17.438  -9.623  -4.562  0.00  0.00    -0.648 OA
ENDBRANCH   7   8
ENDBRANCH   6   7
ENDBRANCH   5   6
BRANCH   5  11
HETATM   11  C           1     -21.630  -6.855  -2.631  0.00  0.00     0.196 C 
HETATM   12  O           1     -20.890  -7.318  -1.738  0.00  0.00    -0.646 OA
HETATM   13  O           1     -22.413  -5.915  -2.370  0.00  0.00    -0.646 OA
ENDBRANCH   5  11
ENDBRANCH   3   5
BRANCH   4  14
HETATM   14  C           1     -20.606  -4.750  -6.588  0.00  0.00     0.275 C 
BRANCH  14  15
HETATM   15  C           1     -21.517  -3.714  -7.232  0.00  0.00     0.053 C 
BRANCH  15  16
HETATM   16  C           1     -21.729  -4.064  -8.698  0.00  0.00     0.076 C 
BRANCH  16  17
HETATM   17  S           1     -23.504  -4.033  -9.078  0.00  0.00    -0.173 SA
HETATM   18  C           1     -23.354  -4.647 -10.779  0.00  0.00     0.089 C 
ENDBRANCH  16  17
ENDBRANCH  15  16
ENDBRANCH  14  15
BRANCH  14  19
HETATM   19  N           1     -19.941  -5.563  -7.659  0.00  0.00    -0.066 N 
HETATM   20  H           1     -19.444  -6.372  -7.224  0.00  0.00     0.275 HD
HETATM   21  H           1     -19.252  -4.968  -8.172  0.00  0.00     0.275 HD
HETATM   22  H           1     -20.663  -5.915  -8.328  0.00  0.00     0.275 HD
ENDBRANCH  14  19
ENDBRANCH   4  14
TORSDOF 10
ENDMDL
MODEL 9
REMARK VINA RESULT:      -4.9      3.384      6.563
REMARK  10 active torsions:
REMARK  status: ('A' for Active; 'I' for Inactive)
REMARK    1  A    between atoms: C_2  and  C_14 
REMARK    2  A    between atoms: C_2  and  C_3 
REMARK    3  A    between atoms: C_3  and  C_13 
REMARK    4  A    between atoms: C_5  and  C_20 
REMARK    5  A    between atoms: C_5  and  C_6 
REMARK    6  A    between atoms: C_5  and  N_9 
REMARK    7  A    between atoms: C_6  and  C_7 
REMARK    8  A    between atoms: C_7  and  S_15 
REMARK    9  A    between atoms: N_11  and  C_13 
REMARK       I    between atoms: N_11  and  C_20 
REMARK   10  A    between atoms: C_13  and  C_19 
ROOT
HETATM    1  O           1     -28.299  -6.977 -16.503  0.00  0.00    -0.271 OA
HETATM    2  H           1     -26.483  -4.855 -17.930  0.00  0.00     0.163 HD
HETATM    3  N           1     -26.752  -5.753 -17.551  0.00  0.00    -0.345 N 
HETATM    4  C           1     -27.976  -5.904 -16.956  0.00  0.00     0.249 C 
ENDROOT
BRANCH   3   5
HETATM    5  C           1     -25.844  -6.879 -17.636  0.00  0.00     0.186 C 
BRANCH   5   6
HETATM    6  C           1     -24.962  -6.727 -18.868  0.00  0.00     0.046 C 
BRANCH   6   7
HETATM    7  C           1     -25.830  -6.739 -20.119  0.00  0.00     0.116 C 
BRANCH   7   8
HETATM    8  C           1     -25.433  -7.900 -20.998  0.00  0.00     0.172 C 
HETATM    9  O           1     -26.312  -8.630 -21.503  0.00  0.00    -0.648 OA
HETATM   10  O           1     -24.225  -8.131 -21.219  0.00  0.00    -0.648 OA
ENDBRANCH   7   8
ENDBRANCH   6   7
ENDBRANCH   5   6
BRANCH   5  11
HETATM   11  C           1     -24.978  -6.922 -16.400  0.00  0.00     0.196 C 
HETATM   12  O           1     -24.347  -7.962 -16.115  0.00  0.00    -0.646 OA
HETATM   13  O           1     -24.892  -5.916 -15.662  0.00  0.00    -0.646 OA
ENDBRANCH   5  11
ENDBRANCH   3   5
BRANCH   4  14
HETATM   14  C           1     -28.923  -4.733 -16.867  0.00  0.00     0.275 C 
BRANCH  14  15
HETATM   15  C           1     -30.223  -5.177 -16.210  0.00  0.00     0.053 C 
BRANCH  15  16
HETATM   16  C           1     -31.369  -5.032 -17.201  0.00  0.00     0.076 C 
BRANCH  16  17
HETATM   17  S           1     -32.208  -6.630 -17.396  0.00  0.00    -0.173 SA
HETATM   18  C           1     -30.912  -7.415 -18.394  0.00  0.00     0.089 C 
ENDBRANCH  16  17
ENDBRANCH  15  16
ENDBRANCH  14  15
BRANCH  14  19
HETATM   19  N           1     -29.212  -4.218 -18.246  0.00  0.00    -0.066 N 
HETATM   20  H           1     -28.367  -4.341 -18.848  0.00  0.00     0.275 HD
HETATM   21  H           1     -29.458  -3.204 -18.196  0.00  0.00     0.275 HD
HETATM   22  H           1     -30.012  -4.752 -18.656  0.00  0.00     0.275 HD
ENDBRANCH  14  19
ENDBRANCH   4  14
TORSDOF 10
ENDMDL
