MODEL 1
REMARK VINA RESULT:      -7.4      0.000      0.000
REMARK  8 active torsions:
REMARK  status: ('A' for Active; 'I' for Inactive)
REMARK    1  A    between atoms: N_2  and  C_18 
REMARK    2  A    between atoms: C_5  and  C_7 
REMARK    3  A    between atoms: C_7  and  C_8 
REMARK    4  A    between atoms: C_7  and  N_19 
REMARK    5  A    between atoms: C_8  and  C_9 
REMARK       I    between atoms: C_17  and  N_19 
REMARK    6  A    between atoms: C_17  and  C_18 
REMARK    7  A    between atoms: C_18  and  C_24 
REMARK    8  A    between atoms: C_24  and  C_25 
REMARK       I    between atoms: C_25  and  N_26 
ROOT
HETATM    1  O           1     -33.664  -1.660 -10.322  0.00  0.00    -0.271 OA
HETATM    2  C           1     -34.808  -1.903 -10.624  0.00  0.00     0.249 C 
HETATM    3  N           1     -35.834  -1.209 -10.039  0.00  0.00    -0.344 N 
HETATM    4  H           1     -36.254  -1.551  -9.184  0.00  0.00     0.163 HD
ENDROOT
BRANCH   2   5
HETATM    5  C           1     -35.108  -2.974 -11.644  0.00  0.00     0.283 C 
BRANCH   5   6
HETATM    6  N           1     -33.992  -3.032 -12.647  0.00  0.00    -0.066 N 
HETATM    7  H           1     -33.566  -2.083 -12.749  0.00  0.00     0.275 HD
HETATM    8  H           1     -33.265  -3.706 -12.318  0.00  0.00     0.275 HD
HETATM    9  H           1     -34.369  -3.346 -13.569  0.00  0.00     0.275 HD
ENDBRANCH   5   6
BRANCH   5  10
HETATM   10  C           1     -35.230  -4.321 -10.946  0.00  0.00     0.145 C 
BRANCH  10  11
HETATM   11  C           1     -34.693  -5.406 -11.845  0.00  0.00     0.217 C 
HETATM   12  O           1     -35.167  -5.568 -12.945  0.00  0.00    -0.274 OA
HETATM   13  N           1     -33.669  -6.207 -11.416  0.00  0.00    -0.370 N 
HETATM   14  H           1     -33.309  -6.935 -12.021  0.00  0.00     0.159 HD
HETATM   15  H           1     -33.272  -6.071 -10.496  0.00  0.00     0.159 HD
ENDBRANCH  10  11
ENDBRANCH   5  10
ENDBRANCH   2   5
BRANCH   3  16
HETATM   16  C           1     -36.317   0.017 -10.645  0.00  0.00     0.189 C 
BRANCH  16  17
HETATM   17  C           1     -36.955   0.882  -9.586  0.00  0.00     0.197 C 
HETATM   18  O           1     -36.364   1.083  -8.503  0.00  0.00    -0.646 OA
HETATM   19  O           1     -38.075   1.399  -9.792  0.00  0.00    -0.646 OA
ENDBRANCH  16  17
BRANCH  16  20
HETATM   20  C           1     -37.348  -0.320 -11.715  0.00  0.00     0.074 C 
BRANCH  20  21
HETATM   21  C           1     -36.806   0.046 -13.063  0.00  0.00    -0.056 A 
HETATM   22  C           1     -37.620  -0.052 -14.190  0.00  0.00     0.007 A 
HETATM   23  C           1     -37.116   0.289 -15.446  0.00  0.00     0.001 A 
HETATM   24  C           1     -35.798   0.727 -15.572  0.00  0.00     0.000 A 
HETATM   25  C           1     -34.984   0.823 -14.444  0.00  0.00     0.001 A 
HETATM   26  C           1     -35.487   0.483 -13.189  0.00  0.00     0.007 A 
ENDBRANCH  20  21
ENDBRANCH  16  20
ENDBRANCH   3  16
TORSDOF 8
ENDMDL
MODEL 2
REMARK VINA RESULT:      -7.0      9.649     12.111
REMARK  8 active torsions:
REMARK  status: ('A' for Active; 'I' for Inactive)
REMARK    1  A    between atoms: N_2  and  C_18 
REMARK    2  A    between atoms: C_5  and  C_7 
REMARK    3  A    between atoms: C_7  and  C_8 
REMARK    4  A    between atoms: C_7  and  N_19 
REMARK    5  A    between atoms: C_8  and  C_9 
REMARK       I    between atoms: C_17  and  N_19 
REMARK    6  A    between atoms: C_17  and  C_18 
REMARK    7  A    between atoms: C_18  and  C_24 
REMARK    8  A    between atoms: C_24  and  C_25 
REMARK       I    between atoms: C_25  and  N_26 
ROOT
HETATM    1  O           1     -29.946  -7.943 -18.359  0.00  0.00    -0.271 OA
HETATM    2  C           1     -29.654  -7.119 -17.524  0.00  0.00     0.249 C 
HETATM    3  N           1     -28.549  -7.304 -16.737  0.00  0.00    -0.344 N 
HETATM    4  H           1     -28.631  -7.796 -15.857  0.00  0.00     0.163 HD
ENDROOT
BRANCH   2   5
HETATM    5  C           1     -30.508  -5.888 -17.348  0.00  0.00     0.283 C 
BRANCH   5   6
HETATM    6  N           1     -30.455  -5.446 -15.914  0.00  0.00    -0.066 N 
HETATM    7  H           1     -31.406  -5.139 -15.608  0.00  0.00     0.275 HD
HETATM    8  H           1     -30.138  -6.243 -15.317  0.00  0.00     0.275 HD
HETATM    9  H           1     -29.784  -4.650 -15.820  0.00  0.00     0.275 HD
ENDBRANCH   5   6
BRANCH   5  10
HETATM   10  C           1     -29.983  -4.772 -18.241  0.00  0.00     0.145 C 
BRANCH  10  11
HETATM   11  C           1     -30.372  -3.436 -17.660  0.00  0.00     0.217 C 
HETATM   12  O           1     -31.530  -3.203 -17.403  0.00  0.00    -0.274 OA
HETATM   13  N           1     -29.414  -2.488 -17.423  0.00  0.00    -0.370 N 
HETATM   14  H           1     -29.676  -1.591 -17.032  0.00  0.00     0.159 HD
HETATM   15  H           1     -28.445  -2.683 -17.636  0.00  0.00     0.159 HD
ENDBRANCH  10  11
ENDBRANCH   5  10
ENDBRANCH   2   5
BRANCH   3  16
HETATM   16  C           1     -27.260  -6.794 -17.166  0.00  0.00     0.189 C 
BRANCH  16  17
HETATM   17  C           1     -26.801  -5.721 -16.209  0.00  0.00     0.197 C 
HETATM   18  O           1     -27.594  -4.824 -15.849  0.00  0.00    -0.646 OA
HETATM   19  O           1     -25.628  -5.730 -15.776  0.00  0.00    -0.646 OA
ENDBRANCH  16  17
BRANCH  16  20
HETATM   20  C           1     -27.389  -6.205 -18.565  0.00  0.00     0.074 C 
BRANCH  20  21
HETATM   21  C           1     -26.392  -6.855 -19.474  0.00  0.00    -0.056 A 
HETATM   22  C           1     -26.824  -7.516 -20.623  0.00  0.00     0.007 A 
HETATM   23  C           1     -25.896  -8.122 -21.471  0.00  0.00     0.001 A 
HETATM   24  C           1     -24.536  -8.066 -21.167  0.00  0.00     0.000 A 
HETATM   25  C           1     -24.103  -7.406 -20.017  0.00  0.00     0.001 A 
HETATM   26  C           1     -25.032  -6.800 -19.170  0.00  0.00     0.007 A 
ENDBRANCH  20  21
ENDBRANCH  16  20
ENDBRANCH   3  16
TORSDOF 8
ENDMDL
MODEL 3
REMARK VINA RESULT:      -6.6     15.548     18.315
REMARK  8 active torsions:
REMARK  status: ('A' for Active; 'I' for Inactive)
REMARK    1  A    between atoms: N_2  and  C_18 
REMARK    2  A    between atoms: C_5  and  C_7 
REMARK    3  A    between atoms: C_7  and  C_8 
REMARK    4  A    between atoms: C_7  and  N_19 
REMARK    5  A    between atoms: C_8  and  C_9 
REMARK       I    between atoms: C_17  and  N_19 
REMARK    6  A    between atoms: C_17  and  C_18 
REMARK    7  A    between atoms: C_18  and  C_24 
REMARK    8  A    between atoms: C_24  and  C_25 
REMARK       I    between atoms: C_25  and  N_26 
ROOT
HETATM    1  O           1     -19.533  -6.551  -7.267  0.00  0.00    -0.271 OA
HETATM    2  C           1     -20.437  -6.521  -6.466  0.00  0.00     0.249 C 
HETATM    3  N           1     -20.926  -7.686  -5.941  0.00  0.00    -0.344 N 
HETATM    4  H           1     -21.688  -8.169  -6.401  0.00  0.00     0.163 HD
ENDROOT
BRANCH   2   5
HETATM    5  C           1     -21.028  -5.197  -6.047  0.00  0.00     0.283 C 
BRANCH   5   6
HETATM    6  N           1     -20.179  -4.592  -4.967  0.00  0.00    -0.066 N 
HETATM    7  H           1     -19.926  -5.328  -4.269  0.00  0.00     0.275 HD
HETATM    8  H           1     -19.308  -4.200  -5.390  0.00  0.00     0.275 HD
HETATM    9  H           1     -20.711  -3.829  -4.492  0.00  0.00     0.275 HD
ENDBRANCH   5   6
BRANCH   5  10
HETATM   10  C           1     -21.070  -4.257  -7.244  0.00  0.00     0.145 C 
BRANCH  10  11
HETATM   11  C           1     -22.345  -4.482  -8.018  0.00  0.00     0.217 C 
HETATM   12  O           1     -22.297  -4.857  -9.165  0.00  0.00    -0.274 OA
HETATM   13  N           1     -23.556  -4.262  -7.420  0.00  0.00    -0.370 N 
HETATM   14  H           1     -24.412  -4.414  -7.939  0.00  0.00     0.159 HD
HETATM   15  H           1     -23.597  -3.949  -6.458  0.00  0.00     0.159 HD
ENDBRANCH  10  11
ENDBRANCH   5  10
ENDBRANCH   2   5
BRANCH   3  16
HETATM   16  C           1     -20.352  -8.231  -4.726  0.00  0.00     0.189 C 
BRANCH  16  17
HETATM   17  C           1     -19.171  -9.102  -5.075  0.00  0.00     0.197 C 
HETATM   18  O           1     -18.170  -9.127  -4.326  0.00  0.00    -0.646 OA
HETATM   19  O           1     -19.193  -9.799  -6.113  0.00  0.00    -0.646 OA
ENDBRANCH  16  17
BRANCH  16  20
HETATM   20  C           1     -21.401  -9.064  -3.999  0.00  0.00     0.074 C 
BRANCH  20  21
HETATM   21  C           1     -21.733  -8.418  -2.690  0.00  0.00    -0.056 A 
HETATM   22  C           1     -21.933  -9.204  -1.556  0.00  0.00     0.007 A 
HETATM   23  C           1     -22.243  -8.603  -0.336  0.00  0.00     0.001 A 
HETATM   24  C           1     -22.352  -7.215  -0.251  0.00  0.00     0.000 A 
HETATM   25  C           1     -22.153  -6.429  -1.385  0.00  0.00     0.001 A 
HETATM   26  C           1     -21.843  -7.030  -2.606  0.00  0.00     0.007 A 
ENDBRANCH  20  21
ENDBRANCH  16  20
ENDBRANCH   3  16
TORSDOF 8
ENDMDL
MODEL 4
REMARK VINA RESULT:      -6.4      9.763     12.182
REMARK  8 active torsions:
REMARK  status: ('A' for Active; 'I' for Inactive)
REMARK    1  A    between atoms: N_2  and  C_18 
REMARK    2  A    between atoms: C_5  and  C_7 
REMARK    3  A    between atoms: C_7  and  C_8 
REMARK    4  A    between atoms: C_7  and  N_19 
REMARK    5  A    between atoms: C_8  and  C_9 
REMARK       I    between atoms: C_17  and  N_19 
REMARK    6  A    between atoms: C_17  and  C_18 
REMARK    7  A    between atoms: C_18  and  C_24 
REMARK    8  A    between atoms: C_24  and  C_25 
REMARK       I    between atoms: C_25  and  N_26 
ROOT
HETATM    1  O           1     -29.150  -5.200 -15.098  0.00  0.00    -0.271 OA
HETATM    2  C           1     -28.769  -5.047 -16.235  0.00  0.00     0.249 C 
HETATM    3  N           1     -27.432  -5.103 -16.523  0.00  0.00    -0.344 N 
HETATM    4  H           1     -26.872  -4.261 -16.491  0.00  0.00     0.163 HD
ENDROOT
BRANCH   2   5
HETATM    5  C           1     -29.768  -4.793 -17.337  0.00  0.00     0.283 C 
BRANCH   5   6
HETATM    6  N           1     -29.448  -3.489 -18.008  0.00  0.00    -0.066 N 
HETATM    7  H           1     -29.605  -3.579 -19.038  0.00  0.00     0.275 HD
HETATM    8  H           1     -30.069  -2.741 -17.627  0.00  0.00     0.275 HD
HETATM    9  H           1     -28.449  -3.241 -17.829  0.00  0.00     0.275 HD
ENDBRANCH   5   6
BRANCH   5  10
HETATM   10  C           1     -29.695  -5.919 -18.360  0.00  0.00     0.145 C 
BRANCH  10  11
HETATM   11  C           1     -30.316  -7.166 -17.781  0.00  0.00     0.217 C 
HETATM   12  O           1     -31.471  -7.158 -17.427  0.00  0.00    -0.274 OA
HETATM   13  N           1     -29.571  -8.308 -17.659  0.00  0.00    -0.370 N 
HETATM   14  H           1     -29.988  -9.146 -17.272  0.00  0.00     0.159 HD
HETATM   15  H           1     -28.604  -8.317 -17.957  0.00  0.00     0.159 HD
ENDBRANCH  10  11
ENDBRANCH   5  10
ENDBRANCH   2   5
BRANCH   3  16
HETATM   16  C           1     -26.818  -6.369 -16.873  0.00  0.00     0.189 C 
BRANCH  16  17
HETATM   17  C           1     -26.635  -7.200 -15.626  0.00  0.00     0.197 C 
HETATM   18  O           1     -27.612  -7.798 -15.125  0.00  0.00    -0.646 OA
HETATM   19  O           1     -25.507  -7.290 -15.095  0.00  0.00    -0.646 OA
ENDBRANCH  16  17
BRANCH  16  20
HETATM   20  C           1     -25.461  -6.114 -17.516  0.00  0.00     0.074 C 
BRANCH  20  21
HETATM   21  C           1     -25.420  -6.760 -18.867  0.00  0.00    -0.056 A 
HETATM   22  C           1     -24.231  -7.318 -19.336  0.00  0.00     0.007 A 
HETATM   23  C           1     -24.191  -7.920 -20.594  0.00  0.00     0.001 A 
HETATM   24  C           1     -25.341  -7.963 -21.382  0.00  0.00     0.000 A 
HETATM   25  C           1     -26.530  -7.404 -20.913  0.00  0.00     0.001 A 
HETATM   26  C           1     -26.570  -6.802 -19.655  0.00  0.00     0.007 A 
ENDBRANCH  20  21
ENDBRANCH  16  20
ENDBRANCH   3  16
TORSDOF 8
ENDMDL
MODEL 5
REMARK VINA RESULT:      -6.4      9.479     12.001
REMARK  8 active torsions:
REMARK  status: ('A' for Active; 'I' for Inactive)
REMARK    1  A    between atoms: N_2  and  C_18 
REMARK    2  A    between atoms: C_5  and  C_7 
REMARK    3  A    between atoms: C_7  and  C_8 
REMARK    4  A    between atoms: C_7  and  N_19 
REMARK    5  A    between atoms: C_8  and  C_9 
REMARK       I    between atoms: C_17  and  N_19 
REMARK    6  A    between atoms: C_17  and  C_18 
REMARK    7  A    between atoms: C_18  and  C_24 
REMARK    8  A    between atoms: C_24  and  C_25 
REMARK       I    between atoms: C_25  and  N_26 
ROOT
HETATM    1  O           1     -29.476  -5.526 -15.164  0.00  0.00    -0.271 OA
HETATM    2  C           1     -29.143  -5.415 -16.320  0.00  0.00     0.249 C 
HETATM    3  N           1     -27.819  -5.282 -16.642  0.00  0.00    -0.344 N 
HETATM    4  H           1     -27.402  -4.361 -16.698  0.00  0.00     0.163 HD
ENDROOT
BRANCH   2   5
HETATM    5  C           1     -30.188  -5.422 -17.409  0.00  0.00     0.283 C 
BRANCH   5   6
HETATM    6  N           1     -30.308  -6.807 -17.975  0.00  0.00    -0.066 N 
HETATM    7  H           1     -29.354  -7.202 -18.135  0.00  0.00     0.275 HD
HETATM    8  H           1     -30.827  -7.413 -17.301  0.00  0.00     0.275 HD
HETATM    9  H           1     -30.827  -6.769 -18.882  0.00  0.00     0.275 HD
ENDBRANCH   5   6
BRANCH   5  10
HETATM   10  C           1     -31.530  -4.994 -16.830  0.00  0.00     0.145 C 
BRANCH  10  11
HETATM   11  C           1     -31.860  -3.600 -17.301  0.00  0.00     0.217 C 
HETATM   12  O           1     -30.972  -2.820 -17.550  0.00  0.00    -0.274 OA
HETATM   13  N           1     -33.167  -3.218 -17.446  0.00  0.00    -0.370 N 
HETATM   14  H           1     -33.389  -2.282 -17.762  0.00  0.00     0.159 HD
HETATM   15  H           1     -33.911  -3.871 -17.238  0.00  0.00     0.159 HD
ENDBRANCH  10  11
ENDBRANCH   5  10
ENDBRANCH   2   5
BRANCH   3  16
HETATM   16  C           1     -27.015  -6.460 -16.902  0.00  0.00     0.189 C 
BRANCH  16  17
HETATM   17  C           1     -26.699  -7.150 -15.597  0.00  0.00     0.197 C 
HETATM   18  O           1     -27.592  -7.781 -14.993  0.00  0.00    -0.646 OA
HETATM   19  O           1     -25.544  -7.091 -15.122  0.00  0.00    -0.646 OA
ENDBRANCH  16  17
BRANCH  16  20
HETATM   20  C           1     -25.717  -6.046 -17.584  0.00  0.00     0.074 C 
BRANCH  20  21
HETATM   21  C           1     -25.606  -6.738 -18.908  0.00  0.00    -0.056 A 
HETATM   22  C           1     -24.374  -7.235 -19.332  0.00  0.00     0.007 A 
HETATM   23  C           1     -24.269  -7.880 -20.565  0.00  0.00     0.001 A 
HETATM   24  C           1     -25.398  -8.028 -21.372  0.00  0.00     0.000 A 
HETATM   25  C           1     -26.629  -7.530 -20.948  0.00  0.00     0.001 A 
HETATM   26  C           1     -26.734  -6.885 -19.715  0.00  0.00     0.007 A 
ENDBRANCH  20  21
ENDBRANCH  16  20
ENDBRANCH   3  16
TORSDOF 8
ENDMDL
MODEL 6
REMARK VINA RESULT:      -6.4      1.937      2.488
REMARK  8 active torsions:
REMARK  status: ('A' for Active; 'I' for Inactive)
REMARK    1  A    between atoms: N_2  and  C_18 
REMARK    2  A    between atoms: C_5  and  C_7 
REMARK    3  A    between atoms: C_7  and  C_8 
REMARK    4  A    between atoms: C_7  and  N_19 
REMARK    5  A    between atoms: C_8  and  C_9 
REMARK       I    between atoms: C_17  and  N_19 
REMARK    6  A    between atoms: C_17  and  C_18 
REMARK    7  A    between atoms: C_18  and  C_24 
REMARK    8  A    between atoms: C_24  and  C_25 
REMARK       I    between atoms: C_25  and  N_26 
ROOT
HETATM    1  O           1     -32.713  -3.732 -12.143  0.00  0.00    -0.271 OA
HETATM    2  C           1     -33.448  -3.441 -11.229  0.00  0.00     0.249 C 
HETATM    3  N           1     -33.574  -2.134 -10.840  0.00  0.00    -0.344 N 
HETATM    4  H           1     -32.958  -1.755 -10.132  0.00  0.00     0.163 HD
ENDROOT
BRANCH   2   5
HETATM    5  C           1     -34.225  -4.518 -10.513  0.00  0.00     0.283 C 
BRANCH   5   6
HETATM    6  N           1     -35.627  -4.559 -11.048  0.00  0.00    -0.066 N 
HETATM    7  H           1     -36.089  -3.635 -10.886  0.00  0.00     0.275 HD
HETATM    8  H           1     -35.603  -4.761 -12.072  0.00  0.00     0.275 HD
HETATM    9  H           1     -36.166  -5.308 -10.557  0.00  0.00     0.275 HD
ENDBRANCH   5   6
BRANCH   5  10
HETATM   10  C           1     -33.557  -5.867 -10.746  0.00  0.00     0.145 C 
BRANCH  10  11
HETATM   11  C           1     -34.566  -6.971 -10.551  0.00  0.00     0.217 C 
HETATM   12  O           1     -35.157  -7.424 -11.502  0.00  0.00    -0.274 OA
HETATM   13  N           1     -34.812  -7.460  -9.296  0.00  0.00    -0.370 N 
HETATM   14  H           1     -35.489  -8.201  -9.166  0.00  0.00     0.159 HD
HETATM   15  H           1     -34.316  -7.082  -8.499  0.00  0.00     0.159 HD
ENDBRANCH  10  11
ENDBRANCH   5  10
ENDBRANCH   2   5
BRANCH   3  16
HETATM   16  C           1     -34.589  -1.293 -11.445  0.00  0.00     0.189 C 
BRANCH  16  17
HETATM   17  C           1     -35.822  -1.289 -10.574  0.00  0.00     0.197 C 
HETATM   18  O           1     -35.819  -0.664  -9.491  0.00  0.00    -0.646 OA
HETATM   19  O           1     -36.845  -1.910 -10.936  0.00  0.00    -0.646 OA
ENDBRANCH  16  17
BRANCH  16  20
HETATM   20  C           1     -34.943  -1.838 -12.823  0.00  0.00     0.074 C 
BRANCH  20  21
HETATM   21  C           1     -35.201  -0.698 -13.759  0.00  0.00    -0.056 A 
HETATM   22  C           1     -34.716   0.574 -13.459  0.00  0.00     0.007 A 
HETATM   23  C           1     -34.956   1.637 -14.330  0.00  0.00     0.001 A 
HETATM   24  C           1     -35.682   1.425 -15.503  0.00  0.00     0.000 A 
HETATM   25  C           1     -36.168   0.153 -15.803  0.00  0.00     0.001 A 
HETATM   26  C           1     -35.928  -0.910 -14.931  0.00  0.00     0.007 A 
ENDBRANCH  20  21
ENDBRANCH  16  20
ENDBRANCH   3  16
TORSDOF 8
ENDMDL
MODEL 7
REMARK VINA RESULT:      -6.4      2.388      4.157
REMARK  8 active torsions:
REMARK  status: ('A' for Active; 'I' for Inactive)
REMARK    1  A    between atoms: N_2  and  C_18 
REMARK    2  A    between atoms: C_5  and  C_7 
REMARK    3  A    between atoms: C_7  and  C_8 
REMARK    4  A    between atoms: C_7  and  N_19 
REMARK    5  A    between atoms: C_8  and  C_9 
REMARK       I    between atoms: C_17  and  N_19 
REMARK    6  A    between atoms: C_17  and  C_18 
REMARK    7  A    between atoms: C_18  and  C_24 
REMARK    8  A    between atoms: C_24  and  C_25 
REMARK       I    between atoms: C_25  and  N_26 
ROOT
HETATM    1  O           1     -34.699  -3.080 -13.711  0.00  0.00    -0.271 OA
HETATM    2  C           1     -34.511  -2.418 -12.718  0.00  0.00     0.249 C 
HETATM    3  N           1     -34.793  -1.078 -12.725  0.00  0.00    -0.344 N 
HETATM    4  H           1     -34.081  -0.412 -12.996  0.00  0.00     0.163 HD
ENDROOT
BRANCH   2   5
HETATM    5  C           1     -33.962  -3.067 -11.472  0.00  0.00     0.283 C 
BRANCH   5   6
HETATM    6  N           1     -33.584  -2.004 -10.482  0.00  0.00    -0.066 N 
HETATM    7  H           1     -33.246  -1.157 -10.992  0.00  0.00     0.275 HD
HETATM    8  H           1     -34.419  -1.753  -9.906  0.00  0.00     0.275 HD
HETATM    9  H           1     -32.825  -2.362  -9.859  0.00  0.00     0.275 HD
ENDBRANCH   5   6
BRANCH   5  10
HETATM   10  C           1     -35.023  -3.973 -10.861  0.00  0.00     0.145 C 
BRANCH  10  11
HETATM   11  C           1     -34.650  -5.415 -11.094  0.00  0.00     0.217 C 
HETATM   12  O           1     -34.316  -6.111 -10.164  0.00  0.00    -0.274 OA
HETATM   13  N           1     -34.691  -5.937 -12.358  0.00  0.00    -0.370 N 
HETATM   14  H           1     -34.441  -6.906 -12.514  0.00  0.00     0.159 HD
HETATM   15  H           1     -34.972  -5.356 -13.137  0.00  0.00     0.159 HD
ENDBRANCH  10  11
ENDBRANCH   5  10
ENDBRANCH   2   5
BRANCH   3  16
HETATM   16  C           1     -36.112  -0.614 -12.343  0.00  0.00     0.189 C 
BRANCH  16  17
HETATM   17  C           1     -36.905  -0.279 -13.582  0.00  0.00     0.197 C 
HETATM   18  O           1     -38.075  -0.701 -13.709  0.00  0.00    -0.646 OA
HETATM   19  O           1     -36.392   0.421 -14.482  0.00  0.00    -0.646 OA
ENDBRANCH  16  17
BRANCH  16  20
HETATM   20  C           1     -35.980   0.630 -11.473  0.00  0.00     0.074 C 
BRANCH  20  21
HETATM   21  C           1     -36.687   0.408 -10.172  0.00  0.00    -0.056 A 
HETATM   22  C           1     -37.063   1.498  -9.388  0.00  0.00     0.007 A 
HETATM   23  C           1     -37.721   1.292  -8.175  0.00  0.00     0.001 A 
HETATM   24  C           1     -38.003  -0.006  -7.748  0.00  0.00     0.000 A 
HETATM   25  C           1     -37.626  -1.096  -8.531  0.00  0.00     0.001 A 
HETATM   26  C           1     -36.968  -0.890  -9.744  0.00  0.00     0.007 A 
ENDBRANCH  20  21
ENDBRANCH  16  20
ENDBRANCH   3  16
TORSDOF 8
ENDMDL
MODEL 8
REMARK VINA RESULT:      -6.4     15.400     17.440
REMARK  8 active torsions:
REMARK  status: ('A' for Active; 'I' for Inactive)
REMARK    1  A    between atoms: N_2  and  C_18 
REMARK    2  A    between atoms: C_5  and  C_7 
REMARK    3  A    between atoms: C_7  and  C_8 
REMARK    4  A    between atoms: C_7  and  N_19 
REMARK    5  A    between atoms: C_8  and  C_9 
REMARK       I    between atoms: C_17  and  N_19 
REMARK    6  A    between atoms: C_17  and  C_18 
REMARK    7  A    between atoms: C_18  and  C_24 
REMARK    8  A    between atoms: C_24  and  C_25 
REMARK       I    between atoms: C_25  and  N_26 
ROOT
HETATM    1  O           1     -21.400  -5.302  -2.378  0.00  0.00    -0.271 OA
HETATM    2  C           1     -21.852  -6.345  -2.790  0.00  0.00     0.249 C 
HETATM    3  N           1     -22.499  -6.381  -3.996  0.00  0.00    -0.344 N 
HETATM    4  H           1     -23.498  -6.224  -4.040  0.00  0.00     0.163 HD
ENDROOT
BRANCH   2   5
HETATM    5  C           1     -21.705  -7.605  -1.974  0.00  0.00     0.283 C 
BRANCH   5   6
HETATM    6  N           1     -20.249  -7.872  -1.727  0.00  0.00    -0.066 N 
HETATM    7  H           1     -19.921  -7.296  -0.918  0.00  0.00     0.275 HD
HETATM    8  H           1     -20.113  -8.885  -1.510  0.00  0.00     0.275 HD
HETATM    9  H           1     -19.699  -7.620  -2.579  0.00  0.00     0.275 HD
ENDBRANCH   5   6
BRANCH   5  10
HETATM   10  C           1     -22.421  -7.434  -0.641  0.00  0.00     0.145 C 
BRANCH  10  11
HETATM   11  C           1     -22.331  -8.716   0.148  0.00  0.00     0.217 C 
HETATM   12  O           1     -21.460  -8.859   0.973  0.00  0.00    -0.274 OA
HETATM   13  N           1     -23.237  -9.719  -0.070  0.00  0.00    -0.370 N 
HETATM   14  H           1     -23.177 -10.579   0.460  0.00  0.00     0.159 HD
HETATM   15  H           1     -23.968  -9.600  -0.760  0.00  0.00     0.159 HD
ENDBRANCH  10  11
ENDBRANCH   5  10
ENDBRANCH   2   5
BRANCH   3  16
HETATM   16  C           1     -21.752  -6.645  -5.211  0.00  0.00     0.189 C 
BRANCH  16  17
HETATM   17  C           1     -20.968  -7.925  -5.051  0.00  0.00     0.197 C 
HETATM   18  O           1     -19.729  -7.882  -4.897  0.00  0.00    -0.646 OA
HETATM   19  O           1     -21.559  -9.026  -5.072  0.00  0.00    -0.646 OA
ENDBRANCH  16  17
BRANCH  16  20
HETATM   20  C           1     -20.793  -5.491  -5.476  0.00  0.00     0.074 C 
BRANCH  20  21
HETATM   21  C           1     -20.971  -5.008  -6.883  0.00  0.00    -0.056 A 
HETATM   22  C           1     -22.189  -4.462  -7.283  0.00  0.00     0.007 A 
HETATM   23  C           1     -22.355  -4.012  -8.594  0.00  0.00     0.001 A 
HETATM   24  C           1     -21.301  -4.108  -9.502  0.00  0.00     0.000 A 
HETATM   25  C           1     -20.082  -4.655  -9.101  0.00  0.00     0.001 A 
HETATM   26  C           1     -19.916  -5.105  -7.791  0.00  0.00     0.007 A 
ENDBRANCH  20  21
ENDBRANCH  16  20
ENDBRANCH   3  16
TORSDOF 8
ENDMDL
MODEL 9
REMARK VINA RESULT:      -6.3     17.272     19.843
REMARK  8 active torsions:
REMARK  status: ('A' for Active; 'I' for Inactive)
REMARK    1  A    between atoms: N_2  and  C_18 
REMARK    2  A    between atoms: C_5  and  C_7 
REMARK    3  A    between atoms: C_7  and  C_8 
REMARK    4  A    between atoms: C_7  and  N_19 
REMARK    5  A    between atoms: C_8  and  C_9 
REMARK       I    between atoms: C_17  and  N_19 
REMARK    6  A    between atoms: C_17  and  C_18 
REMARK    7  A    between atoms: C_18  and  C_24 
REMARK    8  A    between atoms: C_24  and  C_25 
REMARK       I    between atoms: C_25  and  N_26 
ROOT
HETATM    1  O           1     -19.539 -10.041  -5.888  0.00  0.00    -0.271 OA
HETATM    2  C           1     -19.368  -9.514  -4.814  0.00  0.00     0.249 C 
HETATM    3  N           1     -19.704  -8.199  -4.635  0.00  0.00    -0.344 N 
HETATM    4  H           1     -19.022  -7.473  -4.815  0.00  0.00     0.163 HD
ENDROOT
BRANCH   2   5
HETATM    5  C           1     -18.783 -10.305  -3.671  0.00  0.00     0.283 C 
BRANCH   5   6
HETATM    6  N           1     -18.027 -11.482  -4.215  0.00  0.00    -0.066 N 
HETATM    7  H           1     -17.421 -11.885  -3.465  0.00  0.00     0.275 HD
HETATM    8  H           1     -18.703 -12.208  -4.542  0.00  0.00     0.275 HD
HETATM    9  H           1     -17.430 -11.173  -5.016  0.00  0.00     0.275 HD
ENDBRANCH   5   6
BRANCH   5  10
HETATM   10  C           1     -17.834  -9.420  -2.873  0.00  0.00     0.145 C 
BRANCH  10  11
HETATM   11  C           1     -16.408  -9.802  -3.182  0.00  0.00     0.217 C 
HETATM   12  O           1     -15.949  -9.588  -4.280  0.00  0.00    -0.274 OA
HETATM   13  N           1     -15.633 -10.390  -2.220  0.00  0.00    -0.370 N 
HETATM   14  H           1     -14.675 -10.646  -2.427  0.00  0.00     0.159 HD
HETATM   15  H           1     -16.016 -10.569  -1.300  0.00  0.00     0.159 HD
ENDBRANCH  10  11
ENDBRANCH   5  10
ENDBRANCH   2   5
BRANCH   3  16
HETATM   16  C           1     -21.038  -7.846  -4.188  0.00  0.00     0.189 C 
BRANCH  16  17
HETATM   17  C           1     -21.716  -7.008  -5.245  0.00  0.00     0.197 C 
HETATM   18  O           1     -22.704  -6.303  -4.944  0.00  0.00    -0.646 OA
HETATM   19  O           1     -21.290  -7.019  -6.420  0.00  0.00    -0.646 OA
ENDBRANCH  16  17
BRANCH  16  20
HETATM   20  C           1     -20.944  -7.050  -2.893  0.00  0.00     0.074 C 
BRANCH  20  21
HETATM   21  C           1     -21.683  -7.772  -1.809  0.00  0.00    -0.056 A 
HETATM   22  C           1     -22.304  -7.051  -0.790  0.00  0.00     0.007 A 
HETATM   23  C           1     -22.994  -7.722   0.221  0.00  0.00     0.001 A 
HETATM   24  C           1     -23.061  -9.115   0.210  0.00  0.00     0.000 A 
HETATM   25  C           1     -22.439  -9.837  -0.808  0.00  0.00     0.001 A 
HETATM   26  C           1     -21.750  -9.165  -1.819  0.00  0.00     0.007 A 
ENDBRANCH  20  21
ENDBRANCH  16  20
ENDBRANCH   3  16
TORSDOF 8
ENDMDL
