MODEL 1
REMARK VINA RESULT:      -7.1      0.000      0.000
REMARK  11 active torsions:
REMARK  status: ('A' for Active; 'I' for Inactive)
REMARK       I    between atoms: C_1  and  N_10 
REMARK    1  A    between atoms: C_1  and  C_2 
REMARK    2  A    between atoms: C_2  and  C_3 
REMARK    3  A    between atoms: C_2  and  N_15 
REMARK    4  A    between atoms: C_3  and  C_23 
REMARK    5  A    between atoms: N_10  and  C_12 
REMARK    6  A    between atoms: C_11  and  C_18 
REMARK    7  A    between atoms: C_11  and  C_12 
REMARK    8  A    between atoms: C_12  and  C_28 
REMARK    9  A    between atoms: C_14  and  O_20 
REMARK   10  A    between atoms: C_16  and  N_25 
REMARK   11  A    between atoms: C_16  and  C_18 
ROOT
HETATM    1  C           1     -21.244  -5.935  -5.513  0.00  0.00     0.249 C 
HETATM    2  O           1     -20.682  -5.194  -4.744  0.00  0.00    -0.271 OA
HETATM    3  N           1     -21.134  -7.292  -5.362  0.00  0.00    -0.345 N 
HETATM    4  H           1     -21.606  -7.913  -6.007  0.00  0.00     0.163 HD
ENDROOT
BRANCH   1   5
HETATM    5  C           1     -22.069  -5.366  -6.642  0.00  0.00     0.278 C 
BRANCH   5   6
HETATM    6  C           1     -21.438  -4.068  -7.128  0.00  0.00     0.081 C 
BRANCH   6   7
HETATM    7  C           1     -21.505  -4.009  -8.622  0.00  0.00    -0.056 A 
HETATM    8  C           1     -22.694  -3.643  -9.254  0.00  0.00     0.010 A 
HETATM    9  C           1     -22.756  -3.589 -10.646  0.00  0.00     0.037 A 
HETATM   10  C           1     -21.629  -3.901 -11.407  0.00  0.00     0.065 A 
HETATM   11  C           1     -20.441  -4.267 -10.776  0.00  0.00     0.037 A 
HETATM   12  C           1     -20.379  -4.322  -9.383  0.00  0.00     0.010 A 
BRANCH  10  13
HETATM   13  O           1     -21.690  -3.849 -12.760  0.00  0.00    -0.361 OA
HETATM   14  H           1     -22.190  -3.053 -13.007  0.00  0.00     0.217 HD
ENDBRANCH  10  13
ENDBRANCH   6   7
ENDBRANCH   5   6
BRANCH   5  15
HETATM   15  N           1     -23.461  -5.093  -6.155  0.00  0.00    -0.066 N 
HETATM   16  H           1     -24.151  -5.420  -6.868  0.00  0.00     0.275 HD
HETATM   17  H           1     -23.622  -5.602  -5.256  0.00  0.00     0.275 HD
HETATM   18  H           1     -23.581  -4.066  -6.000  0.00  0.00     0.275 HD
ENDBRANCH   5  15
ENDBRANCH   1   5
BRANCH   3  19
HETATM   19  C           1     -20.341  -7.838  -4.278  0.00  0.00     0.185 C 
BRANCH  19  20
HETATM   20  C           1     -21.265  -8.390  -3.201  0.00  0.00     0.038 C 
BRANCH  20  21
HETATM   21  C           1     -20.916  -7.761  -1.859  0.00  0.00     0.030 C 
BRANCH  21  22
HETATM   22  C           1     -22.133  -7.031  -1.308  0.00  0.00     0.230 C 
BRANCH  22  23
HETATM   23  N           1     -22.357  -5.769  -2.088  0.00  0.00    -0.079 N 
HETATM   24  H           1     -21.827  -4.986  -1.642  0.00  0.00     0.274 HD
HETATM   25  H           1     -23.376  -5.538  -2.095  0.00  0.00     0.274 HD
HETATM   26  H           1     -22.023  -5.902  -3.069  0.00  0.00     0.274 HD
ENDBRANCH  22  23
ENDBRANCH  21  22
ENDBRANCH  20  21
ENDBRANCH  19  20
BRANCH  19  27
HETATM   27  C           1     -19.466  -8.948  -4.807  0.00  0.00     0.196 C 
HETATM   28  O           1     -19.193  -9.928  -4.082  0.00  0.00    -0.646 OA
HETATM   29  O           1     -19.016  -8.887  -5.972  0.00  0.00    -0.646 OA
ENDBRANCH  19  27
ENDBRANCH   3  19
TORSDOF 11
ENDMDL
MODEL 2
REMARK VINA RESULT:      -6.5      2.634      7.737
REMARK  11 active torsions:
REMARK  status: ('A' for Active; 'I' for Inactive)
REMARK       I    between atoms: C_1  and  N_10 
REMARK    1  A    between atoms: C_1  and  C_2 
REMARK    2  A    between atoms: C_2  and  C_3 
REMARK    3  A    between atoms: C_2  and  N_15 
REMARK    4  A    between atoms: C_3  and  C_23 
REMARK    5  A    between atoms: N_10  and  C_12 
REMARK    6  A    between atoms: C_11  and  C_18 
REMARK    7  A    between atoms: C_11  and  C_12 
REMARK    8  A    between atoms: C_12  and  C_28 
REMARK    9  A    between atoms: C_14  and  O_20 
REMARK   10  A    between atoms: C_16  and  N_25 
REMARK   11  A    between atoms: C_16  and  C_18 
ROOT
HETATM    1  C           1     -21.813  -4.466  -7.542  0.00  0.00     0.249 C 
HETATM    2  O           1     -21.584  -3.339  -7.176  0.00  0.00    -0.271 OA
HETATM    3  N           1     -22.657  -4.685  -8.599  0.00  0.00    -0.345 N 
HETATM    4  H           1     -22.849  -5.630  -8.906  0.00  0.00     0.163 HD
ENDROOT
BRANCH   1   5
HETATM    5  C           1     -21.171  -5.635  -6.836  0.00  0.00     0.278 C 
BRANCH   5   6
HETATM    6  C           1     -20.785  -5.223  -5.421  0.00  0.00     0.081 C 
BRANCH   6   7
HETATM    7  C           1     -21.100  -6.340  -4.474  0.00  0.00    -0.056 A 
HETATM    8  C           1     -21.285  -6.073  -3.117  0.00  0.00     0.010 A 
HETATM    9  C           1     -21.578  -7.114  -2.236  0.00  0.00     0.037 A 
HETATM   10  C           1     -21.685  -8.421  -2.711  0.00  0.00     0.065 A 
HETATM   11  C           1     -21.499  -8.687  -4.067  0.00  0.00     0.037 A 
HETATM   12  C           1     -21.206  -7.647  -4.949  0.00  0.00     0.010 A 
BRANCH  10  13
HETATM   13  O           1     -21.969  -9.431  -1.854  0.00  0.00    -0.361 OA
HETATM   14  H           1     -21.173  -9.982  -1.766  0.00  0.00     0.217 HD
ENDBRANCH  10  13
ENDBRANCH   6   7
ENDBRANCH   5   6
BRANCH   5  15
HETATM   15  N           1     -19.941  -6.056  -7.586  0.00  0.00    -0.066 N 
HETATM   16  H           1     -19.212  -6.374  -6.908  0.00  0.00     0.275 HD
HETATM   17  H           1     -20.180  -6.842  -8.232  0.00  0.00     0.275 HD
HETATM   18  H           1     -19.576  -5.248  -8.138  0.00  0.00     0.275 HD
ENDBRANCH   5  15
ENDBRANCH   1   5
BRANCH   3  19
HETATM   19  C           1     -23.275  -3.562  -9.277  0.00  0.00     0.185 C 
BRANCH  19  20
HETATM   20  C           1     -22.500  -3.248 -10.550  0.00  0.00     0.038 C 
BRANCH  20  21
HETATM   21  C           1     -21.818  -4.513 -11.055  0.00  0.00     0.030 C 
BRANCH  21  22
HETATM   22  C           1     -20.333  -4.244 -11.257  0.00  0.00     0.230 C 
BRANCH  22  23
HETATM   23  N           1     -20.114  -2.773 -11.462  0.00  0.00    -0.079 N 
HETATM   24  H           1     -21.032  -2.275 -11.413  0.00  0.00     0.274 HD
HETATM   25  H           1     -19.682  -2.612 -12.399  0.00  0.00     0.274 HD
HETATM   26  H           1     -19.478  -2.409 -10.718  0.00  0.00     0.274 HD
ENDBRANCH  22  23
ENDBRANCH  21  22
ENDBRANCH  20  21
ENDBRANCH  19  20
BRANCH  19  27
HETATM   27  C           1     -24.700  -3.911  -9.629  0.00  0.00     0.196 C 
HETATM   28  O           1     -25.539  -3.004  -9.814  0.00  0.00    -0.646 OA
HETATM   29  O           1     -25.041  -5.110  -9.737  0.00  0.00    -0.646 OA
ENDBRANCH  19  27
ENDBRANCH   3  19
TORSDOF 11
ENDMDL
MODEL 3
REMARK VINA RESULT:      -6.4      1.922      2.747
REMARK  11 active torsions:
REMARK  status: ('A' for Active; 'I' for Inactive)
REMARK       I    between atoms: C_1  and  N_10 
REMARK    1  A    between atoms: C_1  and  C_2 
REMARK    2  A    between atoms: C_2  and  C_3 
REMARK    3  A    between atoms: C_2  and  N_15 
REMARK    4  A    between atoms: C_3  and  C_23 
REMARK    5  A    between atoms: N_10  and  C_12 
REMARK    6  A    between atoms: C_11  and  C_18 
REMARK    7  A    between atoms: C_11  and  C_12 
REMARK    8  A    between atoms: C_12  and  C_28 
REMARK    9  A    between atoms: C_14  and  O_20 
REMARK   10  A    between atoms: C_16  and  N_25 
REMARK   11  A    between atoms: C_16  and  C_18 
ROOT
HETATM    1  C           1     -21.346  -5.796  -5.694  0.00  0.00     0.249 C 
HETATM    2  O           1     -22.525  -5.535  -5.681  0.00  0.00    -0.271 OA
HETATM    3  N           1     -20.849  -6.762  -4.860  0.00  0.00    -0.345 N 
HETATM    4  H           1     -19.862  -6.981  -4.871  0.00  0.00     0.163 HD
ENDROOT
BRANCH   1   5
HETATM    5  C           1     -20.419  -5.058  -6.629  0.00  0.00     0.278 C 
BRANCH   5   6
HETATM    6  C           1     -21.114  -3.806  -7.150  0.00  0.00     0.081 C 
BRANCH   6   7
HETATM    7  C           1     -21.478  -4.000  -8.589  0.00  0.00    -0.056 A 
HETATM    8  C           1     -22.789  -4.323  -8.940  0.00  0.00     0.010 A 
HETATM    9  C           1     -23.127  -4.503 -10.281  0.00  0.00     0.037 A 
HETATM   10  C           1     -22.154  -4.360 -11.271  0.00  0.00     0.065 A 
HETATM   11  C           1     -20.844  -4.039 -10.919  0.00  0.00     0.037 A 
HETATM   12  C           1     -20.505  -3.858  -9.578  0.00  0.00     0.010 A 
BRANCH  10  13
HETATM   13  O           1     -22.483  -4.537 -12.574  0.00  0.00    -0.361 OA
HETATM   14  H           1     -21.748  -5.001 -13.008  0.00  0.00     0.217 HD
ENDBRANCH  10  13
ENDBRANCH   6   7
ENDBRANCH   5   6
BRANCH   5  15
HETATM   15  N           1     -20.063  -5.947  -7.783  0.00  0.00    -0.066 N 
HETATM   16  H           1     -19.928  -6.925  -7.441  0.00  0.00     0.275 HD
HETATM   17  H           1     -20.835  -5.929  -8.488  0.00  0.00     0.275 HD
HETATM   18  H           1     -19.179  -5.607  -8.225  0.00  0.00     0.275 HD
ENDBRANCH   5  15
ENDBRANCH   1   5
BRANCH   3  19
HETATM   19  C           1     -21.740  -7.470  -3.961  0.00  0.00     0.185 C 
BRANCH  19  20
HETATM   20  C           1     -21.364  -8.946  -3.934  0.00  0.00     0.038 C 
BRANCH  20  21
HETATM   21  C           1     -20.072  -9.157  -4.711  0.00  0.00     0.030 C 
BRANCH  21  22
HETATM   22  C           1     -19.125 -10.026  -3.896  0.00  0.00     0.230 C 
BRANCH  22  23
HETATM   23  N           1     -18.584  -9.234  -2.743  0.00  0.00    -0.079 N 
HETATM   24  H           1     -17.543  -9.170  -2.822  0.00  0.00     0.274 HD
HETATM   25  H           1     -18.835  -9.706  -1.845  0.00  0.00     0.274 HD
HETATM   26  H           1     -18.995  -8.273  -2.758  0.00  0.00     0.274 HD
ENDBRANCH  22  23
ENDBRANCH  21  22
ENDBRANCH  20  21
ENDBRANCH  19  20
BRANCH  19  27
HETATM   27  C           1     -21.613  -6.893  -2.573  0.00  0.00     0.196 C 
HETATM   28  O           1     -22.290  -5.894  -2.247  0.00  0.00    -0.646 OA
HETATM   29  O           1     -20.833  -7.417  -1.747  0.00  0.00    -0.646 OA
ENDBRANCH  19  27
ENDBRANCH   3  19
TORSDOF 11
ENDMDL
MODEL 4
REMARK VINA RESULT:      -6.3      1.862      2.194
REMARK  11 active torsions:
REMARK  status: ('A' for Active; 'I' for Inactive)
REMARK       I    between atoms: C_1  and  N_10 
REMARK    1  A    between atoms: C_1  and  C_2 
REMARK    2  A    between atoms: C_2  and  C_3 
REMARK    3  A    between atoms: C_2  and  N_15 
REMARK    4  A    between atoms: C_3  and  C_23 
REMARK    5  A    between atoms: N_10  and  C_12 
REMARK    6  A    between atoms: C_11  and  C_18 
REMARK    7  A    between atoms: C_11  and  C_12 
REMARK    8  A    between atoms: C_12  and  C_28 
REMARK    9  A    between atoms: C_14  and  O_20 
REMARK   10  A    between atoms: C_16  and  N_25 
REMARK   11  A    between atoms: C_16  and  C_18 
ROOT
HETATM    1  C           1     -20.080  -5.050  -6.020  0.00  0.00     0.249 C 
HETATM    2  O           1     -19.881  -4.447  -4.993  0.00  0.00    -0.271 OA
HETATM    3  N           1     -20.422  -6.376  -5.980  0.00  0.00    -0.345 N 
HETATM    4  H           1     -20.589  -6.881  -6.840  0.00  0.00     0.163 HD
ENDROOT
BRANCH   1   5
HETATM    5  C           1     -19.951  -4.344  -7.347  0.00  0.00     0.278 C 
BRANCH   5   6
HETATM    6  C           1     -20.424  -5.269  -8.462  0.00  0.00     0.081 C 
BRANCH   6   7
HETATM    7  C           1     -21.655  -4.699  -9.094  0.00  0.00    -0.056 A 
HETATM    8  C           1     -22.767  -4.395  -8.308  0.00  0.00     0.010 A 
HETATM    9  C           1     -23.914  -3.864  -8.898  0.00  0.00     0.037 A 
HETATM   10  C           1     -23.950  -3.638 -10.274  0.00  0.00     0.065 A 
HETATM   11  C           1     -22.839  -3.943 -11.059  0.00  0.00     0.037 A 
HETATM   12  C           1     -21.691  -4.474 -10.470  0.00  0.00     0.010 A 
BRANCH  10  13
HETATM   13  O           1     -25.065  -3.123 -10.846  0.00  0.00    -0.361 OA
HETATM   14  H           1     -25.613  -2.738 -10.142  0.00  0.00     0.217 HD
ENDBRANCH  10  13
ENDBRANCH   6   7
ENDBRANCH   5   6
BRANCH   5  15
HETATM   15  N           1     -18.516  -3.975  -7.580  0.00  0.00    -0.066 N 
HETATM   16  H           1     -18.060  -3.757  -6.666  0.00  0.00     0.275 HD
HETATM   17  H           1     -18.020  -4.776  -8.034  0.00  0.00     0.275 HD
HETATM   18  H           1     -18.468  -3.138  -8.202  0.00  0.00     0.275 HD
ENDBRANCH   5  15
ENDBRANCH   1   5
BRANCH   3  19
HETATM   19  C           1     -20.545  -7.054  -4.704  0.00  0.00     0.185 C 
BRANCH  19  20
HETATM   20  C           1     -21.961  -6.883  -4.172  0.00  0.00     0.038 C 
BRANCH  20  21
HETATM   21  C           1     -21.911  -6.277  -2.776  0.00  0.00     0.030 C 
BRANCH  21  22
HETATM   22  C           1     -21.678  -7.379  -1.752  0.00  0.00     0.230 C 
BRANCH  22  23
HETATM   23  N           1     -22.545  -7.138  -0.551  0.00  0.00    -0.079 N 
HETATM   24  H           1     -22.155  -7.656   0.269  0.00  0.00     0.274 HD
HETATM   25  H           1     -23.514  -7.477  -0.746  0.00  0.00     0.274 HD
HETATM   26  H           1     -22.569  -6.116  -0.339  0.00  0.00     0.274 HD
ENDBRANCH  22  23
ENDBRANCH  21  22
ENDBRANCH  20  21
ENDBRANCH  19  20
BRANCH  19  27
HETATM   27  C           1     -20.250  -8.523  -4.887  0.00  0.00     0.196 C 
HETATM   28  O           1     -21.179  -9.357  -4.847  0.00  0.00    -0.646 OA
HETATM   29  O           1     -19.075  -8.904  -5.081  0.00  0.00    -0.646 OA
ENDBRANCH  19  27
ENDBRANCH   3  19
TORSDOF 11
ENDMDL
MODEL 5
REMARK VINA RESULT:      -6.2      2.019      3.305
REMARK  11 active torsions:
REMARK  status: ('A' for Active; 'I' for Inactive)
REMARK       I    between atoms: C_1  and  N_10 
REMARK    1  A    between atoms: C_1  and  C_2 
REMARK    2  A    between atoms: C_2  and  C_3 
REMARK    3  A    between atoms: C_2  and  N_15 
REMARK    4  A    between atoms: C_3  and  C_23 
REMARK    5  A    between atoms: N_10  and  C_12 
REMARK    6  A    between atoms: C_11  and  C_18 
REMARK    7  A    between atoms: C_11  and  C_12 
REMARK    8  A    between atoms: C_12  and  C_28 
REMARK    9  A    between atoms: C_14  and  O_20 
REMARK   10  A    between atoms: C_16  and  N_25 
REMARK   11  A    between atoms: C_16  and  C_18 
ROOT
HETATM    1  C           1     -20.997  -6.717  -5.638  0.00  0.00     0.249 C 
HETATM    2  O           1     -21.180  -7.643  -6.390  0.00  0.00    -0.271 OA
HETATM    3  N           1     -20.815  -6.946  -4.300  0.00  0.00    -0.345 N 
HETATM    4  H           1     -20.662  -6.169  -3.670  0.00  0.00     0.163 HD
ENDROOT
BRANCH   1   5
HETATM    5  C           1     -20.966  -5.306  -6.172  0.00  0.00     0.278 C 
BRANCH   5   6
HETATM    6  C           1     -20.509  -5.322  -7.625  0.00  0.00     0.081 C 
BRANCH   6   7
HETATM    7  C           1     -21.571  -4.716  -8.489  0.00  0.00    -0.056 A 
HETATM    8  C           1     -21.306  -4.438  -9.831  0.00  0.00     0.010 A 
HETATM    9  C           1     -22.296  -3.873 -10.634  0.00  0.00     0.037 A 
HETATM   10  C           1     -23.550  -3.585 -10.097  0.00  0.00     0.065 A 
HETATM   11  C           1     -23.814  -3.861  -8.756  0.00  0.00     0.037 A 
HETATM   12  C           1     -22.825  -4.427  -7.951  0.00  0.00     0.010 A 
BRANCH  10  13
HETATM   13  O           1     -24.511  -3.035 -10.878  0.00  0.00    -0.361 OA
HETATM   14  H           1     -24.309  -2.090 -10.982  0.00  0.00     0.217 HD
ENDBRANCH  10  13
ENDBRANCH   6   7
ENDBRANCH   5   6
BRANCH   5  15
HETATM   15  N           1     -20.011  -4.484  -5.358  0.00  0.00    -0.066 N 
HETATM   16  H           1     -20.391  -4.362  -4.393  0.00  0.00     0.275 HD
HETATM   17  H           1     -19.088  -4.971  -5.309  0.00  0.00     0.275 HD
HETATM   18  H           1     -19.888  -3.548  -5.805  0.00  0.00     0.275 HD
ENDBRANCH   5  15
ENDBRANCH   1   5
BRANCH   3  19
HETATM   19  C           1     -20.845  -8.302  -3.787  0.00  0.00     0.185 C 
BRANCH  19  20
HETATM   20  C           1     -19.420  -8.807  -3.605  0.00  0.00     0.038 C 
BRANCH  20  21
HETATM   21  C           1     -19.237 -10.103  -4.385  0.00  0.00     0.030 C 
BRANCH  21  22
HETATM   22  C           1     -18.003  -9.993  -5.270  0.00  0.00     0.230 C 
BRANCH  22  23
HETATM   23  N           1     -18.281  -9.046  -6.401  0.00  0.00    -0.079 N 
HETATM   24  H           1     -19.309  -8.865  -6.459  0.00  0.00     0.274 HD
HETATM   25  H           1     -17.952  -9.468  -7.299  0.00  0.00     0.274 HD
HETATM   26  H           1     -17.777  -8.147  -6.234  0.00  0.00     0.274 HD
ENDBRANCH  22  23
ENDBRANCH  21  22
ENDBRANCH  20  21
ENDBRANCH  19  20
BRANCH  19  27
HETATM   27  C           1     -21.558  -8.319  -2.457  0.00  0.00     0.196 C 
HETATM   28  O           1     -21.834  -9.408  -1.910  0.00  0.00    -0.646 OA
HETATM   29  O           1     -21.871  -7.243  -1.902  0.00  0.00    -0.646 OA
ENDBRANCH  19  27
ENDBRANCH   3  19
TORSDOF 11
ENDMDL
MODEL 6
REMARK VINA RESULT:      -6.0      1.868      2.450
REMARK  11 active torsions:
REMARK  status: ('A' for Active; 'I' for Inactive)
REMARK       I    between atoms: C_1  and  N_10 
REMARK    1  A    between atoms: C_1  and  C_2 
REMARK    2  A    between atoms: C_2  and  C_3 
REMARK    3  A    between atoms: C_2  and  N_15 
REMARK    4  A    between atoms: C_3  and  C_23 
REMARK    5  A    between atoms: N_10  and  C_12 
REMARK    6  A    between atoms: C_11  and  C_18 
REMARK    7  A    between atoms: C_11  and  C_12 
REMARK    8  A    between atoms: C_12  and  C_28 
REMARK    9  A    between atoms: C_14  and  O_20 
REMARK   10  A    between atoms: C_16  and  N_25 
REMARK   11  A    between atoms: C_16  and  C_18 
ROOT
HETATM    1  C           1     -21.157  -6.591  -3.903  0.00  0.00     0.249 C 
HETATM    2  O           1     -21.080  -5.759  -3.032  0.00  0.00    -0.271 OA
HETATM    3  N           1     -20.858  -7.899  -3.630  0.00  0.00    -0.345 N 
HETATM    4  H           1     -20.923  -8.596  -4.361  0.00  0.00     0.163 HD
ENDROOT
BRANCH   1   5
HETATM    5  C           1     -21.583  -6.189  -5.294  0.00  0.00     0.278 C 
BRANCH   5   6
HETATM    6  C           1     -20.921  -4.868  -5.667  0.00  0.00     0.081 C 
BRANCH   6   7
HETATM    7  C           1     -21.032  -4.654  -7.144  0.00  0.00    -0.056 A 
HETATM    8  C           1     -19.994  -5.052  -7.987  0.00  0.00     0.010 A 
HETATM    9  C           1     -20.099  -4.852  -9.364  0.00  0.00     0.037 A 
HETATM   10  C           1     -21.241  -4.255  -9.897  0.00  0.00     0.065 A 
HETATM   11  C           1     -22.278  -3.857  -9.054  0.00  0.00     0.037 A 
HETATM   12  C           1     -22.174  -4.056  -7.677  0.00  0.00     0.010 A 
BRANCH  10  13
HETATM   13  O           1     -21.342  -4.060 -11.234  0.00  0.00    -0.361 OA
HETATM   14  H           1     -21.015  -3.167 -11.433  0.00  0.00     0.217 HD
ENDBRANCH  10  13
ENDBRANCH   6   7
ENDBRANCH   5   6
BRANCH   5  15
HETATM   15  N           1     -23.074  -6.028  -5.332  0.00  0.00    -0.066 N 
HETATM   16  H           1     -23.366  -5.708  -6.283  0.00  0.00     0.275 HD
HETATM   17  H           1     -23.529  -6.945  -5.119  0.00  0.00     0.275 HD
HETATM   18  H           1     -23.366  -5.320  -4.622  0.00  0.00     0.275 HD
ENDBRANCH   5  15
ENDBRANCH   1   5
BRANCH   3  19
HETATM   19  C           1     -20.448  -8.285  -2.294  0.00  0.00     0.185 C 
BRANCH  19  20
HETATM   20  C           1     -21.653  -8.810  -1.525  0.00  0.00     0.038 C 
BRANCH  20  21
HETATM   21  C           1     -21.918  -7.915  -0.322  0.00  0.00     0.030 C 
BRANCH  21  22
HETATM   22  C           1     -21.362  -8.572   0.934  0.00  0.00     0.230 C 
BRANCH  22  23
HETATM   23  N           1     -21.227 -10.050   0.708  0.00  0.00    -0.079 N 
HETATM   24  H           1     -20.432 -10.418   1.278  0.00  0.00     0.274 HD
HETATM   25  H           1     -21.043 -10.233  -0.304  0.00  0.00     0.274 HD
HETATM   26  H           1     -22.111 -10.527   0.993  0.00  0.00     0.274 HD
ENDBRANCH  22  23
ENDBRANCH  21  22
ENDBRANCH  20  21
ENDBRANCH  19  20
BRANCH  19  27
HETATM   27  C           1     -19.399  -9.366  -2.384  0.00  0.00     0.196 C 
HETATM   28  O           1     -19.595 -10.474  -1.842  0.00  0.00    -0.646 OA
HETATM   29  O           1     -18.333  -9.152  -3.003  0.00  0.00    -0.646 OA
ENDBRANCH  19  27
ENDBRANCH   3  19
TORSDOF 11
ENDMDL
MODEL 7
REMARK VINA RESULT:      -6.0      2.551      7.996
REMARK  11 active torsions:
REMARK  status: ('A' for Active; 'I' for Inactive)
REMARK       I    between atoms: C_1  and  N_10 
REMARK    1  A    between atoms: C_1  and  C_2 
REMARK    2  A    between atoms: C_2  and  C_3 
REMARK    3  A    between atoms: C_2  and  N_15 
REMARK    4  A    between atoms: C_3  and  C_23 
REMARK    5  A    between atoms: N_10  and  C_12 
REMARK    6  A    between atoms: C_11  and  C_18 
REMARK    7  A    between atoms: C_11  and  C_12 
REMARK    8  A    between atoms: C_12  and  C_28 
REMARK    9  A    between atoms: C_14  and  O_20 
REMARK   10  A    between atoms: C_16  and  N_25 
REMARK   11  A    between atoms: C_16  and  C_18 
ROOT
HETATM    1  C           1     -21.424  -6.291  -5.800  0.00  0.00     0.249 C 
HETATM    2  O           1     -21.523  -5.250  -5.197  0.00  0.00    -0.271 OA
HETATM    3  N           1     -21.272  -6.283  -7.161  0.00  0.00    -0.345 N 
HETATM    4  H           1     -21.189  -7.156  -7.666  0.00  0.00     0.163 HD
ENDROOT
BRANCH   1   5
HETATM    5  C           1     -21.468  -7.602  -5.054  0.00  0.00     0.278 C 
BRANCH   5   6
HETATM    6  C           1     -20.370  -7.624  -3.999  0.00  0.00     0.081 C 
BRANCH   6   7
HETATM    7  C           1     -20.987  -7.722  -2.638  0.00  0.00    -0.056 A 
HETATM    8  C           1     -21.814  -6.700  -2.171  0.00  0.00     0.010 A 
HETATM    9  C           1     -22.389  -6.793  -0.904  0.00  0.00     0.037 A 
HETATM   10  C           1     -22.136  -7.907  -0.103  0.00  0.00     0.065 A 
HETATM   11  C           1     -21.309  -8.928  -0.570  0.00  0.00     0.037 A 
HETATM   12  C           1     -20.734  -8.836  -1.838  0.00  0.00     0.010 A 
BRANCH  10  13
HETATM   13  O           1     -22.694  -7.997   1.128  0.00  0.00    -0.361 OA
HETATM   14  H           1     -22.238  -8.704   1.613  0.00  0.00     0.217 HD
ENDBRANCH  10  13
ENDBRANCH   6   7
ENDBRANCH   5   6
BRANCH   5  15
HETATM   15  N           1     -21.256  -8.732  -6.018  0.00  0.00    -0.066 N 
HETATM   16  H           1     -22.128  -9.305  -6.081  0.00  0.00     0.275 HD
HETATM   17  H           1     -21.025  -8.346  -6.961  0.00  0.00     0.275 HD
HETATM   18  H           1     -20.469  -9.333  -5.683  0.00  0.00     0.275 HD
ENDBRANCH   5  15
ENDBRANCH   1   5
BRANCH   3  19
HETATM   19  C           1     -21.230  -5.023  -7.878  0.00  0.00     0.185 C 
BRANCH  19  20
HETATM   20  C           1     -20.215  -5.117  -9.010  0.00  0.00     0.038 C 
BRANCH  20  21
HETATM   21  C           1     -20.127  -3.775  -9.725  0.00  0.00     0.030 C 
BRANCH  21  22
HETATM   22  C           1     -20.129  -4.001 -11.231  0.00  0.00     0.230 C 
BRANCH  22  23
HETATM   23  N           1     -21.357  -3.379 -11.829  0.00  0.00    -0.079 N 
HETATM   24  H           1     -21.188  -3.180 -12.841  0.00  0.00     0.274 HD
HETATM   25  H           1     -21.575  -2.487 -11.331  0.00  0.00     0.274 HD
HETATM   26  H           1     -22.162  -4.038 -11.733  0.00  0.00     0.274 HD
ENDBRANCH  22  23
ENDBRANCH  21  22
ENDBRANCH  20  21
ENDBRANCH  19  20
BRANCH  19  27
HETATM   27  C           1     -22.594  -4.726  -8.449  0.00  0.00     0.196 C 
HETATM   28  O           1     -22.872  -5.072  -9.617  0.00  0.00    -0.646 OA
HETATM   29  O           1     -23.448  -4.134  -7.752  0.00  0.00    -0.646 OA
ENDBRANCH  19  27
ENDBRANCH   3  19
TORSDOF 11
ENDMDL
MODEL 8
REMARK VINA RESULT:      -5.9      2.454      7.676
REMARK  11 active torsions:
REMARK  status: ('A' for Active; 'I' for Inactive)
REMARK       I    between atoms: C_1  and  N_10 
REMARK    1  A    between atoms: C_1  and  C_2 
REMARK    2  A    between atoms: C_2  and  C_3 
REMARK    3  A    between atoms: C_2  and  N_15 
REMARK    4  A    between atoms: C_3  and  C_23 
REMARK    5  A    between atoms: N_10  and  C_12 
REMARK    6  A    between atoms: C_11  and  C_18 
REMARK    7  A    between atoms: C_11  and  C_12 
REMARK    8  A    between atoms: C_12  and  C_28 
REMARK    9  A    between atoms: C_14  and  O_20 
REMARK   10  A    between atoms: C_16  and  N_25 
REMARK   11  A    between atoms: C_16  and  C_18 
ROOT
HETATM    1  C           1     -20.846  -5.737  -6.936  0.00  0.00     0.249 C 
HETATM    2  O           1     -20.265  -6.460  -7.709  0.00  0.00    -0.271 OA
HETATM    3  N           1     -21.690  -4.767  -7.407  0.00  0.00    -0.345 N 
HETATM    4  H           1     -22.177  -4.162  -6.759  0.00  0.00     0.163 HD
ENDROOT
BRANCH   1   5
HETATM    5  C           1     -20.642  -5.902  -5.450  0.00  0.00     0.278 C 
BRANCH   5   6
HETATM    6  C           1     -21.972  -6.244  -4.790  0.00  0.00     0.081 C 
BRANCH   6   7
HETATM    7  C           1     -21.721  -6.813  -3.428  0.00  0.00    -0.056 A 
HETATM    8  C           1     -22.353  -6.261  -2.313  0.00  0.00     0.010 A 
HETATM    9  C           1     -22.119  -6.792  -1.045  0.00  0.00     0.037 A 
HETATM   10  C           1     -21.253  -7.874  -0.891  0.00  0.00     0.065 A 
HETATM   11  C           1     -20.620  -8.425  -2.005  0.00  0.00     0.037 A 
HETATM   12  C           1     -20.854  -7.895  -3.274  0.00  0.00     0.010 A 
BRANCH  10  13
HETATM   13  O           1     -21.024  -8.389   0.342  0.00  0.00    -0.361 OA
HETATM   14  H           1     -20.380  -7.816   0.791  0.00  0.00     0.217 HD
ENDBRANCH  10  13
ENDBRANCH   6   7
ENDBRANCH   5   6
BRANCH   5  15
HETATM   15  N           1     -20.114  -4.622  -4.873  0.00  0.00    -0.066 N 
HETATM   16  H           1     -19.202  -4.387  -5.325  0.00  0.00     0.275 HD
HETATM   17  H           1     -20.798  -3.852  -5.050  0.00  0.00     0.275 HD
HETATM   18  H           1     -19.973  -4.735  -3.844  0.00  0.00     0.275 HD
ENDBRANCH   5  15
ENDBRANCH   1   5
BRANCH   3  19
HETATM   19  C           1     -21.886  -4.608  -8.835  0.00  0.00     0.185 C 
BRANCH  19  20
HETATM   20  C           1     -22.944  -3.543  -9.087  0.00  0.00     0.038 C 
BRANCH  20  21
HETATM   21  C           1     -24.132  -4.167  -9.809  0.00  0.00     0.030 C 
BRANCH  21  22
HETATM   22  C           1     -23.659  -5.360 -10.629  0.00  0.00     0.230 C 
BRANCH  22  23
HETATM   23  N           1     -23.290  -4.903 -12.010  0.00  0.00    -0.079 N 
HETATM   24  H           1     -22.694  -4.046 -11.946  0.00  0.00     0.274 HD
HETATM   25  H           1     -24.158  -4.683 -12.549  0.00  0.00     0.274 HD
HETATM   26  H           1     -22.760  -5.661 -12.497  0.00  0.00     0.274 HD
ENDBRANCH  22  23
ENDBRANCH  21  22
ENDBRANCH  20  21
ENDBRANCH  19  20
BRANCH  19  27
HETATM   27  C           1     -20.586  -4.187  -9.475  0.00  0.00     0.196 C 
HETATM   28  O           1     -20.286  -4.603 -10.615  0.00  0.00    -0.646 OA
HETATM   29  O           1     -19.809  -3.419  -8.865  0.00  0.00    -0.646 OA
ENDBRANCH  19  27
ENDBRANCH   3  19
TORSDOF 11
ENDMDL
MODEL 9
REMARK VINA RESULT:      -5.7      3.366      4.780
REMARK  11 active torsions:
REMARK  status: ('A' for Active; 'I' for Inactive)
REMARK       I    between atoms: C_1  and  N_10 
REMARK    1  A    between atoms: C_1  and  C_2 
REMARK    2  A    between atoms: C_2  and  C_3 
REMARK    3  A    between atoms: C_2  and  N_15 
REMARK    4  A    between atoms: C_3  and  C_23 
REMARK    5  A    between atoms: N_10  and  C_12 
REMARK    6  A    between atoms: C_11  and  C_18 
REMARK    7  A    between atoms: C_11  and  C_12 
REMARK    8  A    between atoms: C_12  and  C_28 
REMARK    9  A    between atoms: C_14  and  O_20 
REMARK   10  A    between atoms: C_16  and  N_25 
REMARK   11  A    between atoms: C_16  and  C_18 
ROOT
HETATM    1  C           1     -21.824  -7.543  -2.076  0.00  0.00     0.249 C 
HETATM    2  O           1     -22.126  -6.567  -1.432  0.00  0.00    -0.271 OA
HETATM    3  N           1     -21.954  -8.792  -1.530  0.00  0.00    -0.345 N 
HETATM    4  H           1     -21.701  -9.609  -2.070  0.00  0.00     0.163 HD
ENDROOT
BRANCH   1   5
HETATM    5  C           1     -21.304  -7.386  -3.485  0.00  0.00     0.278 C 
BRANCH   5   6
HETATM    6  C           1     -22.337  -6.650  -4.328  0.00  0.00     0.081 C 
BRANCH   6   7
HETATM    7  C           1     -21.639  -5.845  -5.380  0.00  0.00    -0.056 A 
HETATM    8  C           1     -22.325  -5.456  -6.531  0.00  0.00     0.010 A 
HETATM    9  C           1     -21.674  -4.705  -7.510  0.00  0.00     0.037 A 
HETATM   10  C           1     -20.337  -4.345  -7.339  0.00  0.00     0.065 A 
HETATM   11  C           1     -19.652  -4.735  -6.189  0.00  0.00     0.037 A 
HETATM   12  C           1     -20.302  -5.485  -5.209  0.00  0.00     0.010 A 
BRANCH  10  13
HETATM   13  O           1     -19.705  -3.617  -8.291  0.00  0.00    -0.361 OA
HETATM   14  H           1     -18.865  -3.300  -7.918  0.00  0.00     0.217 HD
ENDBRANCH  10  13
ENDBRANCH   6   7
ENDBRANCH   5   6
BRANCH   5  15
HETATM   15  N           1     -21.051  -8.741  -4.077  0.00  0.00    -0.066 N 
HETATM   16  H           1     -21.605  -8.846  -4.956  0.00  0.00     0.275 HD
HETATM   17  H           1     -20.034  -8.842  -4.293  0.00  0.00     0.275 HD
HETATM   18  H           1     -21.338  -9.479  -3.394  0.00  0.00     0.275 HD
ENDBRANCH   5  15
ENDBRANCH   1   5
BRANCH   3  19
HETATM   19  C           1     -22.453  -8.942  -0.177  0.00  0.00     0.185 C 
BRANCH  19  20
HETATM   20  C           1     -23.508 -10.039  -0.143  0.00  0.00     0.038 C 
BRANCH  20  21
HETATM   21  C           1     -23.376 -10.909  -1.386  0.00  0.00     0.030 C 
BRANCH  21  22
HETATM   22  C           1     -23.337 -12.375  -0.979  0.00  0.00     0.230 C 
BRANCH  22  23
HETATM   23  N           1     -23.175 -12.478   0.509  0.00  0.00    -0.079 N 
HETATM   24  H           1     -22.469 -13.215   0.733  0.00  0.00     0.274 HD
HETATM   25  H           1     -24.091 -12.732   0.944  0.00  0.00     0.274 HD
HETATM   26  H           1     -22.853 -11.559   0.888  0.00  0.00     0.274 HD
ENDBRANCH  22  23
ENDBRANCH  21  22
ENDBRANCH  20  21
ENDBRANCH  19  20
BRANCH  19  27
HETATM   27  C           1     -21.312  -9.312   0.740  0.00  0.00     0.196 C 
HETATM   28  O           1     -20.902  -8.492   1.589  0.00  0.00    -0.646 OA
HETATM   29  O           1     -20.780 -10.440   0.650  0.00  0.00    -0.646 OA
ENDBRANCH  19  27
ENDBRANCH   3  19
TORSDOF 11
ENDMDL
