MODEL 1
REMARK VINA RESULT:      -7.4      0.000      0.000
REMARK  9 active torsions:
REMARK  status: ('A' for Active; 'I' for Inactive)
REMARK    1  A    between atoms: C_2  and  C_16 
REMARK    2  A    between atoms: C_2  and  C_22 
REMARK    3  A    between atoms: N_8  and  C_19 
REMARK    4  A    between atoms: C_12  and  C_21 
REMARK    5  A    between atoms: N_13  and  C_18 
REMARK       I    between atoms: N_13  and  C_20 
REMARK       I    between atoms: C_16  and  N_23 
REMARK    6  A    between atoms: C_18  and  C_22 
REMARK    7  A    between atoms: C_18  and  C_27 
REMARK    8  A    between atoms: C_19  and  C_20 
REMARK    9  A    between atoms: C_19  and  C_21 
ROOT
HETATM    1  H           1     -35.164  -1.955 -14.103  0.00  0.00     0.163 HD
HETATM    2  O           1     -34.005  -2.049 -11.189  0.00  0.00    -0.271 OA
HETATM    3  N           1     -34.889  -1.610 -13.193  0.00  0.00    -0.345 N 
HETATM    4  C           1     -34.333  -2.462 -12.276  0.00  0.00     0.249 C 
ENDROOT
BRANCH   4   5
HETATM    5  C           1     -34.129  -3.916 -12.624  0.00  0.00     0.278 C 
BRANCH   5   6
HETATM    6  N           1     -33.712  -4.030 -14.061  0.00  0.00    -0.066 N 
HETATM    7  H           1     -33.225  -3.154 -14.353  0.00  0.00     0.275 HD
HETATM    8  H           1     -33.066  -4.844 -14.172  0.00  0.00     0.275 HD
HETATM    9  H           1     -34.558  -4.173 -14.659  0.00  0.00     0.275 HD
ENDBRANCH   5   6
BRANCH   5  10
HETATM   10  C           1     -33.044  -4.504 -11.733  0.00  0.00     0.081 C 
BRANCH  10  11
HETATM   11  C           1     -33.590  -5.688 -10.997  0.00  0.00    -0.056 A 
HETATM   12  C           1     -34.815  -5.594 -10.337  0.00  0.00     0.007 A 
HETATM   13  C           1     -35.324  -6.697  -9.651  0.00  0.00     0.001 A 
HETATM   14  C           1     -34.607  -7.893  -9.623  0.00  0.00     0.000 A 
HETATM   15  C           1     -33.381  -7.986 -10.283  0.00  0.00     0.001 A 
HETATM   16  C           1     -32.873  -6.884 -10.969  0.00  0.00     0.007 A 
ENDBRANCH  10  11
ENDBRANCH   5  10
ENDBRANCH   4   5
BRANCH   3  17
HETATM   17  C           1     -35.085  -0.212 -12.857  0.00  0.00     0.186 C 
BRANCH  17  18
HETATM   18  C           1     -35.249   0.600 -14.134  0.00  0.00     0.045 C 
BRANCH  18  19
HETATM   19  C           1     -35.444  -0.342 -15.314  0.00  0.00     0.105 C 
BRANCH  19  20
HETATM   20  C           1     -36.818  -0.134 -15.904  0.00  0.00     0.215 C 
HETATM   21  O           1     -37.137  -0.718 -16.912  0.00  0.00    -0.274 OA
HETATM   22  N           1     -37.701   0.716 -15.296  0.00  0.00    -0.370 N 
HETATM   23  H           1     -37.433   1.205 -14.451  0.00  0.00     0.159 HD
HETATM   24  H           1     -38.622   0.856 -15.690  0.00  0.00     0.159 HD
ENDBRANCH  19  20
ENDBRANCH  18  19
ENDBRANCH  17  18
BRANCH  17  25
HETATM   25  C           1     -36.324  -0.069 -12.008  0.00  0.00     0.196 C 
HETATM   26  O           1     -37.429  -0.458 -12.444  0.00  0.00    -0.646 OA
HETATM   27  O           1     -36.247   0.438 -10.868  0.00  0.00    -0.646 OA
ENDBRANCH  17  25
ENDBRANCH   3  17
TORSDOF 9
ENDMDL
MODEL 2
REMARK VINA RESULT:      -7.4     14.268     17.129
REMARK  9 active torsions:
REMARK  status: ('A' for Active; 'I' for Inactive)
REMARK    1  A    between atoms: C_2  and  C_16 
REMARK    2  A    between atoms: C_2  and  C_22 
REMARK    3  A    between atoms: N_8  and  C_19 
REMARK    4  A    between atoms: C_12  and  C_21 
REMARK    5  A    between atoms: N_13  and  C_18 
REMARK       I    between atoms: N_13  and  C_20 
REMARK       I    between atoms: C_16  and  N_23 
REMARK    6  A    between atoms: C_18  and  C_22 
REMARK    7  A    between atoms: C_18  and  C_27 
REMARK    8  A    between atoms: C_19  and  C_20 
REMARK    9  A    between atoms: C_19  and  C_21 
ROOT
HETATM    1  H           1     -21.815  -7.895  -6.025  0.00  0.00     0.163 HD
HETATM    2  O           1     -20.739  -5.208  -4.817  0.00  0.00    -0.271 OA
HETATM    3  N           1     -21.303  -7.289  -5.398  0.00  0.00    -0.345 N 
HETATM    4  C           1     -21.350  -5.931  -5.567  0.00  0.00     0.249 C 
ENDROOT
BRANCH   4   5
HETATM    5  C           1     -22.168  -5.338  -6.688  0.00  0.00     0.278 C 
BRANCH   5   6
HETATM    6  N           1     -23.546  -5.021  -6.187  0.00  0.00    -0.066 N 
HETATM    7  H           1     -24.254  -5.401  -6.854  0.00  0.00     0.275 HD
HETATM    8  H           1     -23.682  -5.455  -5.246  0.00  0.00     0.275 HD
HETATM    9  H           1     -23.659  -3.985  -6.113  0.00  0.00     0.275 HD
ENDBRANCH   5   6
BRANCH   5  10
HETATM   10  C           1     -21.502  -4.062  -7.183  0.00  0.00     0.081 C 
BRANCH  10  11
HETATM   11  C           1     -21.444  -4.075  -8.678  0.00  0.00    -0.056 A 
HETATM   12  C           1     -22.579  -3.749  -9.422  0.00  0.00     0.007 A 
HETATM   13  C           1     -22.525  -3.762 -10.816  0.00  0.00     0.001 A 
HETATM   14  C           1     -21.339  -4.101 -11.467  0.00  0.00     0.000 A 
HETATM   15  C           1     -20.205  -4.427 -10.722  0.00  0.00     0.001 A 
HETATM   16  C           1     -20.258  -4.415  -9.329  0.00  0.00     0.007 A 
ENDBRANCH  10  11
ENDBRANCH   5  10
ENDBRANCH   4   5
BRANCH   3  17
HETATM   17  C           1     -20.518  -7.858  -4.320  0.00  0.00     0.186 C 
BRANCH  17  18
HETATM   18  C           1     -21.448  -8.399  -3.242  0.00  0.00     0.045 C 
BRANCH  18  19
HETATM   19  C           1     -21.061  -7.808  -1.893  0.00  0.00     0.105 C 
BRANCH  19  20
HETATM   20  C           1     -22.119  -6.828  -1.449  0.00  0.00     0.215 C 
HETATM   21  O           1     -22.809  -7.077  -0.490  0.00  0.00    -0.274 OA
HETATM   22  N           1     -22.296  -5.656  -2.134  0.00  0.00    -0.370 N 
HETATM   23  H           1     -21.717  -5.447  -2.938  0.00  0.00     0.159 HD
HETATM   24  H           1     -23.005  -4.998  -1.837  0.00  0.00     0.159 HD
ENDBRANCH  19  20
ENDBRANCH  18  19
ENDBRANCH  17  18
BRANCH  17  25
HETATM   25  C           1     -19.666  -8.982  -4.858  0.00  0.00     0.196 C 
HETATM   26  O           1     -20.131  -9.760  -5.719  0.00  0.00    -0.646 OA
HETATM   27  O           1     -18.497  -9.135  -4.445  0.00  0.00    -0.646 OA
ENDBRANCH  17  25
ENDBRANCH   3  17
TORSDOF 9
ENDMDL
MODEL 3
REMARK VINA RESULT:      -7.2      4.656      6.838
REMARK  9 active torsions:
REMARK  status: ('A' for Active; 'I' for Inactive)
REMARK    1  A    between atoms: C_2  and  C_16 
REMARK    2  A    between atoms: C_2  and  C_22 
REMARK    3  A    between atoms: N_8  and  C_19 
REMARK    4  A    between atoms: C_12  and  C_21 
REMARK    5  A    between atoms: N_13  and  C_18 
REMARK       I    between atoms: N_13  and  C_20 
REMARK       I    between atoms: C_16  and  N_23 
REMARK    6  A    between atoms: C_18  and  C_22 
REMARK    7  A    between atoms: C_18  and  C_27 
REMARK    8  A    between atoms: C_19  and  C_20 
REMARK    9  A    between atoms: C_19  and  C_21 
ROOT
HETATM    1  H           1     -32.432  -3.675 -14.113  0.00  0.00     0.163 HD
HETATM    2  O           1     -34.985  -4.848 -15.509  0.00  0.00    -0.271 OA
HETATM    3  N           1     -33.389  -3.991 -14.202  0.00  0.00    -0.345 N 
HETATM    4  C           1     -33.843  -4.470 -15.402  0.00  0.00     0.249 C 
ENDROOT
BRANCH   4   5
HETATM    5  C           1     -32.916  -4.526 -16.591  0.00  0.00     0.278 C 
BRANCH   5   6
HETATM    6  N           1     -33.114  -3.302 -17.437  0.00  0.00    -0.066 N 
HETATM    7  H           1     -33.333  -3.589 -18.417  0.00  0.00     0.275 HD
HETATM    8  H           1     -33.904  -2.738 -17.052  0.00  0.00     0.275 HD
HETATM    9  H           1     -32.240  -2.729 -17.430  0.00  0.00     0.275 HD
ENDBRANCH   5   6
BRANCH   5  10
HETATM   10  C           1     -31.473  -4.580 -16.109  0.00  0.00     0.081 C 
BRANCH  10  11
HETATM   11  C           1     -30.667  -5.433 -17.037  0.00  0.00    -0.056 A 
HETATM   12  C           1     -29.477  -4.943 -17.577  0.00  0.00     0.007 A 
HETATM   13  C           1     -28.725  -5.738 -18.443  0.00  0.00     0.001 A 
HETATM   14  C           1     -29.163  -7.021 -18.770  0.00  0.00     0.000 A 
HETATM   15  C           1     -30.353  -7.510 -18.230  0.00  0.00     0.001 A 
HETATM   16  C           1     -31.104  -6.716 -17.365  0.00  0.00     0.007 A 
ENDBRANCH  10  11
ENDBRANCH   5  10
ENDBRANCH   4   5
BRANCH   3  17
HETATM   17  C           1     -34.281  -3.938 -13.060  0.00  0.00     0.186 C 
BRANCH  17  18
HETATM   18  C           1     -33.593  -4.552 -11.848  0.00  0.00     0.045 C 
BRANCH  18  19
HETATM   19  C           1     -34.642  -5.119 -10.900  0.00  0.00     0.105 C 
BRANCH  19  20
HETATM   20  C           1     -34.275  -6.535 -10.530  0.00  0.00     0.215 C 
HETATM   21  O           1     -35.038  -7.206  -9.878  0.00  0.00    -0.274 OA
HETATM   22  N           1     -33.076  -7.058 -10.933  0.00  0.00    -0.370 N 
HETATM   23  H           1     -32.436  -6.495 -11.480  0.00  0.00     0.159 HD
HETATM   24  H           1     -32.829  -8.007 -10.685  0.00  0.00     0.159 HD
ENDBRANCH  19  20
ENDBRANCH  18  19
ENDBRANCH  17  18
BRANCH  17  25
HETATM   25  C           1     -34.632  -2.501 -12.764  0.00  0.00     0.196 C 
HETATM   26  O           1     -34.125  -1.924 -11.777  0.00  0.00    -0.646 OA
HETATM   27  O           1     -35.428  -1.885 -13.505  0.00  0.00    -0.646 OA
ENDBRANCH  17  25
ENDBRANCH   3  17
TORSDOF 9
ENDMDL
MODEL 4
REMARK VINA RESULT:      -7.0     12.196     14.223
REMARK  9 active torsions:
REMARK  status: ('A' for Active; 'I' for Inactive)
REMARK    1  A    between atoms: C_2  and  C_16 
REMARK    2  A    between atoms: C_2  and  C_22 
REMARK    3  A    between atoms: N_8  and  C_19 
REMARK    4  A    between atoms: C_12  and  C_21 
REMARK    5  A    between atoms: N_13  and  C_18 
REMARK       I    between atoms: N_13  and  C_20 
REMARK       I    between atoms: C_16  and  N_23 
REMARK    6  A    between atoms: C_18  and  C_22 
REMARK    7  A    between atoms: C_18  and  C_27 
REMARK    8  A    between atoms: C_19  and  C_20 
REMARK    9  A    between atoms: C_19  and  C_21 
ROOT
HETATM    1  H           1     -24.156  -5.019  -8.235  0.00  0.00     0.163 HD
HETATM    2  O           1     -21.321  -3.700  -7.990  0.00  0.00    -0.271 OA
HETATM    3  N           1     -23.347  -4.479  -8.513  0.00  0.00    -0.345 N 
HETATM    4  C           1     -22.287  -4.344  -7.657  0.00  0.00     0.249 C 
ENDROOT
BRANCH   4   5
HETATM    5  C           1     -22.324  -5.001  -6.299  0.00  0.00     0.278 C 
BRANCH   5   6
HETATM    6  N           1     -23.728  -5.434  -5.993  0.00  0.00    -0.066 N 
HETATM    7  H           1     -23.899  -5.357  -4.966  0.00  0.00     0.275 HD
HETATM    8  H           1     -24.401  -4.822  -6.508  0.00  0.00     0.275 HD
HETATM    9  H           1     -23.859  -6.426  -6.294  0.00  0.00     0.275 HD
ENDBRANCH   5   6
BRANCH   5  10
HETATM   10  C           1     -21.407  -6.216  -6.297  0.00  0.00     0.081 C 
BRANCH  10  11
HETATM   11  C           1     -21.404  -6.838  -4.936  0.00  0.00    -0.056 A 
HETATM   12  C           1     -21.316  -6.030  -3.801  0.00  0.00     0.007 A 
HETATM   13  C           1     -21.313  -6.610  -2.532  0.00  0.00     0.001 A 
HETATM   14  C           1     -21.396  -7.996  -2.397  0.00  0.00     0.000 A 
HETATM   15  C           1     -21.483  -8.802  -3.532  0.00  0.00     0.001 A 
HETATM   16  C           1     -21.486  -8.223  -4.801  0.00  0.00     0.007 A 
ENDBRANCH  10  11
ENDBRANCH   5  10
ENDBRANCH   4   5
BRANCH   3  17
HETATM   17  C           1     -23.310  -3.848  -9.818  0.00  0.00     0.186 C 
BRANCH  17  18
HETATM   18  C           1     -22.949  -4.883 -10.874  0.00  0.00     0.045 C 
BRANCH  18  19
HETATM   19  C           1     -22.035  -4.250 -11.915  0.00  0.00     0.105 C 
BRANCH  19  20
HETATM   20  C           1     -20.705  -3.918 -11.284  0.00  0.00     0.215 C 
HETATM   21  O           1     -20.062  -4.783 -10.739  0.00  0.00    -0.274 OA
HETATM   22  N           1     -20.228  -2.636 -11.329  0.00  0.00    -0.370 N 
HETATM   23  H           1     -20.767  -1.911 -11.786  0.00  0.00     0.159 HD
HETATM   24  H           1     -19.337  -2.412 -10.906  0.00  0.00     0.159 HD
ENDBRANCH  19  20
ENDBRANCH  18  19
ENDBRANCH  17  18
BRANCH  17  25
HETATM   25  C           1     -24.665  -3.263 -10.131  0.00  0.00     0.196 C 
HETATM   26  O           1     -25.299  -2.646  -9.247  0.00  0.00    -0.646 OA
HETATM   27  O           1     -25.155  -3.393 -11.273  0.00  0.00    -0.646 OA
ENDBRANCH  17  25
ENDBRANCH   3  17
TORSDOF 9
ENDMDL
MODEL 5
REMARK VINA RESULT:      -6.9      2.011      3.662
REMARK  9 active torsions:
REMARK  status: ('A' for Active; 'I' for Inactive)
REMARK    1  A    between atoms: C_2  and  C_16 
REMARK    2  A    between atoms: C_2  and  C_22 
REMARK    3  A    between atoms: N_8  and  C_19 
REMARK    4  A    between atoms: C_12  and  C_21 
REMARK    5  A    between atoms: N_13  and  C_18 
REMARK       I    between atoms: N_13  and  C_20 
REMARK       I    between atoms: C_16  and  N_23 
REMARK    6  A    between atoms: C_18  and  C_22 
REMARK    7  A    between atoms: C_18  and  C_27 
REMARK    8  A    between atoms: C_19  and  C_20 
REMARK    9  A    between atoms: C_19  and  C_21 
ROOT
HETATM    1  H           1     -34.057  -1.011 -13.653  0.00  0.00     0.163 HD
HETATM    2  O           1     -37.155  -0.942 -13.164  0.00  0.00    -0.271 OA
HETATM    3  N           1     -35.042  -1.015 -13.884  0.00  0.00    -0.345 N 
HETATM    4  C           1     -35.980  -0.938 -12.888  0.00  0.00     0.249 C 
ENDROOT
BRANCH   4   5
HETATM    5  C           1     -35.543  -0.846 -11.447  0.00  0.00     0.278 C 
BRANCH   5   6
HETATM    6  N           1     -36.205   0.335 -10.800  0.00  0.00    -0.066 N 
HETATM    7  H           1     -37.174   0.440 -11.176  0.00  0.00     0.275 HD
HETATM    8  H           1     -36.244   0.188  -9.766  0.00  0.00     0.275 HD
HETATM    9  H           1     -35.656   1.199 -11.009  0.00  0.00     0.275 HD
ENDBRANCH   5   6
BRANCH   5  10
HETATM   10  C           1     -35.944  -2.118 -10.712  0.00  0.00     0.081 C 
BRANCH  10  11
HETATM   11  C           1     -34.930  -3.188 -10.976  0.00  0.00    -0.056 A 
HETATM   12  C           1     -33.628  -2.841 -11.336  0.00  0.00     0.007 A 
HETATM   13  C           1     -32.684  -3.838 -11.582  0.00  0.00     0.001 A 
HETATM   14  C           1     -33.041  -5.181 -11.468  0.00  0.00     0.000 A 
HETATM   15  C           1     -34.343  -5.527 -11.107  0.00  0.00     0.001 A 
HETATM   16  C           1     -35.288  -4.531 -10.862  0.00  0.00     0.007 A 
ENDBRANCH  10  11
ENDBRANCH   5  10
ENDBRANCH   4   5
BRANCH   3  17
HETATM   17  C           1     -35.463  -1.103 -15.269  0.00  0.00     0.186 C 
BRANCH  17  18
HETATM   18  C           1     -35.017   0.147 -16.017  0.00  0.00     0.045 C 
BRANCH  18  19
HETATM   19  C           1     -35.505   1.384 -15.274  0.00  0.00     0.105 C 
BRANCH  19  20
HETATM   20  C           1     -36.539   2.098 -16.109  0.00  0.00     0.215 C 
HETATM   21  O           1     -36.214   3.025 -16.811  0.00  0.00    -0.274 OA
HETATM   22  N           1     -37.846   1.695 -16.070  0.00  0.00    -0.370 N 
HETATM   23  H           1     -38.119   0.917 -15.481  0.00  0.00     0.159 HD
HETATM   24  H           1     -38.541   2.173 -16.630  0.00  0.00     0.159 HD
ENDBRANCH  19  20
ENDBRANCH  18  19
ENDBRANCH  17  18
BRANCH  17  25
HETATM   25  C           1     -34.837  -2.319 -15.907  0.00  0.00     0.196 C 
HETATM   26  O           1     -34.506  -2.292 -17.112  0.00  0.00    -0.646 OA
HETATM   27  O           1     -34.649  -3.353 -15.231  0.00  0.00    -0.646 OA
ENDBRANCH  17  25
ENDBRANCH   3  17
TORSDOF 9
ENDMDL
MODEL 6
REMARK VINA RESULT:      -6.8     13.026     15.076
REMARK  9 active torsions:
REMARK  status: ('A' for Active; 'I' for Inactive)
REMARK    1  A    between atoms: C_2  and  C_16 
REMARK    2  A    between atoms: C_2  and  C_22 
REMARK    3  A    between atoms: N_8  and  C_19 
REMARK    4  A    between atoms: C_12  and  C_21 
REMARK    5  A    between atoms: N_13  and  C_18 
REMARK       I    between atoms: N_13  and  C_20 
REMARK       I    between atoms: C_16  and  N_23 
REMARK    6  A    between atoms: C_18  and  C_22 
REMARK    7  A    between atoms: C_18  and  C_27 
REMARK    8  A    between atoms: C_19  and  C_20 
REMARK    9  A    between atoms: C_19  and  C_21 
ROOT
HETATM    1  H           1     -22.375  -4.071  -6.804  0.00  0.00     0.163 HD
HETATM    2  O           1     -20.844  -6.790  -7.122  0.00  0.00    -0.271 OA
HETATM    3  N           1     -21.866  -4.810  -7.270  0.00  0.00    -0.345 N 
HETATM    4  C           1     -21.452  -5.908  -6.564  0.00  0.00     0.249 C 
ENDROOT
BRANCH   4   5
HETATM    5  C           1     -21.756  -6.016  -5.091  0.00  0.00     0.278 C 
BRANCH   5   6
HETATM    6  N           1     -23.217  -6.302  -4.903  0.00  0.00    -0.066 N 
HETATM    7  H           1     -23.760  -5.861  -5.679  0.00  0.00     0.275 HD
HETATM    8  H           1     -23.373  -7.335  -4.908  0.00  0.00     0.275 HD
HETATM    9  H           1     -23.534  -5.906  -3.989  0.00  0.00     0.275 HD
ENDBRANCH   5   6
BRANCH   5  10
HETATM   10  C           1     -20.936  -7.146  -4.484  0.00  0.00     0.081 C 
BRANCH  10  11
HETATM   11  C           1     -21.419  -7.425  -3.095  0.00  0.00    -0.056 A 
HETATM   12  C           1     -21.477  -8.738  -2.627  0.00  0.00     0.007 A 
HETATM   13  C           1     -21.927  -8.997  -1.332  0.00  0.00     0.001 A 
HETATM   14  C           1     -22.320  -7.945  -0.506  0.00  0.00     0.000 A 
HETATM   15  C           1     -22.263  -6.632  -0.974  0.00  0.00     0.001 A 
HETATM   16  C           1     -21.813  -6.372  -2.268  0.00  0.00     0.007 A 
ENDBRANCH  10  11
ENDBRANCH   5  10
ENDBRANCH   4   5
BRANCH   3  17
HETATM   17  C           1     -21.574  -4.707  -8.687  0.00  0.00     0.186 C 
BRANCH  17  18
HETATM   18  C           1     -22.295  -3.499  -9.270  0.00  0.00     0.045 C 
BRANCH  18  19
HETATM   19  C           1     -23.100  -3.927 -10.489  0.00  0.00     0.105 C 
BRANCH  19  20
HETATM   20  C           1     -24.536  -3.492 -10.324  0.00  0.00     0.215 C 
HETATM   21  O           1     -25.244  -3.364 -11.294  0.00  0.00    -0.274 OA
HETATM   22  N           1     -25.034  -3.241  -9.075  0.00  0.00    -0.370 N 
HETATM   23  H           1     -24.441  -3.348  -8.261  0.00  0.00     0.159 HD
HETATM   24  H           1     -25.997  -2.949  -8.963  0.00  0.00     0.159 HD
ENDBRANCH  19  20
ENDBRANCH  18  19
ENDBRANCH  17  18
BRANCH  17  25
HETATM   25  C           1     -20.086  -4.546  -8.882  0.00  0.00     0.196 C 
HETATM   26  O           1     -19.535  -5.018  -9.900  0.00  0.00    -0.646 OA
HETATM   27  O           1     -19.404  -3.942  -8.026  0.00  0.00    -0.646 OA
ENDBRANCH  17  25
ENDBRANCH   3  17
TORSDOF 9
ENDMDL
MODEL 7
REMARK VINA RESULT:      -6.7     14.030     16.222
REMARK  9 active torsions:
REMARK  status: ('A' for Active; 'I' for Inactive)
REMARK    1  A    between atoms: C_2  and  C_16 
REMARK    2  A    between atoms: C_2  and  C_22 
REMARK    3  A    between atoms: N_8  and  C_19 
REMARK    4  A    between atoms: C_12  and  C_21 
REMARK    5  A    between atoms: N_13  and  C_18 
REMARK       I    between atoms: N_13  and  C_20 
REMARK       I    between atoms: C_16  and  N_23 
REMARK    6  A    between atoms: C_18  and  C_22 
REMARK    7  A    between atoms: C_18  and  C_27 
REMARK    8  A    between atoms: C_19  and  C_20 
REMARK    9  A    between atoms: C_19  and  C_21 
ROOT
HETATM    1  H           1     -22.444  -6.216  -5.193  0.00  0.00     0.163 HD
HETATM    2  O           1     -19.906  -7.869  -6.011  0.00  0.00    -0.271 OA
HETATM    3  N           1     -21.613  -6.459  -5.716  0.00  0.00    -0.345 N 
HETATM    4  C           1     -20.898  -7.579  -5.386  0.00  0.00     0.249 C 
ENDROOT
BRANCH   4   5
HETATM    5  C           1     -21.350  -8.453  -4.242  0.00  0.00     0.278 C 
BRANCH   5   6
HETATM    6  N           1     -21.472  -9.872  -4.715  0.00  0.00    -0.066 N 
HETATM    7  H           1     -22.441 -10.038  -5.068  0.00  0.00     0.275 HD
HETATM    8  H           1     -20.785 -10.042  -5.484  0.00  0.00     0.275 HD
HETATM    9  H           1     -21.275 -10.522  -3.921  0.00  0.00     0.275 HD
ENDBRANCH   5   6
BRANCH   5  10
HETATM   10  C           1     -20.331  -8.381  -3.114  0.00  0.00     0.081 C 
BRANCH  10  11
HETATM   11  C           1     -21.044  -8.283  -1.801  0.00  0.00    -0.056 A 
HETATM   12  C           1     -21.887  -7.200  -1.545  0.00  0.00     0.007 A 
HETATM   13  C           1     -22.551  -7.109  -0.321  0.00  0.00     0.001 A 
HETATM   14  C           1     -22.372  -8.098   0.646  0.00  0.00     0.000 A 
HETATM   15  C           1     -21.530  -9.179   0.389  0.00  0.00     0.001 A 
HETATM   16  C           1     -20.866  -9.271  -0.834  0.00  0.00     0.007 A 
ENDBRANCH  10  11
ENDBRANCH   5  10
ENDBRANCH   4   5
BRANCH   3  17
HETATM   17  C           1     -21.178  -5.620  -6.817  0.00  0.00     0.186 C 
BRANCH  17  18
HETATM   18  C           1     -22.312  -4.692  -7.229  0.00  0.00     0.045 C 
BRANCH  18  19
HETATM   19  C           1     -22.178  -4.350  -8.707  0.00  0.00     0.105 C 
BRANCH  19  20
HETATM   20  C           1     -23.549  -4.277  -9.334  0.00  0.00     0.215 C 
HETATM   21  O           1     -23.855  -5.051 -10.209  0.00  0.00    -0.274 OA
HETATM   22  N           1     -24.445  -3.334  -8.910  0.00  0.00    -0.370 N 
HETATM   23  H           1     -24.188  -2.685  -8.176  0.00  0.00     0.159 HD
HETATM   24  H           1     -25.365  -3.284  -9.329  0.00  0.00     0.159 HD
ENDBRANCH  19  20
ENDBRANCH  18  19
ENDBRANCH  17  18
BRANCH  17  25
HETATM   25  C           1     -19.989  -4.799  -6.382  0.00  0.00     0.196 C 
HETATM   26  O           1     -19.062  -4.567  -7.187  0.00  0.00    -0.646 OA
HETATM   27  O           1     -19.930  -4.351  -5.217  0.00  0.00    -0.646 OA
ENDBRANCH  17  25
ENDBRANCH   3  17
TORSDOF 9
ENDMDL
MODEL 8
REMARK VINA RESULT:      -6.6     13.969     15.757
REMARK  9 active torsions:
REMARK  status: ('A' for Active; 'I' for Inactive)
REMARK    1  A    between atoms: C_2  and  C_16 
REMARK    2  A    between atoms: C_2  and  C_22 
REMARK    3  A    between atoms: N_8  and  C_19 
REMARK    4  A    between atoms: C_12  and  C_21 
REMARK    5  A    between atoms: N_13  and  C_18 
REMARK       I    between atoms: N_13  and  C_20 
REMARK       I    between atoms: C_16  and  N_23 
REMARK    6  A    between atoms: C_18  and  C_22 
REMARK    7  A    between atoms: C_18  and  C_27 
REMARK    8  A    between atoms: C_19  and  C_20 
REMARK    9  A    between atoms: C_19  and  C_21 
ROOT
HETATM    1  H           1     -21.422  -7.013  -7.660  0.00  0.00     0.163 HD
HETATM    2  O           1     -20.493  -5.264  -5.227  0.00  0.00    -0.271 OA
HETATM    3  N           1     -21.080  -6.197  -7.170  0.00  0.00    -0.345 N 
HETATM    4  C           1     -20.902  -6.238  -5.812  0.00  0.00     0.249 C 
ENDROOT
BRANCH   4   5
HETATM    5  C           1     -21.213  -7.502  -5.048  0.00  0.00     0.278 C 
BRANCH   5   6
HETATM    6  N           1     -21.149  -8.676  -5.980  0.00  0.00    -0.066 N 
HETATM    7  H           1     -22.056  -9.194  -5.949  0.00  0.00     0.275 HD
HETATM    8  H           1     -20.970  -8.340  -6.953  0.00  0.00     0.275 HD
HETATM    9  H           1     -20.375  -9.314  -5.683  0.00  0.00     0.275 HD
ENDBRANCH   5   6
BRANCH   5  10
HETATM   10  C           1     -20.195  -7.684  -3.931  0.00  0.00     0.081 C 
BRANCH  10  11
HETATM   11  C           1     -20.899  -7.689  -2.610  0.00  0.00    -0.056 A 
HETATM   12  C           1     -21.752  -6.638  -2.271  0.00  0.00     0.007 A 
HETATM   13  C           1     -22.407  -6.643  -1.039  0.00  0.00     0.001 A 
HETATM   14  C           1     -22.208  -7.696  -0.146  0.00  0.00     0.000 A 
HETATM   15  C           1     -21.355  -8.745  -0.486  0.00  0.00     0.001 A 
HETATM   16  C           1     -20.700  -8.742  -1.717  0.00  0.00     0.007 A 
ENDBRANCH  10  11
ENDBRANCH   5  10
ENDBRANCH   4   5
BRANCH   3  17
HETATM   17  C           1     -20.780  -4.983  -7.903  0.00  0.00     0.186 C 
BRANCH  17  18
HETATM   18  C           1     -20.745  -5.284  -9.395  0.00  0.00     0.045 C 
BRANCH  18  19
HETATM   19  C           1     -20.348  -4.028 -10.159  0.00  0.00     0.105 C 
BRANCH  19  20
HETATM   20  C           1     -21.385  -3.730 -11.214  0.00  0.00     0.215 C 
HETATM   21  O           1     -21.675  -2.586 -11.470  0.00  0.00    -0.274 OA
HETATM   22  N           1     -21.995  -4.757 -11.882  0.00  0.00    -0.370 N 
HETATM   23  H           1     -21.751  -5.716 -11.667  0.00  0.00     0.159 HD
HETATM   24  H           1     -22.690  -4.559 -12.590  0.00  0.00     0.159 HD
ENDBRANCH  19  20
ENDBRANCH  18  19
ENDBRANCH  17  18
BRANCH  17  25
HETATM   25  C           1     -21.846  -3.952  -7.624  0.00  0.00     0.196 C 
HETATM   26  O           1     -23.045  -4.214  -7.859  0.00  0.00    -0.646 OA
HETATM   27  O           1     -21.531  -2.836  -7.157  0.00  0.00    -0.646 OA
ENDBRANCH  17  25
ENDBRANCH   3  17
TORSDOF 9
ENDMDL
MODEL 9
REMARK VINA RESULT:      -6.6      2.076      3.821
REMARK  9 active torsions:
REMARK  status: ('A' for Active; 'I' for Inactive)
REMARK    1  A    between atoms: C_2  and  C_16 
REMARK    2  A    between atoms: C_2  and  C_22 
REMARK    3  A    between atoms: N_8  and  C_19 
REMARK    4  A    between atoms: C_12  and  C_21 
REMARK    5  A    between atoms: N_13  and  C_18 
REMARK       I    between atoms: N_13  and  C_20 
REMARK       I    between atoms: C_16  and  N_23 
REMARK    6  A    between atoms: C_18  and  C_22 
REMARK    7  A    between atoms: C_18  and  C_27 
REMARK    8  A    between atoms: C_19  and  C_20 
REMARK    9  A    between atoms: C_19  and  C_21 
ROOT
HETATM    1  H           1     -33.954   0.144 -13.704  0.00  0.00     0.163 HD
HETATM    2  O           1     -36.874  -0.988 -13.527  0.00  0.00    -0.271 OA
HETATM    3  N           1     -34.863  -0.157 -14.030  0.00  0.00    -0.345 N 
HETATM    4  C           1     -35.789  -0.629 -13.138  0.00  0.00     0.249 C 
ENDROOT
BRANCH   4   5
HETATM    5  C           1     -35.454  -0.698 -11.668  0.00  0.00     0.278 C 
BRANCH   5   6
HETATM    6  N           1     -36.043   0.490 -10.966  0.00  0.00    -0.066 N 
HETATM    7  H           1     -36.583   0.167 -10.132  0.00  0.00     0.275 HD
HETATM    8  H           1     -35.275   1.129 -10.660  0.00  0.00     0.275 HD
HETATM    9  H           1     -36.681   0.999 -11.618  0.00  0.00     0.275 HD
ENDBRANCH   5   6
BRANCH   5  10
HETATM   10  C           1     -36.031  -1.976 -11.075  0.00  0.00     0.081 C 
BRANCH  10  11
HETATM   11  C           1     -35.021  -3.076 -11.179  0.00  0.00    -0.056 A 
HETATM   12  C           1     -35.396  -4.393 -10.913  0.00  0.00     0.007 A 
HETATM   13  C           1     -34.455  -5.419 -11.009  0.00  0.00     0.001 A 
HETATM   14  C           1     -33.139  -5.127 -11.370  0.00  0.00     0.000 A 
HETATM   15  C           1     -32.765  -3.810 -11.635  0.00  0.00     0.001 A 
HETATM   16  C           1     -33.706  -2.785 -11.539  0.00  0.00     0.007 A 
ENDBRANCH  10  11
ENDBRANCH   5  10
ENDBRANCH   4   5
BRANCH   3  17
HETATM   17  C           1     -35.186  -0.090 -15.442  0.00  0.00     0.186 C 
BRANCH  17  18
HETATM   18  C           1     -35.862  -1.385 -15.872  0.00  0.00     0.045 C 
BRANCH  18  19
HETATM   19  C           1     -34.986  -2.102 -16.890  0.00  0.00     0.105 C 
BRANCH  19  20
HETATM   20  C           1     -34.245  -3.229 -16.213  0.00  0.00     0.215 C 
HETATM   21  O           1     -34.502  -3.521 -15.070  0.00  0.00    -0.274 OA
HETATM   22  N           1     -33.281  -3.920 -16.896  0.00  0.00    -0.370 N 
HETATM   23  H           1     -33.065  -3.675 -17.854  0.00  0.00     0.159 HD
HETATM   24  H           1     -32.783  -4.676 -16.443  0.00  0.00     0.159 HD
ENDBRANCH  19  20
ENDBRANCH  18  19
ENDBRANCH  17  18
BRANCH  17  25
HETATM   25  C           1     -36.119   1.070 -15.688  0.00  0.00     0.196 C 
HETATM   26  O           1     -37.307   0.858 -16.015  0.00  0.00    -0.646 OA
HETATM   27  O           1     -35.706   2.243 -15.566  0.00  0.00    -0.646 OA
ENDBRANCH  17  25
ENDBRANCH   3  17
TORSDOF 9
ENDMDL
