MODEL 1
REMARK VINA RESULT:      -7.1      0.000      0.000
REMARK  8 active torsions:
REMARK  status: ('A' for Active; 'I' for Inactive)
REMARK       I    between atoms: C_1  and  N_6 
REMARK    1  A    between atoms: C_1  and  C_12 
REMARK    2  A    between atoms: C_2  and  C_10 
REMARK    3  A    between atoms: N_6  and  C_22 
REMARK    4  A    between atoms: C_10  and  C_22 
REMARK    5  A    between atoms: C_12  and  C_13 
REMARK    6  A    between atoms: C_12  and  N_18 
REMARK    7  A    between atoms: C_13  and  C_14 
REMARK    8  A    between atoms: C_22  and  C_24 
ROOT
HETATM    1  C           1     -21.760  -6.408  -3.077  0.00  0.00     0.249 C 
HETATM    2  N           1     -22.424  -6.397  -4.274  0.00  0.00    -0.344 N 
HETATM    3  H           1     -23.423  -6.238  -4.297  0.00  0.00     0.163 HD
HETATM    4  O           1     -21.301  -5.383  -2.631  0.00  0.00    -0.271 OA
ENDROOT
BRANCH   2   5
HETATM    5  C           1     -21.695  -6.614  -5.509  0.00  0.00     0.189 C 
BRANCH   5   6
HETATM    6  C           1     -20.772  -5.431  -5.767  0.00  0.00     0.074 C 
BRANCH   6   7
HETATM    7  C           1     -21.006  -4.908  -7.151  0.00  0.00    -0.056 A 
HETATM    8  C           1     -20.011  -5.031  -8.120  0.00  0.00     0.007 A 
HETATM    9  C           1     -20.230  -4.543  -9.409  0.00  0.00     0.001 A 
HETATM   10  C           1     -21.443  -3.933  -9.727  0.00  0.00     0.000 A 
HETATM   11  C           1     -22.437  -3.810  -8.758  0.00  0.00     0.001 A 
HETATM   12  C           1     -22.219  -4.298  -7.469  0.00  0.00     0.007 A 
ENDBRANCH   6   7
ENDBRANCH   5   6
BRANCH   5  13
HETATM   13  C           1     -20.874  -7.876  -5.391  0.00  0.00     0.197 C 
HETATM   14  O           1     -21.431  -8.993  -5.457  0.00  0.00    -0.646 OA
HETATM   15  O           1     -19.636  -7.803  -5.228  0.00  0.00    -0.646 OA
ENDBRANCH   5  13
ENDBRANCH   2   5
BRANCH   1  16
HETATM   16  C           1     -21.602  -7.700  -2.314  0.00  0.00     0.275 C 
BRANCH  16  17
HETATM   17  C           1     -22.195  -7.542  -0.919  0.00  0.00     0.046 C 
BRANCH  17  18
HETATM   18  C           1     -21.945  -8.809  -0.113  0.00  0.00    -0.020 C 
HETATM   19  C           1     -21.407  -8.438   1.263  0.00  0.00     0.009 C 
HETATM   20  C           1     -23.251  -9.577   0.043  0.00  0.00     0.009 C 
ENDBRANCH  17  18
ENDBRANCH  16  17
BRANCH  16  21
HETATM   21  N           1     -20.146  -8.038  -2.201  0.00  0.00    -0.066 N 
HETATM   22  H           1     -19.625  -7.600  -2.993  0.00  0.00     0.275 HD
HETATM   23  H           1     -20.025  -9.076  -2.238  0.00  0.00     0.275 HD
HETATM   24  H           1     -19.773  -7.676  -1.294  0.00  0.00     0.275 HD
ENDBRANCH  16  21
ENDBRANCH   1  16
TORSDOF 8
ENDMDL
MODEL 2
REMARK VINA RESULT:      -6.9      2.741      4.759
REMARK  8 active torsions:
REMARK  status: ('A' for Active; 'I' for Inactive)
REMARK       I    between atoms: C_1  and  N_6 
REMARK    1  A    between atoms: C_1  and  C_12 
REMARK    2  A    between atoms: C_2  and  C_10 
REMARK    3  A    between atoms: N_6  and  C_22 
REMARK    4  A    between atoms: C_10  and  C_22 
REMARK    5  A    between atoms: C_12  and  C_13 
REMARK    6  A    between atoms: C_12  and  N_18 
REMARK    7  A    between atoms: C_13  and  C_14 
REMARK    8  A    between atoms: C_22  and  C_24 
ROOT
HETATM    1  C           1     -21.842  -7.053  -2.510  0.00  0.00     0.249 C 
HETATM    2  N           1     -21.694  -7.682  -3.717  0.00  0.00    -0.344 N 
HETATM    3  H           1     -22.461  -8.212  -4.110  0.00  0.00     0.163 HD
HETATM    4  O           1     -22.252  -5.916  -2.468  0.00  0.00    -0.271 OA
ENDROOT
BRANCH   2   5
HETATM    5  C           1     -20.436  -7.588  -4.433  0.00  0.00     0.189 C 
BRANCH   5   6
HETATM    6  C           1     -20.074  -8.952  -5.004  0.00  0.00     0.074 C 
BRANCH   6   7
HETATM    7  C           1     -18.665  -9.293  -4.629  0.00  0.00    -0.056 A 
HETATM    8  C           1     -17.745  -9.640  -5.618  0.00  0.00     0.007 A 
HETATM    9  C           1     -16.432  -9.958  -5.268  0.00  0.00     0.001 A 
HETATM   10  C           1     -16.040  -9.928  -3.930  0.00  0.00     0.000 A 
HETATM   11  C           1     -16.960  -9.581  -2.942  0.00  0.00     0.001 A 
HETATM   12  C           1     -18.273  -9.264  -3.290  0.00  0.00     0.007 A 
ENDBRANCH   6   7
ENDBRANCH   5   6
BRANCH   5  13
HETATM   13  C           1     -20.572  -6.592  -5.558  0.00  0.00     0.197 C 
HETATM   14  O           1     -20.475  -5.368  -5.326  0.00  0.00    -0.646 OA
HETATM   15  O           1     -20.783  -6.992  -6.725  0.00  0.00    -0.646 OA
ENDBRANCH   5  13
ENDBRANCH   2   5
BRANCH   1  16
HETATM   16  C           1     -21.496  -7.779  -1.234  0.00  0.00     0.275 C 
BRANCH  16  17
HETATM   17  C           1     -21.784  -9.265  -1.401  0.00  0.00     0.046 C 
BRANCH  17  18
HETATM   18  C           1     -22.353  -9.824  -0.103  0.00  0.00    -0.020 C 
HETATM   19  C           1     -23.642 -10.579  -0.396  0.00  0.00     0.009 C 
HETATM   20  C           1     -21.341 -10.771   0.527  0.00  0.00     0.009 C 
ENDBRANCH  17  18
ENDBRANCH  16  17
BRANCH  16  21
HETATM   21  N           1     -22.325  -7.234  -0.109  0.00  0.00    -0.066 N 
HETATM   22  H           1     -23.337  -7.402  -0.310  0.00  0.00     0.275 HD
HETATM   23  H           1     -22.155  -6.207  -0.017  0.00  0.00     0.275 HD
HETATM   24  H           1     -22.061  -7.712   0.782  0.00  0.00     0.275 HD
ENDBRANCH  16  21
ENDBRANCH   1  16
TORSDOF 8
ENDMDL
MODEL 3
REMARK VINA RESULT:      -6.8      3.612      6.338
REMARK  8 active torsions:
REMARK  status: ('A' for Active; 'I' for Inactive)
REMARK       I    between atoms: C_1  and  N_6 
REMARK    1  A    between atoms: C_1  and  C_12 
REMARK    2  A    between atoms: C_2  and  C_10 
REMARK    3  A    between atoms: N_6  and  C_22 
REMARK    4  A    between atoms: C_10  and  C_22 
REMARK    5  A    between atoms: C_12  and  C_13 
REMARK    6  A    between atoms: C_12  and  N_18 
REMARK    7  A    between atoms: C_13  and  C_14 
REMARK    8  A    between atoms: C_22  and  C_24 
ROOT
HETATM    1  C           1     -21.258  -7.568  -3.584  0.00  0.00     0.249 C 
HETATM    2  N           1     -21.933  -8.683  -4.002  0.00  0.00    -0.344 N 
HETATM    3  H           1     -22.871  -8.598  -4.373  0.00  0.00     0.163 HD
HETATM    4  O           1     -20.569  -6.951  -4.362  0.00  0.00    -0.271 OA
ENDROOT
BRANCH   2   5
HETATM    5  C           1     -21.303  -9.986  -3.913  0.00  0.00     0.189 C 
BRANCH   5   6
HETATM    6  C           1     -22.372 -11.055  -3.735  0.00  0.00     0.074 C 
BRANCH   6   7
HETATM    7  C           1     -22.505 -11.391  -2.281  0.00  0.00    -0.056 A 
HETATM    8  C           1     -21.392 -11.823  -1.562  0.00  0.00     0.007 A 
HETATM    9  C           1     -21.516 -12.137  -0.207  0.00  0.00     0.001 A 
HETATM   10  C           1     -22.754 -12.018   0.425  0.00  0.00     0.000 A 
HETATM   11  C           1     -23.866 -11.586  -0.295  0.00  0.00     0.001 A 
HETATM   12  C           1     -23.743 -11.273  -1.649  0.00  0.00     0.007 A 
ENDBRANCH   6   7
ENDBRANCH   5   6
BRANCH   5  13
HETATM   13  C           1     -20.528 -10.256  -5.180  0.00  0.00     0.197 C 
HETATM   14  O           1     -19.286 -10.124  -5.193  0.00  0.00    -0.646 OA
HETATM   15  O           1     -21.130 -10.613  -6.217  0.00  0.00    -0.646 OA
ENDBRANCH   5  13
ENDBRANCH   2   5
BRANCH   1  16
HETATM   16  C           1     -21.376  -7.108  -2.151  0.00  0.00     0.275 C 
BRANCH  16  17
HETATM   17  C           1     -21.923  -8.244  -1.297  0.00  0.00     0.046 C 
BRANCH  17  18
HETATM   18  C           1     -22.003  -7.796   0.157  0.00  0.00    -0.020 C 
HETATM   19  C           1     -23.424  -7.986   0.669  0.00  0.00     0.009 C 
HETATM   20  C           1     -21.044  -8.627   0.998  0.00  0.00     0.009 C 
ENDBRANCH  17  18
ENDBRANCH  16  17
BRANCH  16  21
HETATM   21  N           1     -22.309  -5.936  -2.079  0.00  0.00    -0.066 N 
HETATM   22  H           1     -23.296  -6.276  -2.110  0.00  0.00     0.275 HD
HETATM   23  H           1     -22.135  -5.301  -2.890  0.00  0.00     0.275 HD
HETATM   24  H           1     -22.146  -5.415  -1.188  0.00  0.00     0.275 HD
ENDBRANCH  16  21
ENDBRANCH   1  16
TORSDOF 8
ENDMDL
MODEL 4
REMARK VINA RESULT:      -6.8      1.727      2.725
REMARK  8 active torsions:
REMARK  status: ('A' for Active; 'I' for Inactive)
REMARK       I    between atoms: C_1  and  N_6 
REMARK    1  A    between atoms: C_1  and  C_12 
REMARK    2  A    between atoms: C_2  and  C_10 
REMARK    3  A    between atoms: N_6  and  C_22 
REMARK    4  A    between atoms: C_10  and  C_22 
REMARK    5  A    between atoms: C_12  and  C_13 
REMARK    6  A    between atoms: C_12  and  N_18 
REMARK    7  A    between atoms: C_13  and  C_14 
REMARK    8  A    between atoms: C_22  and  C_24 
ROOT
HETATM    1  C           1     -21.581  -6.380  -4.592  0.00  0.00     0.249 C 
HETATM    2  N           1     -22.233  -5.730  -5.606  0.00  0.00    -0.344 N 
HETATM    3  H           1     -23.173  -5.383  -5.462  0.00  0.00     0.163 HD
HETATM    4  O           1     -20.906  -5.755  -3.809  0.00  0.00    -0.271 OA
ENDROOT
BRANCH   2   5
HETATM    5  C           1     -21.576  -5.540  -6.885  0.00  0.00     0.189 C 
BRANCH   5   6
HETATM    6  C           1     -21.969  -4.186  -7.460  0.00  0.00     0.074 C 
BRANCH   6   7
HETATM    7  C           1     -21.920  -4.246  -8.955  0.00  0.00    -0.056 A 
HETATM    8  C           1     -23.073  -4.551  -9.678  0.00  0.00     0.007 A 
HETATM    9  C           1     -23.028  -4.607 -11.072  0.00  0.00     0.001 A 
HETATM   10  C           1     -21.829  -4.358 -11.741  0.00  0.00     0.000 A 
HETATM   11  C           1     -20.677  -4.053 -11.018  0.00  0.00     0.001 A 
HETATM   12  C           1     -20.722  -3.997  -9.624  0.00  0.00     0.007 A 
ENDBRANCH   6   7
ENDBRANCH   5   6
BRANCH   5  13
HETATM   13  C           1     -20.080  -5.589  -6.692  0.00  0.00     0.197 C 
HETATM   14  O           1     -19.466  -4.575  -6.295  0.00  0.00    -0.646 OA
HETATM   15  O           1     -19.453  -6.645  -6.929  0.00  0.00    -0.646 OA
ENDBRANCH   5  13
ENDBRANCH   2   5
BRANCH   1  16
HETATM   16  C           1     -21.707  -7.877  -4.453  0.00  0.00     0.275 C 
BRANCH  16  17
HETATM   17  C           1     -20.849  -8.352  -3.287  0.00  0.00     0.046 C 
BRANCH  17  18
HETATM   18  C           1     -21.743  -8.690  -2.101  0.00  0.00    -0.020 C 
HETATM   19  C           1     -21.669 -10.185  -1.820  0.00  0.00     0.009 C 
HETATM   20  C           1     -21.273  -7.919  -0.875  0.00  0.00     0.009 C 
ENDBRANCH  17  18
ENDBRANCH  16  17
BRANCH  16  21
HETATM   21  N           1     -21.241  -8.537  -5.716  0.00  0.00    -0.066 N 
HETATM   22  H           1     -21.177  -9.569  -5.566  0.00  0.00     0.275 HD
HETATM   23  H           1     -20.299  -8.166  -5.977  0.00  0.00     0.275 HD
HETATM   24  H           1     -21.920  -8.337  -6.485  0.00  0.00     0.275 HD
ENDBRANCH  16  21
ENDBRANCH   1  16
TORSDOF 8
ENDMDL
MODEL 5
REMARK VINA RESULT:      -6.8      3.116      6.394
REMARK  8 active torsions:
REMARK  status: ('A' for Active; 'I' for Inactive)
REMARK       I    between atoms: C_1  and  N_6 
REMARK    1  A    between atoms: C_1  and  C_12 
REMARK    2  A    between atoms: C_2  and  C_10 
REMARK    3  A    between atoms: N_6  and  C_22 
REMARK    4  A    between atoms: C_10  and  C_22 
REMARK    5  A    between atoms: C_12  and  C_13 
REMARK    6  A    between atoms: C_12  and  N_18 
REMARK    7  A    between atoms: C_13  and  C_14 
REMARK    8  A    between atoms: C_22  and  C_24 
ROOT
HETATM    1  C           1     -19.538  -9.592  -4.808  0.00  0.00     0.249 C 
HETATM    2  N           1     -19.810  -8.259  -4.657  0.00  0.00    -0.344 N 
HETATM    3  H           1     -19.094  -7.570  -4.853  0.00  0.00     0.163 HD
HETATM    4  O           1     -19.734 -10.133  -5.870  0.00  0.00    -0.271 OA
ENDROOT
BRANCH   2   5
HETATM    5  C           1     -21.125  -7.833  -4.219  0.00  0.00     0.189 C 
BRANCH   5   6
HETATM    6  C           1     -20.995  -7.026  -2.934  0.00  0.00     0.074 C 
BRANCH   6   7
HETATM    7  C           1     -21.711  -7.733  -1.825  0.00  0.00    -0.056 A 
HETATM    8  C           1     -21.775  -9.126  -1.814  0.00  0.00     0.007 A 
HETATM    9  C           1     -22.442  -9.785  -0.780  0.00  0.00     0.001 A 
HETATM   10  C           1     -23.046  -9.050   0.240  0.00  0.00     0.000 A 
HETATM   11  C           1     -22.982  -7.657   0.228  0.00  0.00     0.001 A 
HETATM   12  C           1     -22.314  -6.998  -0.805  0.00  0.00     0.007 A 
ENDBRANCH   6   7
ENDBRANCH   5   6
BRANCH   5  13
HETATM   13  C           1     -21.759  -6.977  -5.288  0.00  0.00     0.197 C 
HETATM   14  O           1     -21.284  -6.967  -6.444  0.00  0.00    -0.646 OA
HETATM   15  O           1     -22.759  -6.277  -5.018  0.00  0.00    -0.646 OA
ENDBRANCH   5  13
ENDBRANCH   2   5
BRANCH   1  16
HETATM   16  C           1     -18.991 -10.385  -3.646  0.00  0.00     0.275 C 
BRANCH  16  17
HETATM   17  C           1     -17.742  -9.701  -3.107  0.00  0.00     0.046 C 
BRANCH  17  18
HETATM   18  C           1     -16.509 -10.500  -3.509  0.00  0.00    -0.020 C 
HETATM   19  C           1     -15.744  -9.745  -4.587  0.00  0.00     0.009 C 
HETATM   20  C           1     -15.613 -10.697  -2.293  0.00  0.00     0.009 C 
ENDBRANCH  17  18
ENDBRANCH  16  17
BRANCH  16  21
HETATM   21  N           1     -18.643 -11.769  -4.107  0.00  0.00    -0.066 N 
HETATM   22  H           1     -18.964 -12.463  -3.395  0.00  0.00     0.275 HD
HETATM   23  H           1     -17.607 -11.846  -4.225  0.00  0.00     0.275 HD
HETATM   24  H           1     -19.113 -11.961  -5.020  0.00  0.00     0.275 HD
ENDBRANCH  16  21
ENDBRANCH   1  16
TORSDOF 8
ENDMDL
MODEL 6
REMARK VINA RESULT:      -6.8      3.323      7.199
REMARK  8 active torsions:
REMARK  status: ('A' for Active; 'I' for Inactive)
REMARK       I    between atoms: C_1  and  N_6 
REMARK    1  A    between atoms: C_1  and  C_12 
REMARK    2  A    between atoms: C_2  and  C_10 
REMARK    3  A    between atoms: N_6  and  C_22 
REMARK    4  A    between atoms: C_10  and  C_22 
REMARK    5  A    between atoms: C_12  and  C_13 
REMARK    6  A    between atoms: C_12  and  N_18 
REMARK    7  A    between atoms: C_13  and  C_14 
REMARK    8  A    between atoms: C_22  and  C_24 
ROOT
HETATM    1  C           1     -19.314  -9.894  -3.366  0.00  0.00     0.249 C 
HETATM    2  N           1     -19.518 -11.037  -2.641  0.00  0.00    -0.344 N 
HETATM    3  H           1     -19.710 -11.910  -3.115  0.00  0.00     0.163 HD
HETATM    4  O           1     -18.199  -9.595  -3.722  0.00  0.00    -0.271 OA
ENDROOT
BRANCH   2   5
HETATM    5  C           1     -19.459 -10.996  -1.192  0.00  0.00     0.189 C 
BRANCH   5   6
HETATM    6  C           1     -20.786 -11.472  -0.617  0.00  0.00     0.074 C 
BRANCH   6   7
HETATM    7  C           1     -21.549 -10.299  -0.084  0.00  0.00    -0.056 A 
HETATM    8  C           1     -20.894  -9.327   0.671  0.00  0.00     0.007 A 
HETATM    9  C           1     -21.605  -8.233   1.168  0.00  0.00     0.001 A 
HETATM   10  C           1     -22.971  -8.114   0.909  0.00  0.00     0.000 A 
HETATM   11  C           1     -23.625  -9.086   0.154  0.00  0.00     0.001 A 
HETATM   12  C           1     -22.915 -10.180  -0.343  0.00  0.00     0.007 A 
ENDBRANCH   6   7
ENDBRANCH   5   6
BRANCH   5  13
HETATM   13  C           1     -18.349 -11.898  -0.709  0.00  0.00     0.197 C 
HETATM   14  O           1     -17.680 -12.560  -1.531  0.00  0.00    -0.646 OA
HETATM   15  O           1     -18.100 -11.982   0.513  0.00  0.00    -0.646 OA
ENDBRANCH   5  13
ENDBRANCH   2   5
BRANCH   1  16
HETATM   16  C           1     -20.483  -9.007  -3.720  0.00  0.00     0.275 C 
BRANCH  16  17
HETATM   17  C           1     -20.618  -7.904  -2.679  0.00  0.00     0.046 C 
BRANCH  17  18
HETATM   18  C           1     -21.753  -6.968  -3.072  0.00  0.00    -0.020 C 
HETATM   19  C           1     -22.105  -6.073  -1.892  0.00  0.00     0.009 C 
HETATM   20  C           1     -21.316  -6.107  -4.250  0.00  0.00     0.009 C 
ENDBRANCH  17  18
ENDBRANCH  16  17
BRANCH  16  21
HETATM   21  N           1     -21.740  -9.825  -3.746  0.00  0.00    -0.066 N 
HETATM   22  H           1     -21.896 -10.252  -2.805  0.00  0.00     0.275 HD
HETATM   23  H           1     -21.648 -10.583  -4.460  0.00  0.00     0.275 HD
HETATM   24  H           1     -22.550  -9.212  -3.991  0.00  0.00     0.275 HD
ENDBRANCH  16  21
ENDBRANCH   1  16
TORSDOF 8
ENDMDL
MODEL 7
REMARK VINA RESULT:      -6.7      4.305      7.578
REMARK  8 active torsions:
REMARK  status: ('A' for Active; 'I' for Inactive)
REMARK       I    between atoms: C_1  and  N_6 
REMARK    1  A    between atoms: C_1  and  C_12 
REMARK    2  A    between atoms: C_2  and  C_10 
REMARK    3  A    between atoms: N_6  and  C_22 
REMARK    4  A    between atoms: C_10  and  C_22 
REMARK    5  A    between atoms: C_12  and  C_13 
REMARK    6  A    between atoms: C_12  and  N_18 
REMARK    7  A    between atoms: C_13  and  C_14 
REMARK    8  A    between atoms: C_22  and  C_24 
ROOT
HETATM    1  C           1     -19.701  -8.843  -3.167  0.00  0.00     0.249 C 
HETATM    2  N           1     -20.105  -8.026  -2.145  0.00  0.00    -0.344 N 
HETATM    3  H           1     -19.491  -7.296  -1.808  0.00  0.00     0.163 HD
HETATM    4  O           1     -19.932  -8.537  -4.313  0.00  0.00    -0.271 OA
ENDROOT
BRANCH   2   5
HETATM    5  C           1     -21.414  -8.208  -1.548  0.00  0.00     0.189 C 
BRANCH   5   6
HETATM    6  C           1     -21.253  -8.686  -0.111  0.00  0.00     0.074 C 
BRANCH   6   7
HETATM    7  C           1     -21.987  -9.980   0.069  0.00  0.00    -0.056 A 
HETATM    8  C           1     -21.322 -11.091   0.586  0.00  0.00     0.007 A 
HETATM    9  C           1     -22.005 -12.297   0.754  0.00  0.00     0.001 A 
HETATM   10  C           1     -23.353 -12.388   0.404  0.00  0.00     0.000 A 
HETATM   11  C           1     -24.016 -11.277  -0.112  0.00  0.00     0.001 A 
HETATM   12  C           1     -23.334 -10.071  -0.280  0.00  0.00     0.007 A 
ENDBRANCH   6   7
ENDBRANCH   5   6
BRANCH   5  13
HETATM   13  C           1     -22.158  -6.895  -1.560  0.00  0.00     0.197 C 
HETATM   14  O           1     -22.804  -6.532  -0.553  0.00  0.00    -0.646 OA
HETATM   15  O           1     -22.128  -6.169  -2.578  0.00  0.00    -0.646 OA
ENDBRANCH   5  13
ENDBRANCH   2   5
BRANCH   1  16
HETATM   16  C           1     -18.966 -10.125  -2.862  0.00  0.00     0.275 C 
BRANCH  16  17
HETATM   17  C           1     -17.973 -10.419  -3.980  0.00  0.00     0.046 C 
BRANCH  17  18
HETATM   18  C           1     -16.659  -9.703  -3.695  0.00  0.00    -0.020 C 
HETATM   19  C           1     -16.011 -10.305  -2.455  0.00  0.00     0.009 C 
HETATM   20  C           1     -15.724  -9.864  -4.886  0.00  0.00     0.009 C 
ENDBRANCH  17  18
ENDBRANCH  16  17
BRANCH  16  21
HETATM   21  N           1     -19.949 -11.252  -2.760  0.00  0.00    -0.066 N 
HETATM   22  H           1     -20.713 -10.987  -2.098  0.00  0.00     0.275 HD
HETATM   23  H           1     -19.464 -12.107  -2.405  0.00  0.00     0.275 HD
HETATM   24  H           1     -20.355 -11.447  -3.702  0.00  0.00     0.275 HD
ENDBRANCH  16  21
ENDBRANCH   1  16
TORSDOF 8
ENDMDL
MODEL 8
REMARK VINA RESULT:      -6.7      1.803      6.781
REMARK  8 active torsions:
REMARK  status: ('A' for Active; 'I' for Inactive)
REMARK       I    between atoms: C_1  and  N_6 
REMARK    1  A    between atoms: C_1  and  C_12 
REMARK    2  A    between atoms: C_2  and  C_10 
REMARK    3  A    between atoms: N_6  and  C_22 
REMARK    4  A    between atoms: C_10  and  C_22 
REMARK    5  A    between atoms: C_12  and  C_13 
REMARK    6  A    between atoms: C_12  and  N_18 
REMARK    7  A    between atoms: C_13  and  C_14 
REMARK    8  A    between atoms: C_22  and  C_24 
ROOT
HETATM    1  C           1     -20.511  -6.941  -6.053  0.00  0.00     0.249 C 
HETATM    2  N           1     -20.989  -8.141  -5.599  0.00  0.00    -0.344 N 
HETATM    3  H           1     -21.685  -8.644  -6.134  0.00  0.00     0.163 HD
HETATM    4  O           1     -19.542  -6.909  -6.774  0.00  0.00    -0.271 OA
ENDROOT
BRANCH   2   5
HETATM    5  C           1     -20.495  -8.691  -4.351  0.00  0.00     0.189 C 
BRANCH   5   6
HETATM    6  C           1     -21.510  -9.682  -3.798  0.00  0.00     0.074 C 
BRANCH   6   7
HETATM    7  C           1     -21.884  -9.286  -2.402  0.00  0.00    -0.056 A 
HETATM    8  C           1     -21.575  -8.010  -1.934  0.00  0.00     0.007 A 
HETATM    9  C           1     -21.923  -7.642  -0.633  0.00  0.00     0.001 A 
HETATM   10  C           1     -22.580  -8.550   0.197  0.00  0.00     0.000 A 
HETATM   11  C           1     -22.888  -9.826  -0.273  0.00  0.00     0.001 A 
HETATM   12  C           1     -22.541 -10.195  -1.573  0.00  0.00     0.007 A 
ENDBRANCH   6   7
ENDBRANCH   5   6
BRANCH   5  13
HETATM   13  C           1     -19.185  -9.399  -4.598  0.00  0.00     0.197 C 
HETATM   14  O           1     -18.260  -9.313  -3.762  0.00  0.00    -0.646 OA
HETATM   15  O           1     -19.025 -10.071  -5.641  0.00  0.00    -0.646 OA
ENDBRANCH   5  13
ENDBRANCH   2   5
BRANCH   1  16
HETATM   16  C           1     -21.197  -5.657  -5.654  0.00  0.00     0.275 C 
BRANCH  16  17
HETATM   17  C           1     -20.450  -4.474  -6.257  0.00  0.00     0.046 C 
BRANCH  17  18
HETATM   18  C           1     -21.297  -3.842  -7.353  0.00  0.00    -0.020 C 
HETATM   19  C           1     -20.665  -4.124  -8.709  0.00  0.00     0.009 C 
HETATM   20  C           1     -22.700  -4.433  -7.314  0.00  0.00     0.009 C 
ENDBRANCH  17  18
ENDBRANCH  16  17
BRANCH  16  21
HETATM   21  N           1     -21.200  -5.537  -4.160  0.00  0.00    -0.066 N 
HETATM   22  H           1     -20.271  -5.834  -3.785  0.00  0.00     0.275 HD
HETATM   23  H           1     -21.947  -6.150  -3.761  0.00  0.00     0.275 HD
HETATM   24  H           1     -21.384  -4.544  -3.890  0.00  0.00     0.275 HD
ENDBRANCH  16  21
ENDBRANCH   1  16
TORSDOF 8
ENDMDL
MODEL 9
REMARK VINA RESULT:      -6.7      3.338      6.896
REMARK  8 active torsions:
REMARK  status: ('A' for Active; 'I' for Inactive)
REMARK       I    between atoms: C_1  and  N_6 
REMARK    1  A    between atoms: C_1  and  C_12 
REMARK    2  A    between atoms: C_2  and  C_10 
REMARK    3  A    between atoms: N_6  and  C_22 
REMARK    4  A    between atoms: C_10  and  C_22 
REMARK    5  A    between atoms: C_12  and  C_13 
REMARK    6  A    between atoms: C_12  and  N_18 
REMARK    7  A    between atoms: C_13  and  C_14 
REMARK    8  A    between atoms: C_22  and  C_24 
ROOT
HETATM    1  C           1     -19.744  -8.355  -4.990  0.00  0.00     0.249 C 
HETATM    2  N           1     -20.000  -7.761  -3.783  0.00  0.00    -0.344 N 
HETATM    3  H           1     -19.272  -7.239  -3.312  0.00  0.00     0.163 HD
HETATM    4  O           1     -19.935  -7.747  -6.016  0.00  0.00    -0.271 OA
ENDROOT
BRANCH   2   5
HETATM    5  C           1     -21.314  -7.880  -3.182  0.00  0.00     0.189 C 
BRANCH   5   6
HETATM    6  C           1     -21.170  -8.317  -1.731  0.00  0.00     0.074 C 
BRANCH   6   7
HETATM    7  C           1     -22.145  -9.416  -1.441  0.00  0.00    -0.056 A 
HETATM    8  C           1     -22.306 -10.462  -2.349  0.00  0.00     0.007 A 
HETATM    9  C           1     -23.215 -11.486  -2.080  0.00  0.00     0.001 A 
HETATM   10  C           1     -23.962 -11.462  -0.902  0.00  0.00     0.000 A 
HETATM   11  C           1     -23.801 -10.417   0.006  0.00  0.00     0.001 A 
HETATM   12  C           1     -22.892  -9.393  -0.263  0.00  0.00     0.007 A 
ENDBRANCH   6   7
ENDBRANCH   5   6
BRANCH   5  13
HETATM   13  C           1     -22.014  -6.544  -3.237  0.00  0.00     0.197 C 
HETATM   14  O           1     -22.233  -5.998  -4.340  0.00  0.00    -0.646 OA
HETATM   15  O           1     -22.374  -5.982  -2.179  0.00  0.00    -0.646 OA
ENDBRANCH   5  13
ENDBRANCH   2   5
BRANCH   1  16
HETATM   16  C           1     -19.222  -9.771  -5.037  0.00  0.00     0.275 C 
BRANCH  16  17
HETATM   17  C           1     -17.812  -9.772  -5.616  0.00  0.00     0.046 C 
BRANCH  17  18
HETATM   18  C           1     -16.857 -10.429  -4.629  0.00  0.00    -0.020 C 
HETATM   19  C           1     -15.460 -10.481  -5.231  0.00  0.00     0.009 C 
HETATM   20  C           1     -16.825  -9.620  -3.339  0.00  0.00     0.009 C 
ENDBRANCH  17  18
ENDBRANCH  16  17
BRANCH  16  21
HETATM   21  N           1     -20.118 -10.604  -5.903  0.00  0.00    -0.066 N 
HETATM   22  H           1     -20.284 -10.109  -6.809  0.00  0.00     0.275 HD
HETATM   23  H           1     -21.031 -10.755  -5.417  0.00  0.00     0.275 HD
HETATM   24  H           1     -19.664 -11.527  -6.088  0.00  0.00     0.275 HD
ENDBRANCH  16  21
ENDBRANCH   1  16
TORSDOF 8
ENDMDL
