MODEL 1
REMARK VINA RESULT:      -6.0      0.000      0.000
REMARK  8 active torsions:
REMARK  status: ('A' for Active; 'I' for Inactive)
REMARK    1  A    between atoms: N_3  and  C_14 
REMARK    2  A    between atoms: C_7  and  C_8 
REMARK    3  A    between atoms: C_8  and  C_21 
REMARK    4  A    between atoms: N_11  and  C_21 
REMARK       I    between atoms: N_11  and  C_12 
REMARK    5  A    between atoms: C_12  and  C_14 
REMARK    6  A    between atoms: C_14  and  C_15 
REMARK    7  A    between atoms: C_15  and  O_16 
REMARK    8  A    between atoms: C_19  and  C_21 
ROOT
HETATM    1  O           1     -33.475  -2.189 -11.157  0.00  0.00    -0.271 OA
HETATM    2  N           1     -35.017  -1.871 -12.740  0.00  0.00    -0.344 N 
HETATM    3  C           1     -34.115  -2.652 -12.070  0.00  0.00     0.251 C 
HETATM    4  H           1     -35.554  -2.258 -13.506  0.00  0.00     0.163 HD
ENDROOT
BRANCH   3   5
HETATM    5  C           1     -33.919  -4.092 -12.476  0.00  0.00     0.302 C 
BRANCH   5   6
HETATM    6  N           1     -32.514  -4.514 -12.160  0.00  0.00    -0.064 N 
HETATM    7  H           1     -32.532  -5.403 -11.610  0.00  0.00     0.275 HD
HETATM    8  H           1     -31.990  -4.667 -13.051  0.00  0.00     0.275 HD
HETATM    9  H           1     -32.043  -3.768 -11.601  0.00  0.00     0.275 HD
ENDBRANCH   5   6
BRANCH   5  10
HETATM   10  C           1     -34.896  -4.973 -11.708  0.00  0.00     0.153 C 
HETATM   11  C           1     -34.132  -5.809 -10.689  0.00  0.00     0.042 C 
BRANCH  10  12
HETATM   12  O           1     -35.831  -4.167 -11.044  0.00  0.00    -0.393 OA
HETATM   13  H           1     -35.706  -3.287 -11.359  0.00  0.00     0.210 HD
ENDBRANCH  10  12
ENDBRANCH   5  10
ENDBRANCH   3   5
BRANCH   2  14
HETATM   14  C           1     -35.206  -0.486 -12.351  0.00  0.00     0.189 C 
BRANCH  14  15
HETATM   15  C           1     -35.598   0.335 -13.572  0.00  0.00     0.014 C 
HETATM   16  C           1     -34.530   1.386 -13.841  0.00  0.00     0.012 C 
BRANCH  15  17
HETATM   17  C           1     -35.725  -0.583 -14.781  0.00  0.00     0.002 C 
HETATM   18  C           1     -36.918  -0.153 -15.624  0.00  0.00     0.005 C 
ENDBRANCH  15  17
ENDBRANCH  14  15
BRANCH  14  19
HETATM   19  C           1     -36.300  -0.400 -11.314  0.00  0.00     0.197 C 
HETATM   20  O           1     -37.203  -1.263 -11.287  0.00  0.00    -0.646 OA
HETATM   21  O           1     -36.302   0.534 -10.483  0.00  0.00    -0.646 OA
ENDBRANCH  14  19
ENDBRANCH   2  14
TORSDOF 8
ENDMDL
MODEL 2
REMARK VINA RESULT:      -5.6      2.269      5.051
REMARK  8 active torsions:
REMARK  status: ('A' for Active; 'I' for Inactive)
REMARK    1  A    between atoms: N_3  and  C_14 
REMARK    2  A    between atoms: C_7  and  C_8 
REMARK    3  A    between atoms: C_8  and  C_21 
REMARK    4  A    between atoms: N_11  and  C_21 
REMARK       I    between atoms: N_11  and  C_12 
REMARK    5  A    between atoms: C_12  and  C_14 
REMARK    6  A    between atoms: C_14  and  C_15 
REMARK    7  A    between atoms: C_15  and  O_16 
REMARK    8  A    between atoms: C_19  and  C_21 
ROOT
HETATM    1  O           1     -37.362  -0.932 -13.479  0.00  0.00    -0.271 OA
HETATM    2  N           1     -35.453  -0.890 -12.322  0.00  0.00    -0.344 N 
HETATM    3  C           1     -36.192  -0.637 -13.446  0.00  0.00     0.251 C 
HETATM    4  H           1     -34.472  -0.643 -12.293  0.00  0.00     0.163 HD
ENDROOT
BRANCH   3   5
HETATM    5  C           1     -35.542   0.012 -14.643  0.00  0.00     0.302 C 
BRANCH   5   6
HETATM    6  N           1     -34.988  -1.049 -15.547  0.00  0.00    -0.064 N 
HETATM    7  H           1     -34.488  -1.768 -14.977  0.00  0.00     0.275 HD
HETATM    8  H           1     -35.771  -1.502 -16.070  0.00  0.00     0.275 HD
HETATM    9  H           1     -34.321  -0.616 -16.225  0.00  0.00     0.275 HD
ENDBRANCH   5   6
BRANCH   5  10
HETATM   10  C           1     -36.579   0.831 -15.402  0.00  0.00     0.153 C 
HETATM   11  C           1     -35.913   2.061 -16.004  0.00  0.00     0.042 C 
BRANCH  10  12
HETATM   12  O           1     -37.133   0.051 -16.427  0.00  0.00    -0.393 OA
HETATM   13  H           1     -36.464  -0.554 -16.702  0.00  0.00     0.210 HD
ENDBRANCH  10  12
ENDBRANCH   5  10
ENDBRANCH   3   5
BRANCH   2  14
HETATM   14  C           1     -36.077  -1.514 -11.170  0.00  0.00     0.189 C 
BRANCH  14  15
HETATM   15  C           1     -35.103  -2.500 -10.539  0.00  0.00     0.014 C 
HETATM   16  C           1     -35.473  -3.916 -10.960  0.00  0.00     0.012 C 
BRANCH  15  17
HETATM   17  C           1     -33.688  -2.184 -11.003  0.00  0.00     0.002 C 
HETATM   18  C           1     -33.014  -3.462 -11.487  0.00  0.00     0.005 C 
ENDBRANCH  15  17
ENDBRANCH  14  15
BRANCH  14  19
HETATM   19  C           1     -36.444  -0.453 -10.161  0.00  0.00     0.197 C 
HETATM   20  O           1     -37.026  -0.772  -9.102  0.00  0.00    -0.646 OA
HETATM   21  O           1     -36.166   0.745 -10.385  0.00  0.00    -0.646 OA
ENDBRANCH  14  19
ENDBRANCH   2  14
TORSDOF 8
ENDMDL
MODEL 3
REMARK VINA RESULT:      -5.6     10.188     11.868
REMARK  8 active torsions:
REMARK  status: ('A' for Active; 'I' for Inactive)
REMARK    1  A    between atoms: N_3  and  C_14 
REMARK    2  A    between atoms: C_7  and  C_8 
REMARK    3  A    between atoms: C_8  and  C_21 
REMARK    4  A    between atoms: N_11  and  C_21 
REMARK       I    between atoms: N_11  and  C_12 
REMARK    5  A    between atoms: C_12  and  C_14 
REMARK    6  A    between atoms: C_14  and  C_15 
REMARK    7  A    between atoms: C_15  and  O_16 
REMARK    8  A    between atoms: C_19  and  C_21 
ROOT
HETATM    1  O           1     -24.666  -6.363 -18.253  0.00  0.00    -0.271 OA
HETATM    2  N           1     -26.876  -6.678 -18.187  0.00  0.00    -0.344 N 
HETATM    3  C           1     -25.652  -6.814 -18.785  0.00  0.00     0.251 C 
HETATM    4  H           1     -27.703  -7.056 -18.631  0.00  0.00     0.163 HD
ENDROOT
BRANCH   3   5
HETATM    5  C           1     -25.537  -7.528 -20.110  0.00  0.00     0.302 C 
BRANCH   5   6
HETATM    6  N           1     -26.904  -7.705 -20.703  0.00  0.00    -0.064 N 
HETATM    7  H           1     -27.168  -6.846 -21.235  0.00  0.00     0.275 HD
HETATM    8  H           1     -26.897  -8.526 -21.349  0.00  0.00     0.275 HD
HETATM    9  H           1     -27.597  -7.868 -19.938  0.00  0.00     0.275 HD
ENDBRANCH   5   6
BRANCH   5  10
HETATM   10  C           1     -24.678  -6.702 -21.059  0.00  0.00     0.153 C 
HETATM   11  C           1     -24.360  -7.524 -22.301  0.00  0.00     0.042 C 
BRANCH  10  12
HETATM   12  O           1     -25.373  -5.543 -21.430  0.00  0.00    -0.393 OA
HETATM   13  H           1     -26.291  -5.760 -21.426  0.00  0.00     0.210 HD
ENDBRANCH  10  12
ENDBRANCH   5  10
ENDBRANCH   3   5
BRANCH   2  14
HETATM   14  C           1     -26.988  -5.992 -16.913  0.00  0.00     0.189 C 
BRANCH  14  15
HETATM   15  C           1     -28.354  -5.328 -16.813  0.00  0.00     0.014 C 
HETATM   16  C           1     -28.185  -3.815 -16.828  0.00  0.00     0.012 C 
BRANCH  15  17
HETATM   17  C           1     -29.214  -5.756 -17.996  0.00  0.00     0.002 C 
HETATM   18  C           1     -30.440  -6.504 -17.489  0.00  0.00     0.005 C 
ENDBRANCH  15  17
ENDBRANCH  14  15
BRANCH  14  19
HETATM   19  C           1     -26.828  -6.988 -15.790  0.00  0.00     0.197 C 
HETATM   20  O           1     -25.686  -7.353 -15.437  0.00  0.00    -0.646 OA
HETATM   21  O           1     -27.837  -7.449 -15.215  0.00  0.00    -0.646 OA
ENDBRANCH  14  19
ENDBRANCH   2  14
TORSDOF 8
ENDMDL
MODEL 4
REMARK VINA RESULT:      -5.4      9.759     11.300
REMARK  8 active torsions:
REMARK  status: ('A' for Active; 'I' for Inactive)
REMARK    1  A    between atoms: N_3  and  C_14 
REMARK    2  A    between atoms: C_7  and  C_8 
REMARK    3  A    between atoms: C_8  and  C_21 
REMARK    4  A    between atoms: N_11  and  C_21 
REMARK       I    between atoms: N_11  and  C_12 
REMARK    5  A    between atoms: C_12  and  C_14 
REMARK    6  A    between atoms: C_14  and  C_15 
REMARK    7  A    between atoms: C_15  and  O_16 
REMARK    8  A    between atoms: C_19  and  C_21 
ROOT
HETATM    1  O           1     -26.177  -6.565 -17.224  0.00  0.00    -0.271 OA
HETATM    2  N           1     -27.758  -6.510 -18.800  0.00  0.00    -0.344 N 
HETATM    3  C           1     -26.449  -6.552 -18.401  0.00  0.00     0.251 C 
HETATM    4  H           1     -27.988  -6.499 -19.786  0.00  0.00     0.163 HD
ENDROOT
BRANCH   3   5
HETATM    5  C           1     -25.348  -6.580 -19.432  0.00  0.00     0.302 C 
BRANCH   5   6
HETATM    6  N           1     -24.260  -7.506 -18.976  0.00  0.00    -0.064 N 
HETATM    7  H           1     -24.456  -7.822 -17.999  0.00  0.00     0.275 HD
HETATM    8  H           1     -24.224  -8.337 -19.609  0.00  0.00     0.275 HD
HETATM    9  H           1     -23.343  -7.007 -19.003  0.00  0.00     0.275 HD
ENDBRANCH   5   6
BRANCH   5  10
HETATM   10  C           1     -25.909  -7.074 -20.760  0.00  0.00     0.153 C 
HETATM   11  C           1     -24.768  -7.276 -21.748  0.00  0.00     0.042 C 
BRANCH  10  12
HETATM   12  O           1     -26.577  -8.290 -20.562  0.00  0.00    -0.393 OA
HETATM   13  H           1     -27.002  -8.505 -21.376  0.00  0.00     0.210 HD
ENDBRANCH  10  12
ENDBRANCH   5  10
ENDBRANCH   3   5
BRANCH   2  14
HETATM   14  C           1     -28.818  -6.482 -17.809  0.00  0.00     0.189 C 
BRANCH  14  15
HETATM   15  C           1     -29.788  -5.356 -18.136  0.00  0.00     0.014 C 
HETATM   16  C           1     -30.935  -5.368 -17.134  0.00  0.00     0.012 C 
BRANCH  15  17
HETATM   17  C           1     -29.060  -4.020 -18.061  0.00  0.00     0.002 C 
HETATM   18  C           1     -28.423  -3.866 -16.686  0.00  0.00     0.005 C 
ENDBRANCH  15  17
ENDBRANCH  14  15
BRANCH  14  19
HETATM   19  C           1     -29.552  -7.801 -17.822  0.00  0.00     0.197 C 
HETATM   20  O           1     -29.529  -8.539 -16.814  0.00  0.00    -0.646 OA
HETATM   21  O           1     -30.184  -8.155 -18.841  0.00  0.00    -0.646 OA
ENDBRANCH  14  19
ENDBRANCH   2  14
TORSDOF 8
ENDMDL
MODEL 5
REMARK VINA RESULT:      -5.4      1.980      5.301
REMARK  8 active torsions:
REMARK  status: ('A' for Active; 'I' for Inactive)
REMARK    1  A    between atoms: N_3  and  C_14 
REMARK    2  A    between atoms: C_7  and  C_8 
REMARK    3  A    between atoms: C_8  and  C_21 
REMARK    4  A    between atoms: N_11  and  C_21 
REMARK       I    between atoms: N_11  and  C_12 
REMARK    5  A    between atoms: C_12  and  C_14 
REMARK    6  A    between atoms: C_14  and  C_15 
REMARK    7  A    between atoms: C_15  and  O_16 
REMARK    8  A    between atoms: C_19  and  C_21 
ROOT
HETATM    1  O           1     -36.731  -0.989 -13.210  0.00  0.00    -0.271 OA
HETATM    2  N           1     -34.709  -1.934 -13.128  0.00  0.00    -0.344 N 
HETATM    3  C           1     -35.640  -1.116 -13.711  0.00  0.00     0.251 C 
HETATM    4  H           1     -33.794  -2.041 -13.548  0.00  0.00     0.163 HD
ENDROOT
BRANCH   3   5
HETATM    5  C           1     -35.300  -0.374 -14.980  0.00  0.00     0.302 C 
BRANCH   5   6
HETATM    6  N           1     -35.062  -1.358 -16.087  0.00  0.00    -0.064 N 
HETATM    7  H           1     -35.344  -2.314 -15.771  0.00  0.00     0.275 HD
HETATM    8  H           1     -35.631  -1.087 -16.921  0.00  0.00     0.275 HD
HETATM    9  H           1     -34.049  -1.360 -16.341  0.00  0.00     0.275 HD
ENDBRANCH   5   6
BRANCH   5  10
HETATM   10  C           1     -36.458   0.542 -15.358  0.00  0.00     0.153 C 
HETATM   11  C           1     -35.910   1.861 -15.885  0.00  0.00     0.042 C 
BRANCH  10  12
HETATM   12  O           1     -37.234  -0.072 -16.351  0.00  0.00    -0.393 OA
HETATM   13  H           1     -36.906  -0.950 -16.453  0.00  0.00     0.210 HD
ENDBRANCH  10  12
ENDBRANCH   5  10
ENDBRANCH   3   5
BRANCH   2  14
HETATM   14  C           1     -35.035  -2.648 -11.908  0.00  0.00     0.189 C 
BRANCH  14  15
HETATM   15  C           1     -34.376  -4.020 -11.933  0.00  0.00     0.014 C 
HETATM   16  C           1     -32.866  -3.855 -12.045  0.00  0.00     0.012 C 
BRANCH  15  17
HETATM   17  C           1     -34.711  -4.768 -10.649  0.00  0.00     0.002 C 
HETATM   18  C           1     -34.209  -6.202 -10.750  0.00  0.00     0.005 C 
ENDBRANCH  15  17
ENDBRANCH  14  15
BRANCH  14  19
HETATM   19  C           1     -34.529  -1.867 -10.719  0.00  0.00     0.197 C 
HETATM   20  O           1     -35.338  -1.400  -9.889  0.00  0.00    -0.646 OA
HETATM   21  O           1     -33.302  -1.687 -10.565  0.00  0.00    -0.646 OA
ENDBRANCH  14  19
ENDBRANCH   2  14
TORSDOF 8
ENDMDL
MODEL 6
REMARK VINA RESULT:      -5.3     10.059     11.630
REMARK  8 active torsions:
REMARK  status: ('A' for Active; 'I' for Inactive)
REMARK    1  A    between atoms: N_3  and  C_14 
REMARK    2  A    between atoms: C_7  and  C_8 
REMARK    3  A    between atoms: C_8  and  C_21 
REMARK    4  A    between atoms: N_11  and  C_21 
REMARK       I    between atoms: N_11  and  C_12 
REMARK    5  A    between atoms: C_12  and  C_14 
REMARK    6  A    between atoms: C_14  and  C_15 
REMARK    7  A    between atoms: C_15  and  O_16 
REMARK    8  A    between atoms: C_19  and  C_21 
ROOT
HETATM    1  O           1     -27.095  -6.053 -20.584  0.00  0.00    -0.271 OA
HETATM    2  N           1     -26.844  -6.267 -18.375  0.00  0.00    -0.344 N 
HETATM    3  C           1     -26.374  -6.340 -19.659  0.00  0.00     0.251 C 
HETATM    4  H           1     -26.240  -6.507 -17.599  0.00  0.00     0.163 HD
ENDROOT
BRANCH   3   5
HETATM    5  C           1     -24.953  -6.780 -19.917  0.00  0.00     0.302 C 
BRANCH   5   6
HETATM    6  N           1     -24.460  -7.587 -18.752  0.00  0.00    -0.064 N 
HETATM    7  H           1     -23.452  -7.374 -18.582  0.00  0.00     0.275 HD
HETATM    8  H           1     -25.016  -7.342 -17.901  0.00  0.00     0.275 HD
HETATM    9  H           1     -24.572  -8.604 -18.960  0.00  0.00     0.275 HD
ENDBRANCH   5   6
BRANCH   5  10
HETATM   10  C           1     -24.907  -7.633 -21.178  0.00  0.00     0.153 C 
HETATM   11  C           1     -23.553  -8.322 -21.275  0.00  0.00     0.042 C 
BRANCH  10  12
HETATM   12  O           1     -25.921  -8.600 -21.126  0.00  0.00    -0.393 OA
HETATM   13  H           1     -25.816  -9.063 -20.312  0.00  0.00     0.210 HD
ENDBRANCH  10  12
ENDBRANCH   5  10
ENDBRANCH   3   5
BRANCH   2  14
HETATM   14  C           1     -28.209  -5.844 -18.126  0.00  0.00     0.189 C 
BRANCH  14  15
HETATM   15  C           1     -28.906  -6.874 -17.248  0.00  0.00     0.014 C 
HETATM   16  C           1     -29.629  -6.164 -16.111  0.00  0.00     0.012 C 
BRANCH  15  17
HETATM   17  C           1     -29.913  -7.655 -18.082  0.00  0.00     0.002 C 
HETATM   18  C           1     -31.325  -7.210 -17.723  0.00  0.00     0.005 C 
ENDBRANCH  15  17
ENDBRANCH  14  15
BRANCH  14  19
HETATM   19  C           1     -28.201  -4.507 -17.426  0.00  0.00     0.197 C 
HETATM   20  O           1     -27.366  -4.280 -16.524  0.00  0.00    -0.646 OA
HETATM   21  O           1     -29.030  -3.628 -17.747  0.00  0.00    -0.646 OA
ENDBRANCH  14  19
ENDBRANCH   2  14
TORSDOF 8
ENDMDL
MODEL 7
REMARK VINA RESULT:      -5.0     14.259     16.997
REMARK  8 active torsions:
REMARK  status: ('A' for Active; 'I' for Inactive)
REMARK    1  A    between atoms: N_3  and  C_14 
REMARK    2  A    between atoms: C_7  and  C_8 
REMARK    3  A    between atoms: C_8  and  C_21 
REMARK    4  A    between atoms: N_11  and  C_21 
REMARK       I    between atoms: N_11  and  C_12 
REMARK    5  A    between atoms: C_12  and  C_14 
REMARK    6  A    between atoms: C_14  and  C_15 
REMARK    7  A    between atoms: C_15  and  O_16 
REMARK    8  A    between atoms: C_19  and  C_21 
ROOT
HETATM    1  O           1     -19.886  -4.998  -6.080  0.00  0.00    -0.271 OA
HETATM    2  N           1     -21.507  -6.457  -5.597  0.00  0.00    -0.344 N 
HETATM    3  C           1     -21.030  -5.349  -6.245  0.00  0.00     0.251 C 
HETATM    4  H           1     -22.465  -6.752  -5.735  0.00  0.00     0.163 HD
ENDROOT
BRANCH   3   5
HETATM    5  C           1     -21.935  -4.567  -7.165  0.00  0.00     0.302 C 
BRANCH   5   6
HETATM    6  N           1     -21.617  -3.105  -7.055  0.00  0.00    -0.064 N 
HETATM    7  H           1     -22.126  -2.580  -7.801  0.00  0.00     0.275 HD
HETATM    8  H           1     -21.916  -2.755  -6.117  0.00  0.00     0.275 HD
HETATM    9  H           1     -20.588  -2.962  -7.168  0.00  0.00     0.275 HD
ENDBRANCH   5   6
BRANCH   5  10
HETATM   10  C           1     -21.716  -5.025  -8.602  0.00  0.00     0.153 C 
HETATM   11  C           1     -22.610  -4.216  -9.533  0.00  0.00     0.042 C 
BRANCH  10  12
HETATM   12  O           1     -20.375  -4.830  -8.956  0.00  0.00    -0.393 OA
HETATM   13  H           1     -20.302  -5.028  -9.876  0.00  0.00     0.210 HD
ENDBRANCH  10  12
ENDBRANCH   5  10
ENDBRANCH   3   5
BRANCH   2  14
HETATM   14  C           1     -20.637  -7.210  -4.713  0.00  0.00     0.189 C 
BRANCH  14  15
HETATM   15  C           1     -21.385  -7.540  -3.428  0.00  0.00     0.014 C 
HETATM   16  C           1     -20.450  -8.266  -2.470  0.00  0.00     0.012 C 
BRANCH  15  17
HETATM   17  C           1     -21.877  -6.252  -2.781  0.00  0.00     0.002 C 
HETATM   18  C           1     -22.262  -6.525  -1.334  0.00  0.00     0.005 C 
ENDBRANCH  15  17
ENDBRANCH  14  15
BRANCH  14  19
HETATM   19  C           1     -20.214  -8.489  -5.393  0.00  0.00     0.197 C 
HETATM   20  O           1     -21.071  -9.343  -5.705  0.00  0.00    -0.646 OA
HETATM   21  O           1     -19.007  -8.695  -5.643  0.00  0.00    -0.646 OA
ENDBRANCH  14  19
ENDBRANCH   2  14
TORSDOF 8
ENDMDL
MODEL 8
REMARK VINA RESULT:      -4.8     17.071     19.071
REMARK  8 active torsions:
REMARK  status: ('A' for Active; 'I' for Inactive)
REMARK    1  A    between atoms: N_3  and  C_14 
REMARK    2  A    between atoms: C_7  and  C_8 
REMARK    3  A    between atoms: C_8  and  C_21 
REMARK    4  A    between atoms: N_11  and  C_21 
REMARK       I    between atoms: N_11  and  C_12 
REMARK    5  A    between atoms: C_12  and  C_14 
REMARK    6  A    between atoms: C_14  and  C_15 
REMARK    7  A    between atoms: C_15  and  O_16 
REMARK    8  A    between atoms: C_19  and  C_21 
ROOT
HETATM    1  O           1     -20.848  -6.990  -2.278  0.00  0.00    -0.271 OA
HETATM    2  N           1     -21.622  -9.085  -2.245  0.00  0.00    -0.344 N 
HETATM    3  C           1     -21.397  -7.888  -2.871  0.00  0.00     0.251 C 
HETATM    4  H           1     -22.081  -9.838  -2.741  0.00  0.00     0.163 HD
ENDROOT
BRANCH   3   5
HETATM    5  C           1     -21.835  -7.692  -4.301  0.00  0.00     0.302 C 
BRANCH   5   6
HETATM    6  N           1     -22.351  -6.295  -4.480  0.00  0.00    -0.064 N 
HETATM    7  H           1     -23.329  -6.328  -4.845  0.00  0.00     0.275 HD
HETATM    8  H           1     -22.340  -5.802  -3.558  0.00  0.00     0.275 HD
HETATM    9  H           1     -21.743  -5.783  -5.157  0.00  0.00     0.275 HD
ENDBRANCH   5   6
BRANCH   5  10
HETATM   10  C           1     -20.649  -7.916  -5.231  0.00  0.00     0.153 C 
HETATM   11  C           1     -20.262  -6.596  -5.885  0.00  0.00     0.042 C 
BRANCH  10  12
HETATM   12  O           1     -19.563  -8.408  -4.494  0.00  0.00    -0.393 OA
HETATM   13  H           1     -19.079  -7.660  -4.186  0.00  0.00     0.210 HD
ENDBRANCH  10  12
ENDBRANCH   5  10
ENDBRANCH   3   5
BRANCH   2  14
HETATM   14  C           1     -21.201  -9.273  -0.869  0.00  0.00     0.189 C 
BRANCH  14  15
HETATM   15  C           1     -22.419  -9.558  -0.001  0.00  0.00     0.014 C 
HETATM   16  C           1     -23.084  -8.243   0.385  0.00  0.00     0.012 C 
BRANCH  15  17
HETATM   17  C           1     -23.406 -10.419  -0.778  0.00  0.00     0.002 C 
HETATM   18  C           1     -23.785 -11.636   0.055  0.00  0.00     0.005 C 
ENDBRANCH  15  17
ENDBRANCH  14  15
BRANCH  14  19
HETATM   19  C           1     -20.244 -10.438  -0.792  0.00  0.00     0.197 C 
HETATM   20  O           1     -20.065 -11.029   0.295  0.00  0.00    -0.646 OA
HETATM   21  O           1     -19.629 -10.811  -1.815  0.00  0.00    -0.646 OA
ENDBRANCH  14  19
ENDBRANCH   2  14
TORSDOF 8
ENDMDL
MODEL 9
REMARK VINA RESULT:      -4.7     12.997     15.341
REMARK  8 active torsions:
REMARK  status: ('A' for Active; 'I' for Inactive)
REMARK    1  A    between atoms: N_3  and  C_14 
REMARK    2  A    between atoms: C_7  and  C_8 
REMARK    3  A    between atoms: C_8  and  C_21 
REMARK    4  A    between atoms: N_11  and  C_21 
REMARK       I    between atoms: N_11  and  C_12 
REMARK    5  A    between atoms: C_12  and  C_14 
REMARK    6  A    between atoms: C_14  and  C_15 
REMARK    7  A    between atoms: C_15  and  O_16 
REMARK    8  A    between atoms: C_19  and  C_21 
ROOT
HETATM    1  O           1     -22.622  -3.300  -8.348  0.00  0.00    -0.271 OA
HETATM    2  N           1     -21.827  -5.330  -7.863  0.00  0.00    -0.344 N 
HETATM    3  C           1     -22.430  -4.437  -8.707  0.00  0.00     0.251 C 
HETATM    4  H           1     -21.665  -6.283  -8.164  0.00  0.00     0.163 HD
ENDROOT
BRANCH   3   5
HETATM    5  C           1     -22.856  -4.875 -10.087  0.00  0.00     0.302 C 
BRANCH   5   6
HETATM    6  N           1     -24.336  -4.681 -10.239  0.00  0.00    -0.064 N 
HETATM    7  H           1     -24.526  -3.724 -10.612  0.00  0.00     0.275 HD
HETATM    8  H           1     -24.712  -5.394 -10.904  0.00  0.00     0.275 HD
HETATM    9  H           1     -24.799  -4.792  -9.309  0.00  0.00     0.275 HD
ENDBRANCH   5   6
BRANCH   5  10
HETATM   10  C           1     -22.127  -4.039 -11.132  0.00  0.00     0.153 C 
HETATM   11  C           1     -20.626  -4.255 -10.998  0.00  0.00     0.042 C 
BRANCH  10  12
HETATM   12  O           1     -22.542  -4.427 -12.414  0.00  0.00    -0.393 OA
HETATM   13  H           1     -21.999  -3.963 -13.030  0.00  0.00     0.210 HD
ENDBRANCH  10  12
ENDBRANCH   5  10
ENDBRANCH   3   5
BRANCH   2  14
HETATM   14  C           1     -21.417  -4.909  -6.536  0.00  0.00     0.189 C 
BRANCH  14  15
HETATM   15  C           1     -21.776  -5.993  -5.529  0.00  0.00     0.014 C 
HETATM   16  C           1     -23.291  -6.124  -5.443  0.00  0.00     0.012 C 
BRANCH  15  17
HETATM   17  C           1     -21.175  -7.320  -5.975  0.00  0.00     0.002 C 
HETATM   18  C           1     -21.368  -8.359  -4.878  0.00  0.00     0.005 C 
ENDBRANCH  15  17
ENDBRANCH  14  15
BRANCH  14  19
HETATM   19  C           1     -19.925  -4.680  -6.520  0.00  0.00     0.197 C 
HETATM   20  O           1     -19.345  -4.421  -5.444  0.00  0.00    -0.646 OA
HETATM   21  O           1     -19.271  -4.749  -7.582  0.00  0.00    -0.646 OA
ENDBRANCH  14  19
ENDBRANCH   2  14
TORSDOF 8
ENDMDL
