MODEL 1
REMARK VINA RESULT:      -7.0      0.000      0.000
REMARK  17 active torsions:
REMARK  status: ('A' for Active; 'I' for Inactive)
REMARK       I    between atoms: C_2  and  N_3 
REMARK       I    between atoms: C_2  and  N_4 
REMARK    1  A    between atoms: N_5  and  C_33 
REMARK    2  A    between atoms: O_6  and  P_37 
REMARK    3  A    between atoms: N_8  and  C_16 
REMARK    4  A    between atoms: N_8  and  C_9 
REMARK    5  A    between atoms: C_9  and  C_10 
REMARK    6  A    between atoms: C_10  and  C_19 
REMARK    7  A    between atoms: C_11  and  C_16 
REMARK    8  A    between atoms: C_12  and  C_33 
REMARK    9  A    between atoms: C_12  and  C_13 
REMARK   10  A    between atoms: C_13  and  C_14 
REMARK   11  A    between atoms: C_14  and  N_15 
REMARK   12  A    between atoms: C_16  and  C_18 
REMARK   13  A    between atoms: C_18  and  O_36 
REMARK   14  A    between atoms: C_19  and  C_20 
REMARK   15  A    between atoms: C_19  and  N_35 
REMARK   16  A    between atoms: C_33  and  C_34 
REMARK       I    between atoms: C_34  and  N_35 
REMARK   17  A    between atoms: O_36  and  P_37 
ROOT
HETATM    1  O           1     -34.585  -3.503 -15.097  0.00  0.00    -0.271 OA
HETATM    2  H           1     -34.583  -1.280 -17.310  0.00  0.00     0.163 HD
HETATM    3  C           1     -34.321  -2.974 -16.150  0.00  0.00     0.249 C 
HETATM    4  N           1     -34.804  -1.724 -16.427  0.00  0.00    -0.345 N 
ENDROOT
BRANCH   4   5
HETATM    5  C           1     -35.632  -1.034 -15.457  0.00  0.00     0.187 C 
BRANCH   5   6
HETATM    6  C           1     -34.786  -0.019 -14.699  0.00  0.00     0.066 C 
BRANCH   6   7
HETATM    7  C           1     -35.467   0.329 -13.383  0.00  0.00     0.273 C 
BRANCH   7   8
HETATM    8  N           1     -34.806  -0.357 -12.305  0.00  0.00     0.100 N 
HETATM    9  H           1     -34.635   0.296 -11.541  0.00  0.00     0.317 HD
BRANCH   8  10
HETATM   10  C           1     -35.678  -1.407 -11.853  0.00  0.00     0.344 C 
BRANCH  10  11
HETATM   11  C           1     -36.659  -0.849 -10.852  0.00  0.00     0.209 C 
HETATM   12  O           1     -37.887  -0.967 -11.048  0.00  0.00    -0.646 OA
HETATM   13  O           1     -36.242  -0.269  -9.826  0.00  0.00    -0.646 OA
ENDBRANCH  10  11
BRANCH  10  14
HETATM   14  C           1     -34.852  -2.506 -11.199  0.00  0.00     0.228 C 
BRANCH  14  15
HETATM   15  O           1     -35.507  -3.735 -11.347  0.00  0.00    -0.287 OA
BRANCH  15  16
HETATM   16  P           1     -34.577  -4.989 -11.762  0.00  0.00     0.406 P 
HETATM   17  O           1     -33.172  -4.539 -11.890  0.00  0.00    -0.624 OA
HETATM   18  O           1     -34.667  -6.036 -10.721  0.00  0.00    -0.624 OA
BRANCH  16  19
HETATM   19  O           1     -35.081  -5.589 -13.174  0.00  0.00    -0.300 OA
HETATM   20  H           1     -34.474  -6.281 -13.375  0.00  0.00     0.223 HD
ENDBRANCH  16  19
ENDBRANCH  15  16
ENDBRANCH  14  15
ENDBRANCH  10  14
ENDBRANCH   8  10
ENDBRANCH   7   8
ENDBRANCH   6   7
ENDBRANCH   5   6
BRANCH   5  21
HETATM   21  C           1     -36.755  -0.322 -16.170  0.00  0.00     0.196 C 
HETATM   22  O           1     -36.753   0.925 -16.252  0.00  0.00    -0.646 OA
HETATM   23  O           1     -37.688  -0.981 -16.679  0.00  0.00    -0.646 OA
ENDBRANCH   5  21
ENDBRANCH   4   5
BRANCH   3  24
HETATM   24  C           1     -33.460  -3.691 -17.161  0.00  0.00     0.274 C 
BRANCH  24  25
HETATM   25  N           1     -32.307  -2.812 -17.548  0.00  0.00    -0.067 N 
HETATM   26  H           1     -31.754  -2.569 -16.695  0.00  0.00     0.275 HD
HETATM   27  H           1     -31.697  -3.320 -18.227  0.00  0.00     0.275 HD
HETATM   28  H           1     -32.669  -1.938 -17.990  0.00  0.00     0.257 HD
ENDBRANCH  24  25
BRANCH  24  29
HETATM   29  C           1     -32.931  -4.983 -16.552  0.00  0.00     0.044 C 
BRANCH  29  30
HETATM   30  C           1     -31.408  -4.984 -16.607  0.00  0.00     0.023 C 
BRANCH  30  31
HETATM   31  C           1     -30.926  -6.268 -17.270  0.00  0.00     0.156 C 
BRANCH  31  32
HETATM   32  N           1     -29.626  -6.030 -17.914  0.00  0.00    -0.227 N 
HETATM   33  C           1     -28.973  -6.999 -18.399  0.00  0.00     0.665 C 
HETATM   34  N           1     -27.853  -6.793 -18.954  0.00  0.00    -0.235 N 
HETATM   35  N           1     -29.450  -8.206 -18.329  0.00  0.00    -0.235 N 
HETATM   36  H           1     -27.311  -7.598 -19.356  0.00  0.00     0.174 HD
HETATM   37  H           1     -27.467  -5.819 -19.012  0.00  0.00     0.174 HD
HETATM   38  H           1     -28.912  -9.007 -18.728  0.00  0.00     0.174 HD
HETATM   39  H           1     -30.375  -8.375 -17.870  0.00  0.00     0.174 HD
HETATM   40  H           1     -29.239  -5.055 -17.972  0.00  0.00     0.177 HD
ENDBRANCH  31  32
ENDBRANCH  30  31
ENDBRANCH  29  30
ENDBRANCH  24  29
ENDBRANCH   3  24
TORSDOF 17
ENDMDL
MODEL 2
REMARK VINA RESULT:      -6.6     16.179     18.609
REMARK  17 active torsions:
REMARK  status: ('A' for Active; 'I' for Inactive)
REMARK       I    between atoms: C_2  and  N_3 
REMARK       I    between atoms: C_2  and  N_4 
REMARK    1  A    between atoms: N_5  and  C_33 
REMARK    2  A    between atoms: O_6  and  P_37 
REMARK    3  A    between atoms: N_8  and  C_16 
REMARK    4  A    between atoms: N_8  and  C_9 
REMARK    5  A    between atoms: C_9  and  C_10 
REMARK    6  A    between atoms: C_10  and  C_19 
REMARK    7  A    between atoms: C_11  and  C_16 
REMARK    8  A    between atoms: C_12  and  C_33 
REMARK    9  A    between atoms: C_12  and  C_13 
REMARK   10  A    between atoms: C_13  and  C_14 
REMARK   11  A    between atoms: C_14  and  N_15 
REMARK   12  A    between atoms: C_16  and  C_18 
REMARK   13  A    between atoms: C_18  and  O_36 
REMARK   14  A    between atoms: C_19  and  C_20 
REMARK   15  A    between atoms: C_19  and  N_35 
REMARK   16  A    between atoms: C_33  and  C_34 
REMARK       I    between atoms: C_34  and  N_35 
REMARK   17  A    between atoms: O_36  and  P_37 
ROOT
HETATM    1  O           1     -21.833  -7.856  -5.240  0.00  0.00    -0.271 OA
HETATM    2  H           1     -20.491  -5.799  -3.288  0.00  0.00     0.163 HD
HETATM    3  C           1     -21.238  -6.861  -4.900  0.00  0.00     0.249 C 
HETATM    4  N           1     -20.990  -6.633  -3.574  0.00  0.00    -0.345 N 
ENDROOT
BRANCH   4   5
HETATM    5  C           1     -21.440  -7.584  -2.576  0.00  0.00     0.187 C 
BRANCH   5   6
HETATM    6  C           1     -20.236  -8.292  -1.970  0.00  0.00     0.066 C 
BRANCH   6   7
HETATM    7  C           1     -20.409  -9.798  -2.107  0.00  0.00     0.273 C 
BRANCH   7   8
HETATM    8  N           1     -20.437 -10.152  -3.501  0.00  0.00     0.100 N 
HETATM    9  H           1     -21.022  -9.489  -4.009  0.00  0.00     0.317 HD
BRANCH   8  10
HETATM   10  C           1     -19.090 -10.083  -3.998  0.00  0.00     0.344 C 
BRANCH  10  11
HETATM   11  C           1     -19.115  -9.967  -5.502  0.00  0.00     0.209 C 
HETATM   12  O           1     -18.397  -9.121  -6.076  0.00  0.00    -0.646 OA
HETATM   13  O           1     -19.854 -10.719  -6.174  0.00  0.00    -0.646 OA
ENDBRANCH  10  11
BRANCH  10  14
HETATM   14  C           1     -18.336 -11.343  -3.597  0.00  0.00     0.228 C 
BRANCH  14  15
HETATM   15  O           1     -17.026 -11.008  -3.228  0.00  0.00    -0.287 OA
BRANCH  15  16
HETATM   16  P           1     -15.882 -11.300  -4.331  0.00  0.00     0.406 P 
HETATM   17  O           1     -14.664 -11.803  -3.656  0.00  0.00    -0.624 OA
HETATM   18  O           1     -16.370 -12.316  -5.290  0.00  0.00    -0.624 OA
BRANCH  16  19
HETATM   19  O           1     -15.536  -9.935  -5.122  0.00  0.00    -0.300 OA
HETATM   20  H           1     -14.599  -9.859  -5.077  0.00  0.00     0.223 HD
ENDBRANCH  16  19
ENDBRANCH  15  16
ENDBRANCH  14  15
ENDBRANCH  10  14
ENDBRANCH   8  10
ENDBRANCH   7   8
ENDBRANCH   6   7
ENDBRANCH   5   6
BRANCH   5  21
HETATM   21  C           1     -22.196  -6.855  -1.492  0.00  0.00     0.196 C 
HETATM   22  O           1     -22.605  -7.478  -0.488  0.00  0.00    -0.646 OA
HETATM   23  O           1     -22.412  -5.629  -1.599  0.00  0.00    -0.646 OA
ENDBRANCH   5  21
ENDBRANCH   4   5
BRANCH   3  24
HETATM   24  C           1     -20.768  -5.870  -5.937  0.00  0.00     0.274 C 
BRANCH  24  25
HETATM   25  N           1     -19.996  -6.590  -7.002  0.00  0.00    -0.067 N 
HETATM   26  H           1     -19.154  -7.041  -6.578  0.00  0.00     0.275 HD
HETATM   27  H           1     -20.602  -7.323  -7.435  0.00  0.00     0.275 HD
HETATM   28  H           1     -19.695  -5.909  -7.735  0.00  0.00     0.257 HD
ENDBRANCH  24  25
BRANCH  24  29
HETATM   29  C           1     -21.974  -5.182  -6.563  0.00  0.00     0.044 C 
BRANCH  29  30
HETATM   30  C           1     -21.512  -3.962  -7.350  0.00  0.00     0.023 C 
BRANCH  30  31
HETATM   31  C           1     -22.100  -4.010  -8.754  0.00  0.00     0.156 C 
BRANCH  31  32
HETATM   32  N           1     -23.516  -3.621  -8.707  0.00  0.00    -0.227 N 
HETATM   33  C           1     -24.276  -3.878  -9.686  0.00  0.00     0.665 C 
HETATM   34  N           1     -25.497  -3.543  -9.646  0.00  0.00    -0.235 N 
HETATM   35  N           1     -23.805  -4.487 -10.733  0.00  0.00    -0.235 N 
HETATM   36  H           1     -26.127  -3.756 -10.458  0.00  0.00     0.174 HD
HETATM   37  H           1     -25.878  -3.051  -8.800  0.00  0.00     0.174 HD
HETATM   38  H           1     -24.431  -4.700 -11.542  0.00  0.00     0.174 HD
HETATM   39  H           1     -22.797  -4.764 -10.766  0.00  0.00     0.174 HD
HETATM   40  H           1     -23.898  -3.129  -7.861  0.00  0.00     0.177 HD
ENDBRANCH  31  32
ENDBRANCH  30  31
ENDBRANCH  29  30
ENDBRANCH  24  29
ENDBRANCH   3  24
TORSDOF 17
ENDMDL
MODEL 3
REMARK VINA RESULT:      -6.5      1.837      2.378
REMARK  17 active torsions:
REMARK  status: ('A' for Active; 'I' for Inactive)
REMARK       I    between atoms: C_2  and  N_3 
REMARK       I    between atoms: C_2  and  N_4 
REMARK    1  A    between atoms: N_5  and  C_33 
REMARK    2  A    between atoms: O_6  and  P_37 
REMARK    3  A    between atoms: N_8  and  C_16 
REMARK    4  A    between atoms: N_8  and  C_9 
REMARK    5  A    between atoms: C_9  and  C_10 
REMARK    6  A    between atoms: C_10  and  C_19 
REMARK    7  A    between atoms: C_11  and  C_16 
REMARK    8  A    between atoms: C_12  and  C_33 
REMARK    9  A    between atoms: C_12  and  C_13 
REMARK   10  A    between atoms: C_13  and  C_14 
REMARK   11  A    between atoms: C_14  and  N_15 
REMARK   12  A    between atoms: C_16  and  C_18 
REMARK   13  A    between atoms: C_18  and  O_36 
REMARK   14  A    between atoms: C_19  and  C_20 
REMARK   15  A    between atoms: C_19  and  N_35 
REMARK   16  A    between atoms: C_33  and  C_34 
REMARK       I    between atoms: C_34  and  N_35 
REMARK   17  A    between atoms: O_36  and  P_37 
ROOT
HETATM    1  O           1     -35.405  -2.366 -16.944  0.00  0.00    -0.271 OA
HETATM    2  H           1     -34.645  -2.013 -13.921  0.00  0.00     0.163 HD
HETATM    3  C           1     -34.860  -2.605 -15.892  0.00  0.00     0.249 C 
HETATM    4  N           1     -35.101  -1.814 -14.802  0.00  0.00    -0.345 N 
ENDROOT
BRANCH   4   5
HETATM    5  C           1     -36.011  -0.689 -14.908  0.00  0.00     0.187 C 
BRANCH   5   6
HETATM    6  C           1     -36.644  -0.420 -13.549  0.00  0.00     0.066 C 
BRANCH   6   7
HETATM    7  C           1     -35.688   0.406 -12.699  0.00  0.00     0.273 C 
BRANCH   7   8
HETATM    8  N           1     -35.116  -0.427 -11.675  0.00  0.00     0.100 N 
HETATM    9  H           1     -34.714   0.161 -10.945  0.00  0.00     0.317 HD
BRANCH   8  10
HETATM   10  C           1     -36.174  -1.226 -11.119  0.00  0.00     0.344 C 
BRANCH  10  11
HETATM   11  C           1     -36.654  -0.601  -9.832  0.00  0.00     0.209 C 
HETATM   12  O           1     -35.838  -0.339  -8.923  0.00  0.00    -0.646 OA
HETATM   13  O           1     -37.867  -0.344  -9.677  0.00  0.00    -0.646 OA
ENDBRANCH  10  11
BRANCH  10  14
HETATM   14  C           1     -35.654  -2.630 -10.839  0.00  0.00     0.228 C 
BRANCH  14  15
HETATM   15  O           1     -35.406  -3.288 -12.052  0.00  0.00    -0.287 OA
BRANCH  15  16
HETATM   16  P           1     -34.578  -4.671 -11.952  0.00  0.00     0.406 P 
HETATM   17  O           1     -33.139  -4.401 -12.173  0.00  0.00    -0.624 OA
HETATM   18  O           1     -34.767  -5.263 -10.609  0.00  0.00    -0.624 OA
BRANCH  16  19
HETATM   19  O           1     -35.113  -5.701 -13.075  0.00  0.00    -0.300 OA
HETATM   20  H           1     -34.502  -6.417 -13.059  0.00  0.00     0.223 HD
ENDBRANCH  16  19
ENDBRANCH  15  16
ENDBRANCH  14  15
ENDBRANCH  10  14
ENDBRANCH   8  10
ENDBRANCH   7   8
ENDBRANCH   6   7
ENDBRANCH   5   6
BRANCH   5  21
HETATM   21  C           1     -35.249   0.532 -15.361  0.00  0.00     0.196 C 
HETATM   22  O           1     -34.020   0.617 -15.149  0.00  0.00    -0.646 OA
HETATM   23  O           1     -35.848   1.458 -15.949  0.00  0.00    -0.646 OA
ENDBRANCH   5  21
ENDBRANCH   4   5
BRANCH   3  24
HETATM   24  C           1     -33.913  -3.774 -15.781  0.00  0.00     0.274 C 
BRANCH  24  25
HETATM   25  N           1     -34.695  -5.054 -15.799  0.00  0.00    -0.067 N 
HETATM   26  H           1     -35.310  -5.075 -16.644  0.00  0.00     0.275 HD
HETATM   27  H           1     -34.035  -5.864 -15.827  0.00  0.00     0.275 HD
HETATM   28  H           1     -35.285  -5.114 -14.938  0.00  0.00     0.257 HD
ENDBRANCH  24  25
BRANCH  24  29
HETATM   29  C           1     -32.944  -3.757 -16.957  0.00  0.00     0.044 C 
BRANCH  29  30
HETATM   30  C           1     -31.901  -4.851 -16.773  0.00  0.00     0.023 C 
BRANCH  30  31
HETATM   31  C           1     -30.689  -4.549 -17.645  0.00  0.00     0.156 C 
BRANCH  31  32
HETATM   32  N           1     -30.467  -3.098 -17.692  0.00  0.00    -0.227 N 
HETATM   33  C           1     -29.350  -2.616 -17.342  0.00  0.00     0.665 C 
HETATM   34  N           1     -29.159  -1.365 -17.383  0.00  0.00    -0.235 N 
HETATM   35  N           1     -28.398  -3.406 -16.943  0.00  0.00    -0.235 N 
HETATM   36  H           1     -28.231  -0.967 -17.092  0.00  0.00     0.174 HD
HETATM   37  H           1     -29.927  -0.727 -17.705  0.00  0.00     0.174 HD
HETATM   38  H           1     -27.475  -3.010 -16.654  0.00  0.00     0.174 HD
HETATM   39  H           1     -28.556  -4.439 -16.910  0.00  0.00     0.174 HD
HETATM   40  H           1     -31.236  -2.458 -18.015  0.00  0.00     0.177 HD
ENDBRANCH  31  32
ENDBRANCH  30  31
ENDBRANCH  29  30
ENDBRANCH  24  29
ENDBRANCH   3  24
TORSDOF 17
ENDMDL
MODEL 4
REMARK VINA RESULT:      -6.4     15.450     17.947
REMARK  17 active torsions:
REMARK  status: ('A' for Active; 'I' for Inactive)
REMARK       I    between atoms: C_2  and  N_3 
REMARK       I    between atoms: C_2  and  N_4 
REMARK    1  A    between atoms: N_5  and  C_33 
REMARK    2  A    between atoms: O_6  and  P_37 
REMARK    3  A    between atoms: N_8  and  C_16 
REMARK    4  A    between atoms: N_8  and  C_9 
REMARK    5  A    between atoms: C_9  and  C_10 
REMARK    6  A    between atoms: C_10  and  C_19 
REMARK    7  A    between atoms: C_11  and  C_16 
REMARK    8  A    between atoms: C_12  and  C_33 
REMARK    9  A    between atoms: C_12  and  C_13 
REMARK   10  A    between atoms: C_13  and  C_14 
REMARK   11  A    between atoms: C_14  and  N_15 
REMARK   12  A    between atoms: C_16  and  C_18 
REMARK   13  A    between atoms: C_18  and  O_36 
REMARK   14  A    between atoms: C_19  and  C_20 
REMARK   15  A    between atoms: C_19  and  N_35 
REMARK   16  A    between atoms: C_33  and  C_34 
REMARK       I    between atoms: C_34  and  N_35 
REMARK   17  A    between atoms: O_36  and  P_37 
ROOT
HETATM    1  O           1     -21.856  -7.874  -5.134  0.00  0.00    -0.271 OA
HETATM    2  H           1     -20.219  -5.979  -3.245  0.00  0.00     0.163 HD
HETATM    3  C           1     -21.160  -6.938  -4.819  0.00  0.00     0.249 C 
HETATM    4  N           1     -20.802  -6.763  -3.510  0.00  0.00    -0.345 N 
ENDROOT
BRANCH   4   5
HETATM    5  C           1     -21.255  -7.702  -2.502  0.00  0.00     0.187 C 
BRANCH   5   6
HETATM    6  C           1     -20.049  -8.317  -1.803  0.00  0.00     0.066 C 
BRANCH   6   7
HETATM    7  C           1     -20.033  -9.820  -2.046  0.00  0.00     0.273 C 
BRANCH   7   8
HETATM    8  N           1     -18.706 -10.230  -2.421  0.00  0.00     0.100 N 
HETATM    9  H           1     -18.366 -10.926  -1.757  0.00  0.00     0.317 HD
BRANCH   8  10
HETATM   10  C           1     -18.782 -10.815  -3.732  0.00  0.00     0.344 C 
BRANCH  10  11
HETATM   11  C           1     -18.152  -9.880  -4.735  0.00  0.00     0.209 C 
HETATM   12  O           1     -18.861  -9.322  -5.600  0.00  0.00    -0.646 OA
HETATM   13  O           1     -16.922  -9.665  -4.702  0.00  0.00    -0.646 OA
ENDBRANCH  10  11
BRANCH  10  14
HETATM   14  C           1     -20.241 -11.048  -4.099  0.00  0.00     0.228 C 
BRANCH  14  15
HETATM   15  O           1     -20.343 -12.181  -4.917  0.00  0.00    -0.287 OA
BRANCH  15  16
HETATM   16  P           1     -21.216 -12.007  -6.265  0.00  0.00     0.406 P 
HETATM   17  O           1     -20.512 -12.654  -7.396  0.00  0.00    -0.624 OA
HETATM   18  O           1     -22.539 -12.641  -6.081  0.00  0.00    -0.624 OA
BRANCH  16  19
HETATM   19  O           1     -21.411 -10.435  -6.580  0.00  0.00    -0.300 OA
HETATM   20  H           1     -20.627 -10.178  -7.035  0.00  0.00     0.223 HD
ENDBRANCH  16  19
ENDBRANCH  15  16
ENDBRANCH  14  15
ENDBRANCH  10  14
ENDBRANCH   8  10
ENDBRANCH   7   8
ENDBRANCH   6   7
ENDBRANCH   5   6
BRANCH   5  21
HETATM   21  C           1     -22.109  -6.978  -1.490  0.00  0.00     0.196 C 
HETATM   22  O           1     -22.621  -5.874  -1.779  0.00  0.00    -0.646 OA
HETATM   23  O           1     -22.306  -7.483  -0.363  0.00  0.00    -0.646 OA
ENDBRANCH   5  21
ENDBRANCH   4   5
BRANCH   3  24
HETATM   24  C           1     -20.689  -5.960  -5.867  0.00  0.00     0.274 C 
BRANCH  24  25
HETATM   25  N           1     -19.974  -6.703  -6.957  0.00  0.00    -0.067 N 
HETATM   26  H           1     -20.662  -7.000  -7.685  0.00  0.00     0.275 HD
HETATM   27  H           1     -19.256  -6.078  -7.389  0.00  0.00     0.275 HD
HETATM   28  H           1     -19.506  -7.546  -6.554  0.00  0.00     0.257 HD
ENDBRANCH  24  25
BRANCH  24  29
HETATM   29  C           1     -21.888  -5.229  -6.456  0.00  0.00     0.044 C 
BRANCH  29  30
HETATM   30  C           1     -21.709  -5.088  -7.962  0.00  0.00     0.023 C 
BRANCH  30  31
HETATM   31  C           1     -22.238  -3.732  -8.411  0.00  0.00     0.156 C 
BRANCH  31  32
HETATM   32  N           1     -23.707  -3.763  -8.443  0.00  0.00    -0.227 N 
HETATM   33  C           1     -24.317  -3.745  -9.551  0.00  0.00     0.665 C 
HETATM   34  N           1     -25.583  -3.772  -9.579  0.00  0.00    -0.235 N 
HETATM   35  N           1     -23.645  -3.698 -10.663  0.00  0.00    -0.235 N 
HETATM   36  H           1     -26.089  -3.756 -10.499  0.00  0.00     0.174 HD
HETATM   37  H           1     -26.126  -3.810  -8.682  0.00  0.00     0.174 HD
HETATM   38  H           1     -24.148  -3.682 -11.579  0.00  0.00     0.174 HD
HETATM   39  H           1     -22.600  -3.675 -10.640  0.00  0.00     0.174 HD
HETATM   40  H           1     -24.252  -3.801  -7.545  0.00  0.00     0.177 HD
ENDBRANCH  31  32
ENDBRANCH  30  31
ENDBRANCH  29  30
ENDBRANCH  24  29
ENDBRANCH   3  24
TORSDOF 17
ENDMDL
MODEL 5
REMARK VINA RESULT:      -6.4     15.480     17.835
REMARK  17 active torsions:
REMARK  status: ('A' for Active; 'I' for Inactive)
REMARK       I    between atoms: C_2  and  N_3 
REMARK       I    between atoms: C_2  and  N_4 
REMARK    1  A    between atoms: N_5  and  C_33 
REMARK    2  A    between atoms: O_6  and  P_37 
REMARK    3  A    between atoms: N_8  and  C_16 
REMARK    4  A    between atoms: N_8  and  C_9 
REMARK    5  A    between atoms: C_9  and  C_10 
REMARK    6  A    between atoms: C_10  and  C_19 
REMARK    7  A    between atoms: C_11  and  C_16 
REMARK    8  A    between atoms: C_12  and  C_33 
REMARK    9  A    between atoms: C_12  and  C_13 
REMARK   10  A    between atoms: C_13  and  C_14 
REMARK   11  A    between atoms: C_14  and  N_15 
REMARK   12  A    between atoms: C_16  and  C_18 
REMARK   13  A    between atoms: C_18  and  O_36 
REMARK   14  A    between atoms: C_19  and  C_20 
REMARK   15  A    between atoms: C_19  and  N_35 
REMARK   16  A    between atoms: C_33  and  C_34 
REMARK       I    between atoms: C_34  and  N_35 
REMARK   17  A    between atoms: O_36  and  P_37 
ROOT
HETATM    1  O           1     -19.299  -8.919  -4.678  0.00  0.00    -0.271 OA
HETATM    2  H           1     -22.372  -8.973  -4.052  0.00  0.00     0.163 HD
HETATM    3  C           1     -20.404  -9.387  -4.542  0.00  0.00     0.249 C 
HETATM    4  N           1     -21.446  -8.582  -4.166  0.00  0.00    -0.345 N 
ENDROOT
BRANCH   4   5
HETATM    5  C           1     -21.223  -7.168  -3.933  0.00  0.00     0.187 C 
BRANCH   5   6
HETATM    6  C           1     -22.057  -6.355  -4.913  0.00  0.00     0.066 C 
BRANCH   6   7
HETATM    7  C           1     -21.309  -6.228  -6.234  0.00  0.00     0.273 C 
BRANCH   7   8
HETATM    8  N           1     -21.398  -4.873  -6.707  0.00  0.00     0.100 N 
HETATM    9  H           1     -20.535  -4.378  -6.484  0.00  0.00     0.317 HD
BRANCH   8  10
HETATM   10  C           1     -21.572  -4.917  -8.133  0.00  0.00     0.344 C 
BRANCH  10  11
HETATM   11  C           1     -20.316  -4.423  -8.808  0.00  0.00     0.209 C 
HETATM   12  O           1     -19.406  -3.900  -8.129  0.00  0.00    -0.646 OA
HETATM   13  O           1     -20.185  -4.538 -10.046  0.00  0.00    -0.646 OA
ENDBRANCH  10  11
BRANCH  10  14
HETATM   14  C           1     -22.744  -4.030  -8.529  0.00  0.00     0.228 C 
BRANCH  14  15
HETATM   15  O           1     -23.535  -4.694  -9.476  0.00  0.00    -0.287 OA
BRANCH  15  16
HETATM   16  P           1     -23.731  -3.939 -10.891  0.00  0.00     0.406 P 
HETATM   17  O           1     -23.737  -4.937 -11.985  0.00  0.00    -0.624 OA
HETATM   18  O           1     -25.016  -3.207 -10.885  0.00  0.00    -0.624 OA
BRANCH  16  19
HETATM   19  O           1     -22.518  -2.898 -11.117  0.00  0.00    -0.300 OA
HETATM   20  H           1     -22.329  -2.941 -12.039  0.00  0.00     0.223 HD
ENDBRANCH  16  19
ENDBRANCH  15  16
ENDBRANCH  14  15
ENDBRANCH  10  14
ENDBRANCH   8  10
ENDBRANCH   7   8
ENDBRANCH   6   7
ENDBRANCH   5   6
BRANCH   5  21
HETATM   21  C           1     -21.626  -6.823  -2.520  0.00  0.00     0.196 C 
HETATM   22  O           1     -21.127  -7.446  -1.557  0.00  0.00    -0.646 OA
HETATM   23  O           1     -22.458  -5.914  -2.313  0.00  0.00    -0.646 OA
ENDBRANCH   5  21
ENDBRANCH   4   5
BRANCH   3  24
HETATM   24  C           1     -20.637 -10.858  -4.784  0.00  0.00     0.274 C 
BRANCH  24  25
HETATM   25  N           1     -20.536 -11.144  -6.253  0.00  0.00    -0.067 N 
HETATM   26  H           1     -20.215 -10.285  -6.754  0.00  0.00     0.275 HD
HETATM   27  H           1     -19.849 -11.916  -6.409  0.00  0.00     0.275 HD
HETATM   28  H           1     -21.473 -11.430  -6.617  0.00  0.00     0.257 HD
ENDBRANCH  24  25
BRANCH  24  29
HETATM   29  C           1     -19.586 -11.668  -4.036  0.00  0.00     0.044 C 
BRANCH  29  30
HETATM   30  C           1     -20.189 -12.222  -2.751  0.00  0.00     0.023 C 
BRANCH  30  31
HETATM   31  C           1     -19.565 -11.519  -1.553  0.00  0.00     0.156 C 
BRANCH  31  32
HETATM   32  N           1     -20.451 -10.438  -1.101  0.00  0.00    -0.227 N 
HETATM   33  C           1     -21.034 -10.524   0.019  0.00  0.00     0.665 C 
HETATM   34  N           1     -21.798  -9.593   0.410  0.00  0.00    -0.235 N 
HETATM   35  N           1     -20.848 -11.569   0.771  0.00  0.00    -0.235 N 
HETATM   36  H           1     -22.282  -9.665   1.339  0.00  0.00     0.174 HD
HETATM   37  H           1     -21.949  -8.749  -0.197  0.00  0.00     0.174 HD
HETATM   38  H           1     -21.329 -11.641   1.696  0.00  0.00     0.174 HD
HETATM   39  H           1     -20.217 -12.338   0.449  0.00  0.00     0.174 HD
HETATM   40  H           1     -20.602  -9.593  -1.707  0.00  0.00     0.177 HD
ENDBRANCH  31  32
ENDBRANCH  30  31
ENDBRANCH  29  30
ENDBRANCH  24  29
ENDBRANCH   3  24
TORSDOF 17
ENDMDL
MODEL 6
REMARK VINA RESULT:      -6.3     15.222     17.537
REMARK  17 active torsions:
REMARK  status: ('A' for Active; 'I' for Inactive)
REMARK       I    between atoms: C_2  and  N_3 
REMARK       I    between atoms: C_2  and  N_4 
REMARK    1  A    between atoms: N_5  and  C_33 
REMARK    2  A    between atoms: O_6  and  P_37 
REMARK    3  A    between atoms: N_8  and  C_16 
REMARK    4  A    between atoms: N_8  and  C_9 
REMARK    5  A    between atoms: C_9  and  C_10 
REMARK    6  A    between atoms: C_10  and  C_19 
REMARK    7  A    between atoms: C_11  and  C_16 
REMARK    8  A    between atoms: C_12  and  C_33 
REMARK    9  A    between atoms: C_12  and  C_13 
REMARK   10  A    between atoms: C_13  and  C_14 
REMARK   11  A    between atoms: C_14  and  N_15 
REMARK   12  A    between atoms: C_16  and  C_18 
REMARK   13  A    between atoms: C_18  and  O_36 
REMARK   14  A    between atoms: C_19  and  C_20 
REMARK   15  A    between atoms: C_19  and  N_35 
REMARK   16  A    between atoms: C_33  and  C_34 
REMARK       I    between atoms: C_34  and  N_35 
REMARK   17  A    between atoms: O_36  and  P_37 
ROOT
HETATM    1  O           1     -21.716  -7.794  -5.442  0.00  0.00    -0.271 OA
HETATM    2  H           1     -20.717  -5.619  -3.414  0.00  0.00     0.163 HD
HETATM    3  C           1     -21.237  -6.750  -5.068  0.00  0.00     0.249 C 
HETATM    4  N           1     -21.118  -6.494  -3.729  0.00  0.00    -0.345 N 
ENDROOT
BRANCH   4   5
HETATM    5  C           1     -21.565  -7.475  -2.759  0.00  0.00     0.187 C 
BRANCH   5   6
HETATM    6  C           1     -20.378  -8.314  -2.303  0.00  0.00     0.066 C 
BRANCH   6   7
HETATM    7  C           1     -20.590  -9.763  -2.720  0.00  0.00     0.273 C 
BRANCH   7   8
HETATM    8  N           1     -21.892  -9.906  -3.312  0.00  0.00     0.100 N 
HETATM    9  H           1     -21.882  -9.516  -4.254  0.00  0.00     0.317 HD
BRANCH   8  10
HETATM   10  C           1     -22.191 -11.311  -3.379  0.00  0.00     0.344 C 
BRANCH  10  11
HETATM   11  C           1     -22.755 -11.767  -2.056  0.00  0.00     0.209 C 
HETATM   12  O           1     -22.203 -12.697  -1.428  0.00  0.00    -0.646 OA
HETATM   13  O           1     -23.774 -11.216  -1.587  0.00  0.00    -0.646 OA
ENDBRANCH  10  11
BRANCH  10  14
HETATM   14  C           1     -20.917 -12.087  -3.684  0.00  0.00     0.228 C 
BRANCH  14  15
HETATM   15  O           1     -21.071 -12.783  -4.890  0.00  0.00    -0.287 OA
BRANCH  15  16
HETATM   16  P           1     -20.396 -12.103  -6.191  0.00  0.00     0.406 P 
HETATM   17  O           1     -18.967 -12.484  -6.261  0.00  0.00    -0.624 OA
HETATM   18  O           1     -21.090 -12.573  -7.410  0.00  0.00    -0.624 OA
BRANCH  16  19
HETATM   19  O           1     -20.522 -10.497  -6.086  0.00  0.00    -0.300 OA
HETATM   20  H           1     -20.835 -10.334  -5.212  0.00  0.00     0.223 HD
ENDBRANCH  16  19
ENDBRANCH  15  16
ENDBRANCH  14  15
ENDBRANCH  10  14
ENDBRANCH   8  10
ENDBRANCH   7   8
ENDBRANCH   6   7
ENDBRANCH   5   6
BRANCH   5  21
HETATM   21  C           1     -22.170  -6.768  -1.571  0.00  0.00     0.196 C 
HETATM   22  O           1     -22.330  -5.529  -1.597  0.00  0.00    -0.646 OA
HETATM   23  O           1     -22.510  -7.422  -0.562  0.00  0.00    -0.646 OA
ENDBRANCH   5  21
ENDBRANCH   4   5
BRANCH   3  24
HETATM   24  C           1     -20.772  -5.728  -6.075  0.00  0.00     0.274 C 
BRANCH  24  25
HETATM   25  N           1     -19.987  -6.412  -7.155  0.00  0.00    -0.067 N 
HETATM   26  H           1     -19.500  -5.696  -7.740  0.00  0.00     0.275 HD
HETATM   27  H           1     -19.279  -7.046  -6.720  0.00  0.00     0.275 HD
HETATM   28  H           1     -20.634  -6.971  -7.755  0.00  0.00     0.257 HD
ENDBRANCH  24  25
BRANCH  24  29
HETATM   29  C           1     -21.981  -5.035  -6.690  0.00  0.00     0.044 C 
BRANCH  29  30
HETATM   30  C           1     -21.525  -3.794  -7.449  0.00  0.00     0.023 C 
BRANCH  30  31
HETATM   31  C           1     -22.114  -3.814  -8.854  0.00  0.00     0.156 C 
BRANCH  31  32
HETATM   32  N           1     -23.547  -3.493  -8.790  0.00  0.00    -0.227 N 
HETATM   33  C           1     -24.315  -3.838  -9.735  0.00  0.00     0.665 C 
HETATM   34  N           1     -25.550  -3.562  -9.680  0.00  0.00    -0.235 N 
HETATM   35  N           1     -23.838  -4.478 -10.761  0.00  0.00    -0.235 N 
HETATM   36  H           1     -26.187  -3.849 -10.464  0.00  0.00     0.174 HD
HETATM   37  H           1     -25.936  -3.046  -8.852  0.00  0.00     0.174 HD
HETATM   38  H           1     -24.472  -4.763 -11.542  0.00  0.00     0.174 HD
HETATM   39  H           1     -22.818  -4.705 -10.806  0.00  0.00     0.174 HD
HETATM   40  H           1     -23.934  -2.977  -7.961  0.00  0.00     0.177 HD
ENDBRANCH  31  32
ENDBRANCH  30  31
ENDBRANCH  29  30
ENDBRANCH  24  29
ENDBRANCH   3  24
TORSDOF 17
ENDMDL
MODEL 7
REMARK VINA RESULT:      -6.3     15.246     17.733
REMARK  17 active torsions:
REMARK  status: ('A' for Active; 'I' for Inactive)
REMARK       I    between atoms: C_2  and  N_3 
REMARK       I    between atoms: C_2  and  N_4 
REMARK    1  A    between atoms: N_5  and  C_33 
REMARK    2  A    between atoms: O_6  and  P_37 
REMARK    3  A    between atoms: N_8  and  C_16 
REMARK    4  A    between atoms: N_8  and  C_9 
REMARK    5  A    between atoms: C_9  and  C_10 
REMARK    6  A    between atoms: C_10  and  C_19 
REMARK    7  A    between atoms: C_11  and  C_16 
REMARK    8  A    between atoms: C_12  and  C_33 
REMARK    9  A    between atoms: C_12  and  C_13 
REMARK   10  A    between atoms: C_13  and  C_14 
REMARK   11  A    between atoms: C_14  and  N_15 
REMARK   12  A    between atoms: C_16  and  C_18 
REMARK   13  A    between atoms: C_18  and  O_36 
REMARK   14  A    between atoms: C_19  and  C_20 
REMARK   15  A    between atoms: C_19  and  N_35 
REMARK   16  A    between atoms: C_33  and  C_34 
REMARK       I    between atoms: C_34  and  N_35 
REMARK   17  A    between atoms: O_36  and  P_37 
ROOT
HETATM    1  O           1     -22.957  -6.357  -4.920  0.00  0.00    -0.271 OA
HETATM    2  H           1     -20.061  -6.779  -3.790  0.00  0.00     0.163 HD
HETATM    3  C           1     -21.752  -6.273  -4.870  0.00  0.00     0.249 C 
HETATM    4  N           1     -21.069  -6.849  -3.833  0.00  0.00    -0.345 N 
ENDROOT
BRANCH   4   5
HETATM    5  C           1     -21.791  -7.561  -2.796  0.00  0.00     0.187 C 
BRANCH   5   6
HETATM    6  C           1     -20.895  -8.643  -2.207  0.00  0.00     0.066 C 
BRANCH   6   7
HETATM    7  C           1     -19.560  -8.652  -2.939  0.00  0.00     0.273 C 
BRANCH   7   8
HETATM    8  N           1     -19.314  -9.965  -3.472  0.00  0.00     0.100 N 
HETATM    9  H           1     -20.046 -10.601  -3.159  0.00  0.00     0.317 HD
BRANCH   8  10
HETATM   10  C           1     -19.344  -9.868  -4.906  0.00  0.00     0.344 C 
BRANCH  10  11
HETATM   11  C           1     -20.747 -10.129  -5.398  0.00  0.00     0.209 C 
HETATM   12  O           1     -21.345 -11.172  -5.057  0.00  0.00    -0.646 OA
HETATM   13  O           1     -21.311  -9.301  -6.146  0.00  0.00    -0.646 OA
ENDBRANCH  10  11
BRANCH  10  14
HETATM   14  C           1     -18.396 -10.899  -5.504  0.00  0.00     0.228 C 
BRANCH  14  15
HETATM   15  O           1     -18.655 -11.033  -6.875  0.00  0.00    -0.287 OA
BRANCH  15  16
HETATM   16  P           1     -18.488 -12.520  -7.485  0.00  0.00     0.406 P 
HETATM   17  O           1     -18.691 -12.476  -8.951  0.00  0.00    -0.624 OA
HETATM   18  O           1     -17.129 -13.024  -7.190  0.00  0.00    -0.624 OA
BRANCH  16  19
HETATM   19  O           1     -19.584 -13.501  -6.818  0.00  0.00    -0.300 OA
HETATM   20  H           1     -19.617 -14.251  -7.387  0.00  0.00     0.223 HD
ENDBRANCH  16  19
ENDBRANCH  15  16
ENDBRANCH  14  15
ENDBRANCH  10  14
ENDBRANCH   8  10
ENDBRANCH   7   8
ENDBRANCH   6   7
ENDBRANCH   5   6
BRANCH   5  21
HETATM   21  C           1     -22.193  -6.594  -1.710  0.00  0.00     0.196 C 
HETATM   22  O           1     -22.766  -7.012  -0.680  0.00  0.00    -0.646 OA
HETATM   23  O           1     -21.953  -5.374  -1.840  0.00  0.00    -0.646 OA
ENDBRANCH   5  21
ENDBRANCH   4   5
BRANCH   3  24
HETATM   24  C           1     -21.001  -5.532  -5.948  0.00  0.00     0.274 C 
BRANCH  24  25
HETATM   25  N           1     -20.353  -6.519  -6.873  0.00  0.00    -0.067 N 
HETATM   26  H           1     -19.368  -6.688  -6.567  0.00  0.00     0.275 HD
HETATM   27  H           1     -20.885  -7.418  -6.849  0.00  0.00     0.275 HD
HETATM   28  H           1     -20.354  -6.138  -7.846  0.00  0.00     0.257 HD
ENDBRANCH  24  25
BRANCH  24  29
HETATM   29  C           1     -21.972  -4.661  -6.736  0.00  0.00     0.044 C 
BRANCH  29  30
HETATM   30  C           1     -21.218  -3.931  -7.841  0.00  0.00     0.023 C 
BRANCH  30  31
HETATM   31  C           1     -21.992  -4.050  -9.148  0.00  0.00     0.156 C 
BRANCH  31  32
HETATM   32  N           1     -23.382  -3.623  -8.935  0.00  0.00    -0.227 N 
HETATM   33  C           1     -24.260  -3.864  -9.815  0.00  0.00     0.665 C 
HETATM   34  N           1     -25.458  -3.496  -9.632  0.00  0.00    -0.235 N 
HETATM   35  N           1     -23.933  -4.490 -10.906  0.00  0.00    -0.235 N 
HETATM   36  H           1     -26.186  -3.696 -10.362  0.00  0.00     0.174 HD
HETATM   37  H           1     -25.723  -2.990  -8.751  0.00  0.00     0.174 HD
HETATM   38  H           1     -24.657  -4.689 -11.633  0.00  0.00     0.174 HD
HETATM   39  H           1     -22.944  -4.794 -11.057  0.00  0.00     0.174 HD
HETATM   40  H           1     -23.648  -3.117  -8.054  0.00  0.00     0.177 HD
ENDBRANCH  31  32
ENDBRANCH  30  31
ENDBRANCH  29  30
ENDBRANCH  24  29
ENDBRANCH   3  24
TORSDOF 17
ENDMDL
MODEL 8
REMARK VINA RESULT:      -6.2     16.492     18.626
REMARK  17 active torsions:
REMARK  status: ('A' for Active; 'I' for Inactive)
REMARK       I    between atoms: C_2  and  N_3 
REMARK       I    between atoms: C_2  and  N_4 
REMARK    1  A    between atoms: N_5  and  C_33 
REMARK    2  A    between atoms: O_6  and  P_37 
REMARK    3  A    between atoms: N_8  and  C_16 
REMARK    4  A    between atoms: N_8  and  C_9 
REMARK    5  A    between atoms: C_9  and  C_10 
REMARK    6  A    between atoms: C_10  and  C_19 
REMARK    7  A    between atoms: C_11  and  C_16 
REMARK    8  A    between atoms: C_12  and  C_33 
REMARK    9  A    between atoms: C_12  and  C_13 
REMARK   10  A    between atoms: C_13  and  C_14 
REMARK   11  A    between atoms: C_14  and  N_15 
REMARK   12  A    between atoms: C_16  and  C_18 
REMARK   13  A    between atoms: C_18  and  O_36 
REMARK   14  A    between atoms: C_19  and  C_20 
REMARK   15  A    between atoms: C_19  and  N_35 
REMARK   16  A    between atoms: C_33  and  C_34 
REMARK       I    between atoms: C_34  and  N_35 
REMARK   17  A    between atoms: O_36  and  P_37 
ROOT
HETATM    1  O           1     -21.610  -7.792  -5.485  0.00  0.00    -0.271 OA
HETATM    2  H           1     -20.625  -5.610  -3.458  0.00  0.00     0.163 HD
HETATM    3  C           1     -21.153  -6.738  -5.111  0.00  0.00     0.249 C 
HETATM    4  N           1     -21.008  -6.493  -3.772  0.00  0.00    -0.345 N 
ENDROOT
BRANCH   4   5
HETATM    5  C           1     -21.400  -7.498  -2.803  0.00  0.00     0.187 C 
BRANCH   5   6
HETATM    6  C           1     -20.161  -8.223  -2.295  0.00  0.00     0.066 C 
BRANCH   6   7
HETATM    7  C           1     -20.376  -9.727  -2.394  0.00  0.00     0.273 C 
BRANCH   7   8
HETATM    8  N           1     -20.794 -10.237  -1.116  0.00  0.00     0.100 N 
HETATM    9  H           1     -21.563  -9.670  -0.759  0.00  0.00     0.317 HD
BRANCH   8  10
HETATM   10  C           1     -21.244 -11.589  -1.310  0.00  0.00     0.344 C 
BRANCH  10  11
HETATM   11  C           1     -22.749 -11.635  -1.217  0.00  0.00     0.209 C 
HETATM   12  O           1     -23.365 -12.668  -1.558  0.00  0.00    -0.646 OA
HETATM   13  O           1     -23.381 -10.640  -0.799  0.00  0.00    -0.646 OA
ENDBRANCH  10  11
BRANCH  10  14
HETATM   14  C           1     -20.640 -12.483  -0.235  0.00  0.00     0.228 C 
BRANCH  14  15
HETATM   15  O           1     -19.574 -11.816   0.384  0.00  0.00    -0.287 OA
BRANCH  15  16
HETATM   16  P           1     -18.093 -12.298  -0.044  0.00  0.00     0.406 P 
HETATM   17  O           1     -18.097 -13.762  -0.269  0.00  0.00    -0.624 OA
HETATM   18  O           1     -17.691 -11.610  -1.290  0.00  0.00    -0.624 OA
BRANCH  16  19
HETATM   19  O           1     -17.048 -11.936   1.132  0.00  0.00    -0.300 OA
HETATM   20  H           1     -16.709 -11.087   0.904  0.00  0.00     0.223 HD
ENDBRANCH  16  19
ENDBRANCH  15  16
ENDBRANCH  14  15
ENDBRANCH  10  14
ENDBRANCH   8  10
ENDBRANCH   7   8
ENDBRANCH   6   7
ENDBRANCH   5   6
BRANCH   5  21
HETATM   21  C           1     -22.105  -6.833  -1.647  0.00  0.00     0.196 C 
HETATM   22  O           1     -22.423  -5.625  -1.719  0.00  0.00    -0.646 OA
HETATM   23  O           1     -22.372  -7.489  -0.617  0.00  0.00    -0.646 OA
ENDBRANCH   5  21
ENDBRANCH   4   5
BRANCH   3  24
HETATM   24  C           1     -20.745  -5.691  -6.118  0.00  0.00     0.274 C 
BRANCH  24  25
HETATM   25  N           1     -19.899  -6.325  -7.182  0.00  0.00    -0.067 N 
HETATM   26  H           1     -18.901  -6.339  -6.871  0.00  0.00     0.275 HD
HETATM   27  H           1     -20.226  -7.303  -7.348  0.00  0.00     0.275 HD
HETATM   28  H           1     -19.981  -5.774  -8.066  0.00  0.00     0.257 HD
ENDBRANCH  24  25
BRANCH  24  29
HETATM   29  C           1     -21.990  -5.086  -6.754  0.00  0.00     0.044 C 
BRANCH  29  30
HETATM   30  C           1     -21.617  -3.797  -7.477  0.00  0.00     0.023 C 
BRANCH  30  31
HETATM   31  C           1     -22.214  -3.810  -8.878  0.00  0.00     0.156 C 
BRANCH  31  32
HETATM   32  N           1     -23.644  -3.477  -8.806  0.00  0.00    -0.227 N 
HETATM   33  C           1     -24.422  -3.822  -9.742  0.00  0.00     0.665 C 
HETATM   34  N           1     -25.654  -3.535  -9.680  0.00  0.00    -0.235 N 
HETATM   35  N           1     -23.959  -4.472 -10.768  0.00  0.00    -0.235 N 
HETATM   36  H           1     -26.300  -3.821 -10.457  0.00  0.00     0.174 HD
HETATM   37  H           1     -26.029  -3.010  -8.852  0.00  0.00     0.174 HD
HETATM   38  H           1     -24.601  -4.758 -11.541  0.00  0.00     0.174 HD
HETATM   39  H           1     -22.941  -4.710 -10.819  0.00  0.00     0.174 HD
HETATM   40  H           1     -24.020  -2.952  -7.978  0.00  0.00     0.177 HD
ENDBRANCH  31  32
ENDBRANCH  30  31
ENDBRANCH  29  30
ENDBRANCH  24  29
ENDBRANCH   3  24
TORSDOF 17
ENDMDL
MODEL 9
REMARK VINA RESULT:      -6.1     15.366     17.821
REMARK  17 active torsions:
REMARK  status: ('A' for Active; 'I' for Inactive)
REMARK       I    between atoms: C_2  and  N_3 
REMARK       I    between atoms: C_2  and  N_4 
REMARK    1  A    between atoms: N_5  and  C_33 
REMARK    2  A    between atoms: O_6  and  P_37 
REMARK    3  A    between atoms: N_8  and  C_16 
REMARK    4  A    between atoms: N_8  and  C_9 
REMARK    5  A    between atoms: C_9  and  C_10 
REMARK    6  A    between atoms: C_10  and  C_19 
REMARK    7  A    between atoms: C_11  and  C_16 
REMARK    8  A    between atoms: C_12  and  C_33 
REMARK    9  A    between atoms: C_12  and  C_13 
REMARK   10  A    between atoms: C_13  and  C_14 
REMARK   11  A    between atoms: C_14  and  N_15 
REMARK   12  A    between atoms: C_16  and  C_18 
REMARK   13  A    between atoms: C_18  and  O_36 
REMARK   14  A    between atoms: C_19  and  C_20 
REMARK   15  A    between atoms: C_19  and  N_35 
REMARK   16  A    between atoms: C_33  and  C_34 
REMARK       I    between atoms: C_34  and  N_35 
REMARK   17  A    between atoms: O_36  and  P_37 
ROOT
HETATM    1  O           1     -21.862  -6.819  -4.223  0.00  0.00    -0.271 OA
HETATM    2  H           1     -19.982  -7.668  -6.586  0.00  0.00     0.163 HD
HETATM    3  C           1     -21.256  -6.715  -5.263  0.00  0.00     0.249 C 
HETATM    4  N           1     -20.490  -7.755  -5.715  0.00  0.00    -0.345 N 
ENDROOT
BRANCH   4   5
HETATM    5  C           1     -20.407  -8.983  -4.948  0.00  0.00     0.187 C 
BRANCH   5   6
HETATM    6  C           1     -21.298 -10.040  -5.585  0.00  0.00     0.066 C 
BRANCH   6   7
HETATM    7  C           1     -21.657 -11.095  -4.548  0.00  0.00     0.273 C 
BRANCH   7   8
HETATM    8  N           1     -22.291 -10.463  -3.422  0.00  0.00     0.100 N 
HETATM    9  H           1     -23.304 -10.525  -3.523  0.00  0.00     0.317 HD
BRANCH   8  10
HETATM   10  C           1     -21.884 -11.168  -2.237  0.00  0.00     0.344 C 
BRANCH  10  11
HETATM   11  C           1     -23.074 -11.877  -1.640  0.00  0.00     0.209 C 
HETATM   12  O           1     -23.025 -13.107  -1.422  0.00  0.00    -0.646 OA
HETATM   13  O           1     -24.110 -11.234  -1.363  0.00  0.00    -0.646 OA
ENDBRANCH  10  11
BRANCH  10  14
HETATM   14  C           1     -21.321 -10.178  -1.226  0.00  0.00     0.228 C 
BRANCH  14  15
HETATM   15  O           1     -21.798  -8.892  -1.515  0.00  0.00    -0.287 OA
BRANCH  15  16
HETATM   16  P           1     -22.368  -8.048  -0.261  0.00  0.00     0.406 P 
HETATM   17  O           1     -21.358  -8.034   0.822  0.00  0.00    -0.624 OA
HETATM   18  O           1     -22.652  -6.661  -0.689  0.00  0.00    -0.624 OA
BRANCH  16  19
HETATM   19  O           1     -23.726  -8.735   0.277  0.00  0.00    -0.300 OA
HETATM   20  H           1     -24.025  -8.173   0.971  0.00  0.00     0.223 HD
ENDBRANCH  16  19
ENDBRANCH  15  16
ENDBRANCH  14  15
ENDBRANCH  10  14
ENDBRANCH   8  10
ENDBRANCH   7   8
ENDBRANCH   6   7
ENDBRANCH   5   6
BRANCH   5  21
HETATM   21  C           1     -18.979  -9.469  -4.932  0.00  0.00     0.196 C 
HETATM   22  O           1     -18.399  -9.740  -6.006  0.00  0.00    -0.646 OA
HETATM   23  O           1     -18.376  -9.600  -3.845  0.00  0.00    -0.646 OA
ENDBRANCH   5  21
ENDBRANCH   4   5
BRANCH   3  24
HETATM   24  C           1     -21.342  -5.438  -6.062  0.00  0.00     0.274 C 
BRANCH  24  25
HETATM   25  N           1     -20.280  -4.486  -5.597  0.00  0.00    -0.067 N 
HETATM   26  H           1     -20.371  -3.582  -6.114  0.00  0.00     0.275 HD
HETATM   27  H           1     -20.393  -4.314  -4.572  0.00  0.00     0.275 HD
HETATM   28  H           1     -19.338  -4.899  -5.780  0.00  0.00     0.257 HD
ENDBRANCH  24  25
BRANCH  24  29
HETATM   29  C           1     -21.132  -5.748  -7.538  0.00  0.00     0.044 C 
BRANCH  29  30
HETATM   30  C           1     -19.870  -5.050  -8.031  0.00  0.00     0.023 C 
BRANCH  30  31
HETATM   31  C           1     -20.244  -3.992  -9.060  0.00  0.00     0.156 C 
BRANCH  31  32
HETATM   32  N           1     -21.299  -4.514  -9.940  0.00  0.00    -0.227 N 
HETATM   33  C           1     -21.300  -4.219 -11.171  0.00  0.00     0.665 C 
HETATM   34  N           1     -22.209  -4.669 -11.930  0.00  0.00    -0.235 N 
HETATM   35  N           1     -20.367  -3.456 -11.658  0.00  0.00    -0.235 N 
HETATM   36  H           1     -22.209  -4.424 -12.951  0.00  0.00     0.174 HD
HETATM   37  H           1     -22.962  -5.286 -11.537  0.00  0.00     0.174 HD
HETATM   38  H           1     -20.367  -3.212 -12.674  0.00  0.00     0.174 HD
HETATM   39  H           1     -19.617  -3.084 -11.032  0.00  0.00     0.174 HD
HETATM   40  H           1     -22.053  -5.132  -9.548  0.00  0.00     0.177 HD
ENDBRANCH  31  32
ENDBRANCH  30  31
ENDBRANCH  29  30
ENDBRANCH  24  29
ENDBRANCH   3  24
TORSDOF 17
ENDMDL
