MODEL 1
REMARK VINA RESULT:      -6.8      0.000      0.000
REMARK  5 active torsions:
REMARK  status: ('A' for Active; 'I' for Inactive)
REMARK    1  A    between atoms: C_7  and  C_8 
REMARK    2  A    between atoms: C_8  and  C_9 
REMARK    3  A    between atoms: C_9  and  C_10 
REMARK    4  A    between atoms: C_9  and  N_13 
REMARK       I    between atoms: C_10  and  N_14 
REMARK    5  A    between atoms: C_20  and  C_22 
ROOT
HETATM    1  C           1     -20.778  -8.704  -4.279  0.00  0.00     0.279 C 
ENDROOT
BRANCH   1   2
HETATM    2  C           1     -20.004  -8.855  -2.976  0.00  0.00     0.081 C 
BRANCH   2   3
HETATM    3  C           1     -20.885  -8.476  -1.825  0.00  0.00    -0.056 A 
HETATM    4  C           1     -20.961  -9.302  -0.705  0.00  0.00     0.007 A 
HETATM    5  C           1     -21.782  -8.949   0.367  0.00  0.00     0.001 A 
HETATM    6  C           1     -22.526  -7.771   0.316  0.00  0.00     0.000 A 
HETATM    7  C           1     -22.450  -6.945  -0.805  0.00  0.00     0.001 A 
HETATM    8  C           1     -21.629  -7.297  -1.877  0.00  0.00     0.007 A 
ENDBRANCH   2   3
ENDBRANCH   1   2
BRANCH   1   9
HETATM    9  C           1     -19.886  -8.078  -5.324  0.00  0.00     0.251 C 
HETATM   10  N           1     -20.182  -6.839  -5.823  0.00  0.00    -0.336 N 
HETATM   11  C           1     -19.897  -6.327  -7.161  0.00  0.00     0.127 C 
HETATM   12  C           1     -20.853  -5.740  -5.135  0.00  0.00     0.188 C 
HETATM   13  C           1     -19.456  -4.894  -6.915  0.00  0.00     0.022 C 
HETATM   14  C           1     -20.082  -4.509  -5.579  0.00  0.00     0.038 C 
HETATM   15  O           1     -18.912  -8.672  -5.719  0.00  0.00    -0.271 OA
BRANCH  12  16
HETATM   16  C           1     -22.300  -5.647  -5.553  0.00  0.00     0.196 C 
HETATM   17  O           1     -23.155  -6.383  -5.015  0.00  0.00    -0.646 OA
HETATM   18  O           1     -22.643  -4.834  -6.438  0.00  0.00    -0.646 OA
ENDBRANCH  12  16
ENDBRANCH   1   9
BRANCH   1  19
HETATM   19  N           1     -21.227 -10.056  -4.752  0.00  0.00    -0.066 N 
HETATM   20  H           1     -22.131 -10.303  -4.289  0.00  0.00     0.275 HD
HETATM   21  H           1     -20.502 -10.768  -4.507  0.00  0.00     0.275 HD
HETATM   22  H           1     -21.360 -10.036  -5.788  0.00  0.00     0.275 HD
ENDBRANCH   1  19
TORSDOF 5
ENDMDL
MODEL 2
REMARK VINA RESULT:      -6.7      2.037      6.381
REMARK  5 active torsions:
REMARK  status: ('A' for Active; 'I' for Inactive)
REMARK    1  A    between atoms: C_7  and  C_8 
REMARK    2  A    between atoms: C_8  and  C_9 
REMARK    3  A    between atoms: C_9  and  C_10 
REMARK    4  A    between atoms: C_9  and  N_13 
REMARK       I    between atoms: C_10  and  N_14 
REMARK    5  A    between atoms: C_20  and  C_22 
ROOT
HETATM    1  C           1     -20.399  -6.320  -5.666  0.00  0.00     0.279 C 
ENDROOT
BRANCH   1   2
HETATM    2  C           1     -20.494  -4.811  -5.854  0.00  0.00     0.081 C 
BRANCH   2   3
HETATM    3  C           1     -20.885  -4.508  -7.267  0.00  0.00    -0.056 A 
HETATM    4  C           1     -19.935  -4.581  -8.285  0.00  0.00     0.007 A 
HETATM    5  C           1     -20.299  -4.298  -9.602  0.00  0.00     0.001 A 
HETATM    6  C           1     -21.614  -3.941  -9.899  0.00  0.00     0.000 A 
HETATM    7  C           1     -22.565  -3.868  -8.882  0.00  0.00     0.001 A 
HETATM    8  C           1     -22.201  -4.151  -7.565  0.00  0.00     0.007 A 
ENDBRANCH   2   3
ENDBRANCH   1   2
BRANCH   1   9
HETATM    9  C           1     -20.954  -6.694  -4.313  0.00  0.00     0.251 C 
HETATM   10  N           1     -20.649  -7.908  -3.760  0.00  0.00    -0.336 N 
HETATM   11  C           1     -21.477  -8.711  -2.864  0.00  0.00     0.127 C 
HETATM   12  C           1     -19.425  -8.684  -3.937  0.00  0.00     0.188 C 
HETATM   13  C           1     -20.489  -9.252  -1.845  0.00  0.00     0.022 C 
HETATM   14  C           1     -19.137  -9.230  -2.550  0.00  0.00     0.038 C 
HETATM   15  O           1     -21.668  -5.922  -3.720  0.00  0.00    -0.271 OA
BRANCH  12  16
HETATM   16  C           1     -19.637  -9.807  -4.923  0.00  0.00     0.196 C 
HETATM   17  O           1     -20.551  -9.728  -5.773  0.00  0.00    -0.646 OA
HETATM   18  O           1     -18.902 -10.816  -4.889  0.00  0.00    -0.646 OA
ENDBRANCH  12  16
ENDBRANCH   1   9
BRANCH   1  19
HETATM   19  N           1     -21.192  -7.007  -6.739  0.00  0.00    -0.066 N 
HETATM   20  H           1     -21.129  -6.457  -7.624  0.00  0.00     0.275 HD
HETATM   21  H           1     -22.191  -7.077  -6.440  0.00  0.00     0.275 HD
HETATM   22  H           1     -20.808  -7.966  -6.896  0.00  0.00     0.275 HD
ENDBRANCH   1  19
TORSDOF 5
ENDMDL
MODEL 3
REMARK VINA RESULT:      -6.6     15.903     18.042
REMARK  5 active torsions:
REMARK  status: ('A' for Active; 'I' for Inactive)
REMARK    1  A    between atoms: C_7  and  C_8 
REMARK    2  A    between atoms: C_8  and  C_9 
REMARK    3  A    between atoms: C_9  and  C_10 
REMARK    4  A    between atoms: C_9  and  N_13 
REMARK       I    between atoms: C_10  and  N_14 
REMARK    5  A    between atoms: C_20  and  C_22 
ROOT
HETATM    1  C           1     -35.340  -1.804 -12.789  0.00  0.00     0.279 C 
ENDROOT
BRANCH   1   2
HETATM    2  C           1     -34.967  -2.081 -11.339  0.00  0.00     0.081 C 
BRANCH   2   3
HETATM    3  C           1     -34.445  -3.480 -11.216  0.00  0.00    -0.056 A 
HETATM    4  C           1     -35.280  -4.496 -10.751  0.00  0.00     0.007 A 
HETATM    5  C           1     -34.795  -5.799 -10.635  0.00  0.00     0.001 A 
HETATM    6  C           1     -33.475  -6.084 -10.985  0.00  0.00     0.000 A 
HETATM    7  C           1     -32.641  -5.068 -11.450  0.00  0.00     0.001 A 
HETATM    8  C           1     -33.126  -3.765 -11.565  0.00  0.00     0.007 A 
ENDBRANCH   2   3
ENDBRANCH   1   2
BRANCH   1   9
HETATM    9  C           1     -35.132  -0.340 -13.091  0.00  0.00     0.251 C 
HETATM   10  N           1     -35.494   0.166 -14.310  0.00  0.00    -0.336 N 
HETATM   11  C           1     -34.879   1.276 -15.031  0.00  0.00     0.127 C 
HETATM   12  C           1     -36.581  -0.287 -15.174  0.00  0.00     0.188 C 
HETATM   13  C           1     -36.061   2.030 -15.616  0.00  0.00     0.022 C 
HETATM   14  C           1     -37.183   1.001 -15.705  0.00  0.00     0.038 C 
HETATM   15  O           1     -34.644   0.384 -12.258  0.00  0.00    -0.271 OA
BRANCH  12  16
HETATM   16  C           1     -36.052  -1.138 -16.302  0.00  0.00     0.196 C 
HETATM   17  O           1     -35.133  -1.959 -16.088  0.00  0.00    -0.646 OA
HETATM   18  O           1     -36.531  -1.022 -17.450  0.00  0.00    -0.646 OA
ENDBRANCH  12  16
ENDBRANCH   1   9
BRANCH   1  19
HETATM   19  N           1     -34.473  -2.629 -13.694  0.00  0.00    -0.066 N 
HETATM   20  H           1     -33.956  -2.000 -14.349  0.00  0.00     0.275 HD
HETATM   21  H           1     -35.071  -3.288 -14.241  0.00  0.00     0.275 HD
HETATM   22  H           1     -33.789  -3.172 -13.121  0.00  0.00     0.275 HD
ENDBRANCH   1  19
TORSDOF 5
ENDMDL
MODEL 4
REMARK VINA RESULT:      -6.4     18.624     20.294
REMARK  5 active torsions:
REMARK  status: ('A' for Active; 'I' for Inactive)
REMARK    1  A    between atoms: C_7  and  C_8 
REMARK    2  A    between atoms: C_8  and  C_9 
REMARK    3  A    between atoms: C_9  and  C_10 
REMARK    4  A    between atoms: C_9  and  N_13 
REMARK       I    between atoms: C_10  and  N_14 
REMARK    5  A    between atoms: C_20  and  C_22 
ROOT
HETATM    1  C           1     -14.446  10.066   5.815  0.00  0.00     0.279 C 
ENDROOT
BRANCH   1   2
HETATM    2  C           1     -13.478   9.055   5.214  0.00  0.00     0.081 C 
BRANCH   2   3
HETATM    3  C           1     -13.737   8.928   3.745  0.00  0.00    -0.056 A 
HETATM    4  C           1     -13.104   9.787   2.848  0.00  0.00     0.007 A 
HETATM    5  C           1     -13.345   9.669   1.479  0.00  0.00     0.001 A 
HETATM    6  C           1     -14.221   8.691   1.008  0.00  0.00     0.000 A 
HETATM    7  C           1     -14.855   7.832   1.905  0.00  0.00     0.001 A 
HETATM    8  C           1     -14.614   7.950   3.274  0.00  0.00     0.007 A 
ENDBRANCH   2   3
ENDBRANCH   1   2
BRANCH   1   9
HETATM    9  C           1     -15.703   9.356   6.257  0.00  0.00     0.251 C 
HETATM   10  N           1     -16.909   9.690   5.701  0.00  0.00    -0.336 N 
HETATM   11  C           1     -18.225   9.634   6.332  0.00  0.00     0.127 C 
HETATM   12  C           1     -17.160  10.180   4.349  0.00  0.00     0.188 C 
HETATM   13  C           1     -19.130   9.100   5.236  0.00  0.00     0.022 C 
HETATM   14  C           1     -18.427   9.455   3.930  0.00  0.00     0.038 C 
HETATM   15  O           1     -15.645   8.495   7.101  0.00  0.00    -0.271 OA
BRANCH  12  16
HETATM   16  C           1     -17.371  11.674   4.349  0.00  0.00     0.196 C 
HETATM   17  O           1     -18.451  12.153   3.938  0.00  0.00    -0.646 OA
HETATM   18  O           1     -16.467  12.433   4.758  0.00  0.00    -0.646 OA
ENDBRANCH  12  16
ENDBRANCH   1   9
BRANCH   1  19
HETATM   19  N           1     -13.805  10.728   6.999  0.00  0.00    -0.066 N 
HETATM   20  H           1     -14.432  10.639   7.830  0.00  0.00     0.275 HD
HETATM   21  H           1     -13.647  11.740   6.787  0.00  0.00     0.275 HD
HETATM   22  H           1     -12.889  10.268   7.202  0.00  0.00     0.275 HD
ENDBRANCH   1  19
TORSDOF 5
ENDMDL
MODEL 5
REMARK VINA RESULT:      -6.4      3.108      4.864
REMARK  5 active torsions:
REMARK  status: ('A' for Active; 'I' for Inactive)
REMARK    1  A    between atoms: C_7  and  C_8 
REMARK    2  A    between atoms: C_8  and  C_9 
REMARK    3  A    between atoms: C_9  and  C_10 
REMARK    4  A    between atoms: C_9  and  N_13 
REMARK       I    between atoms: C_10  and  N_14 
REMARK    5  A    between atoms: C_20  and  C_22 
ROOT
HETATM    1  C           1     -21.932  -8.888  -0.420  0.00  0.00     0.279 C 
ENDROOT
BRANCH   1   2
HETATM    2  C           1     -23.267  -9.525  -0.054  0.00  0.00     0.081 C 
BRANCH   2   3
HETATM    3  C           1     -23.306 -10.932  -0.564  0.00  0.00    -0.056 A 
HETATM    4  C           1     -23.024 -11.195  -1.904  0.00  0.00     0.007 A 
HETATM    5  C           1     -23.060 -12.506  -2.381  0.00  0.00     0.001 A 
HETATM    6  C           1     -23.380 -13.553  -1.516  0.00  0.00     0.000 A 
HETATM    7  C           1     -23.663 -13.290  -0.176  0.00  0.00     0.001 A 
HETATM    8  C           1     -23.626 -11.979   0.300  0.00  0.00     0.007 A 
ENDBRANCH   2   3
ENDBRANCH   1   2
BRANCH   1   9
HETATM    9  C           1     -22.177  -7.599  -1.166  0.00  0.00     0.251 C 
HETATM   10  N           1     -21.628  -7.411  -2.405  0.00  0.00    -0.336 N 
HETATM   11  C           1     -21.206  -6.150  -3.008  0.00  0.00     0.127 C 
HETATM   12  C           1     -21.336  -8.427  -3.413  0.00  0.00     0.188 C 
HETATM   13  C           1     -21.655  -6.271  -4.454  0.00  0.00     0.022 C 
HETATM   14  C           1     -21.746  -7.770  -4.719  0.00  0.00     0.038 C 
HETATM   15  O           1     -22.857  -6.735  -0.668  0.00  0.00    -0.271 OA
BRANCH  12  16
HETATM   16  C           1     -19.867  -8.769  -3.421  0.00  0.00     0.196 C 
HETATM   17  O           1     -19.220  -8.722  -4.490  0.00  0.00    -0.646 OA
HETATM   18  O           1     -19.296  -9.100  -2.360  0.00  0.00    -0.646 OA
ENDBRANCH  12  16
ENDBRANCH   1   9
BRANCH   1  19
HETATM   19  N           1     -21.157  -8.601   0.832  0.00  0.00    -0.066 N 
HETATM   20  H           1     -21.120  -9.461   1.424  0.00  0.00     0.275 HD
HETATM   21  H           1     -21.627  -7.832   1.362  0.00  0.00     0.275 HD
HETATM   22  H           1     -20.186  -8.308   0.581  0.00  0.00     0.275 HD
ENDBRANCH   1  19
TORSDOF 5
ENDMDL
MODEL 6
REMARK VINA RESULT:      -6.4      2.483      6.182
REMARK  5 active torsions:
REMARK  status: ('A' for Active; 'I' for Inactive)
REMARK    1  A    between atoms: C_7  and  C_8 
REMARK    2  A    between atoms: C_8  and  C_9 
REMARK    3  A    between atoms: C_9  and  C_10 
REMARK    4  A    between atoms: C_9  and  N_13 
REMARK       I    between atoms: C_10  and  N_14 
REMARK    5  A    between atoms: C_20  and  C_22 
ROOT
HETATM    1  C           1     -20.428  -7.379  -5.086  0.00  0.00     0.279 C 
ENDROOT
BRANCH   1   2
HETATM    2  C           1     -21.021  -5.984  -4.934  0.00  0.00     0.081 C 
BRANCH   2   3
HETATM    3  C           1     -20.872  -5.234  -6.222  0.00  0.00    -0.056 A 
HETATM    4  C           1     -22.003  -4.782  -6.899  0.00  0.00     0.007 A 
HETATM    5  C           1     -21.865  -4.084  -8.100  0.00  0.00     0.001 A 
HETATM    6  C           1     -20.595  -3.840  -8.621  0.00  0.00     0.000 A 
HETATM    7  C           1     -19.463  -4.293  -7.944  0.00  0.00     0.001 A 
HETATM    8  C           1     -19.601  -4.991  -6.743  0.00  0.00     0.007 A 
ENDBRANCH   2   3
ENDBRANCH   1   2
BRANCH   1   9
HETATM    9  C           1     -20.475  -8.093  -3.757  0.00  0.00     0.251 C 
HETATM   10  N           1     -19.644  -9.155  -3.521  0.00  0.00    -0.336 N 
HETATM   11  C           1     -19.901 -10.311  -2.667  0.00  0.00     0.127 C 
HETATM   12  C           1     -18.309  -9.378  -4.067  0.00  0.00     0.188 C 
HETATM   13  C           1     -18.571 -10.551  -1.972  0.00  0.00     0.022 C 
HETATM   14  C           1     -17.524  -9.933  -2.892  0.00  0.00     0.038 C 
HETATM   15  O           1     -21.245  -7.727  -2.902  0.00  0.00    -0.271 OA
BRANCH  12  16
HETATM   16  C           1     -18.353 -10.373  -5.201  0.00  0.00     0.196 C 
HETATM   17  O           1     -17.520 -11.305  -5.247  0.00  0.00    -0.646 OA
HETATM   18  O           1     -19.219 -10.265  -6.094  0.00  0.00    -0.646 OA
ENDBRANCH  12  16
ENDBRANCH   1   9
BRANCH   1  19
HETATM   19  N           1     -21.224  -8.151  -6.095  0.00  0.00    -0.066 N 
HETATM   20  H           1     -22.066  -7.598  -6.374  0.00  0.00     0.275 HD
HETATM   21  H           1     -21.527  -9.060  -5.677  0.00  0.00     0.275 HD
HETATM   22  H           1     -20.634  -8.335  -6.938  0.00  0.00     0.275 HD
ENDBRANCH   1  19
TORSDOF 5
ENDMDL
MODEL 7
REMARK VINA RESULT:      -6.2      3.187      6.146
REMARK  5 active torsions:
REMARK  status: ('A' for Active; 'I' for Inactive)
REMARK    1  A    between atoms: C_7  and  C_8 
REMARK    2  A    between atoms: C_8  and  C_9 
REMARK    3  A    between atoms: C_9  and  C_10 
REMARK    4  A    between atoms: C_9  and  N_13 
REMARK       I    between atoms: C_10  and  N_14 
REMARK    5  A    between atoms: C_20  and  C_22 
ROOT
HETATM    1  C           1     -20.728  -9.353  -3.338  0.00  0.00     0.279 C 
ENDROOT
BRANCH   1   2
HETATM    2  C           1     -19.915  -8.738  -4.470  0.00  0.00     0.081 C 
BRANCH   2   3
HETATM    3  C           1     -18.504  -9.234  -4.399  0.00  0.00    -0.056 A 
HETATM    4  C           1     -17.868  -9.349  -3.164  0.00  0.00     0.007 A 
HETATM    5  C           1     -16.553  -9.810  -3.096  0.00  0.00     0.001 A 
HETATM    6  C           1     -15.876 -10.156  -4.266  0.00  0.00     0.000 A 
HETATM    7  C           1     -16.512 -10.042  -5.501  0.00  0.00     0.001 A 
HETATM    8  C           1     -17.827  -9.580  -5.568  0.00  0.00     0.007 A 
ENDBRANCH   2   3
ENDBRANCH   1   2
BRANCH   1   9
HETATM    9  C           1     -21.168  -8.267  -2.387  0.00  0.00     0.251 C 
HETATM   10  N           1     -21.605  -8.593  -1.131  0.00  0.00    -0.336 N 
HETATM   11  C           1     -22.595  -7.886  -0.323  0.00  0.00     0.127 C 
HETATM   12  C           1     -21.184  -9.723  -0.308  0.00  0.00     0.188 C 
HETATM   13  C           1     -22.015  -7.930   1.080  0.00  0.00     0.022 C 
HETATM   14  C           1     -21.083  -9.136   1.089  0.00  0.00     0.038 C 
HETATM   15  O           1     -21.135  -7.112  -2.734  0.00  0.00    -0.271 OA
BRANCH  12  16
HETATM   16  C           1     -22.207 -10.831  -0.352  0.00  0.00     0.196 C 
HETATM   17  O           1     -22.235 -11.692   0.554  0.00  0.00    -0.646 OA
HETATM   18  O           1     -23.026 -10.889  -1.294  0.00  0.00    -0.646 OA
ENDBRANCH  12  16
ENDBRANCH   1   9
BRANCH   1  19
HETATM   19  N           1     -21.935 -10.039  -3.906  0.00  0.00    -0.066 N 
HETATM   20  H           1     -21.866 -11.067  -3.733  0.00  0.00     0.275 HD
HETATM   21  H           1     -21.984  -9.860  -4.935  0.00  0.00     0.275 HD
HETATM   22  H           1     -22.796  -9.666  -3.447  0.00  0.00     0.275 HD
ENDBRANCH   1  19
TORSDOF 5
ENDMDL
MODEL 8
REMARK VINA RESULT:      -6.2      1.922      3.193
REMARK  5 active torsions:
REMARK  status: ('A' for Active; 'I' for Inactive)
REMARK    1  A    between atoms: C_7  and  C_8 
REMARK    2  A    between atoms: C_8  and  C_9 
REMARK    3  A    between atoms: C_9  and  C_10 
REMARK    4  A    between atoms: C_9  and  N_13 
REMARK       I    between atoms: C_10  and  N_14 
REMARK    5  A    between atoms: C_20  and  C_22 
ROOT
HETATM    1  C           1     -21.802  -6.891  -4.940  0.00  0.00     0.279 C 
ENDROOT
BRANCH   1   2
HETATM    2  C           1     -21.136  -6.125  -3.804  0.00  0.00     0.081 C 
BRANCH   2   3
HETATM    3  C           1     -21.337  -6.866  -2.518  0.00  0.00    -0.056 A 
HETATM    4  C           1     -22.304  -6.436  -1.610  0.00  0.00     0.007 A 
HETATM    5  C           1     -22.492  -7.124  -0.412  0.00  0.00     0.001 A 
HETATM    6  C           1     -21.710  -8.243  -0.122  0.00  0.00     0.000 A 
HETATM    7  C           1     -20.743  -8.673  -1.029  0.00  0.00     0.001 A 
HETATM    8  C           1     -20.555  -7.984  -2.228  0.00  0.00     0.007 A 
ENDBRANCH   2   3
ENDBRANCH   1   2
BRANCH   1   9
HETATM    9  C           1     -22.608  -5.936  -5.786  0.00  0.00     0.251 C 
HETATM   10  N           1     -21.986  -5.169  -6.734  0.00  0.00    -0.336 N 
HETATM   11  C           1     -22.372  -3.838  -7.195  0.00  0.00     0.127 C 
HETATM   12  C           1     -20.792  -5.503  -7.505  0.00  0.00     0.188 C 
HETATM   13  C           1     -22.143  -3.893  -8.695  0.00  0.00     0.022 C 
HETATM   14  C           1     -21.107  -4.992  -8.900  0.00  0.00     0.038 C 
HETATM   15  O           1     -23.802  -5.848  -5.626  0.00  0.00    -0.271 OA
BRANCH  12  16
HETATM   16  C           1     -19.577  -4.809  -6.941  0.00  0.00     0.196 C 
HETATM   17  O           1     -18.667  -4.421  -7.706  0.00  0.00    -0.646 OA
HETATM   18  O           1     -19.479  -4.624  -5.709  0.00  0.00    -0.646 OA
ENDBRANCH  12  16
ENDBRANCH   1   9
BRANCH   1  19
HETATM   19  N           1     -20.750  -7.542  -5.788  0.00  0.00    -0.066 N 
HETATM   20  H           1     -19.819  -7.117  -5.575  0.00  0.00     0.275 HD
HETATM   21  H           1     -20.978  -7.397  -6.797  0.00  0.00     0.275 HD
HETATM   22  H           1     -20.720  -8.566  -5.582  0.00  0.00     0.275 HD
ENDBRANCH   1  19
TORSDOF 5
ENDMDL
MODEL 9
REMARK VINA RESULT:      -6.1      4.823      5.715
REMARK  5 active torsions:
REMARK  status: ('A' for Active; 'I' for Inactive)
REMARK    1  A    between atoms: C_7  and  C_8 
REMARK    2  A    between atoms: C_8  and  C_9 
REMARK    3  A    between atoms: C_9  and  C_10 
REMARK    4  A    between atoms: C_9  and  N_13 
REMARK       I    between atoms: C_10  and  N_14 
REMARK    5  A    between atoms: C_20  and  C_22 
ROOT
HETATM    1  C           1     -19.968 -12.044  -0.845  0.00  0.00     0.279 C 
ENDROOT
BRANCH   1   2
HETATM    2  C           1     -20.711 -11.910   0.478  0.00  0.00     0.081 C 
BRANCH   2   3
HETATM    3  C           1     -21.452 -10.609   0.505  0.00  0.00    -0.056 A 
HETATM    4  C           1     -20.876  -9.492   1.109  0.00  0.00     0.007 A 
HETATM    5  C           1     -21.565  -8.279   1.135  0.00  0.00     0.001 A 
HETATM    6  C           1     -22.831  -8.186   0.557  0.00  0.00     0.000 A 
HETATM    7  C           1     -23.407  -9.302  -0.048  0.00  0.00     0.001 A 
HETATM    8  C           1     -22.717 -10.515  -0.074  0.00  0.00     0.007 A 
ENDBRANCH   2   3
ENDBRANCH   1   2
BRANCH   1   9
HETATM    9  C           1     -18.495 -11.802  -0.622  0.00  0.00     0.251 C 
HETATM   10  N           1     -17.715 -11.335  -1.645  0.00  0.00    -0.336 N 
HETATM   11  C           1     -16.298 -11.600  -1.876  0.00  0.00     0.127 C 
HETATM   12  C           1     -18.119 -10.462  -2.744  0.00  0.00     0.188 C 
HETATM   13  C           1     -15.748 -10.259  -2.333  0.00  0.00     0.022 C 
HETATM   14  C           1     -16.947  -9.509  -2.899  0.00  0.00     0.038 C 
HETATM   15  O           1     -18.005 -12.022   0.459  0.00  0.00    -0.271 OA
BRANCH  12  16
HETATM   16  C           1     -18.337 -11.256  -4.009  0.00  0.00     0.196 C 
HETATM   17  O           1     -17.861 -10.849  -5.092  0.00  0.00    -0.646 OA
HETATM   18  O           1     -18.992 -12.319  -3.974  0.00  0.00    -0.646 OA
ENDBRANCH  12  16
ENDBRANCH   1   9
BRANCH   1  19
HETATM   19  N           1     -20.170 -13.426  -1.393  0.00  0.00    -0.066 N 
HETATM   20  H           1     -20.792 -13.968  -0.751  0.00  0.00     0.275 HD
HETATM   21  H           1     -19.245 -13.907  -1.470  0.00  0.00     0.275 HD
HETATM   22  H           1     -20.611 -13.366  -2.338  0.00  0.00     0.275 HD
ENDBRANCH   1  19
TORSDOF 5
ENDMDL
