MODEL 1
REMARK VINA RESULT:      -6.8      0.000      0.000
REMARK  11 active torsions:
REMARK  status: ('A' for Active; 'I' for Inactive)
REMARK    1  A    between atoms: C_1  and  C_2 
REMARK    2  A    between atoms: C_1  and  O_27 
REMARK    3  A    between atoms: C_2  and  C_3 
REMARK    4  A    between atoms: C_2  and  N_22 
REMARK       I    between atoms: C_3  and  N_4 
REMARK    5  A    between atoms: N_4  and  C_8 
REMARK    6  A    between atoms: C_7  and  C_8 
REMARK    7  A    between atoms: C_8  and  C_9 
REMARK    8  A    between atoms: C_9  and  C_10 
REMARK    9  A    between atoms: C_10  and  C_12 
REMARK       I    between atoms: N_11  and  C_12 
REMARK   10  A    between atoms: O_25  and  P_26 
REMARK   11  A    between atoms: P_26  and  O_27 
ROOT
HETATM    1  C           1     -35.450  -1.963 -10.612  0.00  0.00     0.251 C 
HETATM    2  N           1     -35.731  -3.257 -10.960  0.00  0.00    -0.345 N 
HETATM    3  H           1     -36.693  -3.554 -11.067  0.00  0.00     0.163 HD
HETATM    4  O           1     -34.302  -1.608 -10.483  0.00  0.00    -0.271 OA
ENDROOT
BRANCH   1   5
HETATM    5  C           1     -36.572  -0.980 -10.390  0.00  0.00     0.298 C 
BRANCH   5   6
HETATM    6  C           1     -36.757  -0.127 -11.638  0.00  0.00     0.224 C 
BRANCH   6   7
HETATM    7  O           1     -36.722  -0.947 -12.774  0.00  0.00    -0.287 OA
BRANCH   7   8
HETATM    8  P           1     -35.817  -0.418 -14.002  0.00  0.00     0.406 P 
HETATM    9  O           1     -34.796   0.525 -13.492  0.00  0.00    -0.624 OA
HETATM   10  O           1     -36.679   0.272 -14.988  0.00  0.00    -0.624 OA
BRANCH   8  11
HETATM   11  O           1     -35.085  -1.671 -14.712  0.00  0.00    -0.300 OA
HETATM   12  H           1     -34.164  -1.519 -14.585  0.00  0.00     0.223 HD
ENDBRANCH   8  11
ENDBRANCH   7   8
ENDBRANCH   6   7
ENDBRANCH   5   6
BRANCH   5  13
HETATM   13  N           1     -36.238  -0.095  -9.225  0.00  0.00    -0.064 N 
HETATM   14  H           1     -35.427  -0.498  -8.703  0.00  0.00     0.275 HD
HETATM   15  H           1     -37.065  -0.030  -8.589  0.00  0.00     0.275 HD
HETATM   16  H           1     -35.990   0.859  -9.571  0.00  0.00     0.275 HD
ENDBRANCH   5  13
ENDBRANCH   1   5
BRANCH   2  17
HETATM   17  C           1     -34.653  -4.202 -11.173  0.00  0.00     0.186 C 
BRANCH  17  18
HETATM   18  C           1     -34.459  -4.416 -12.655  0.00  0.00     0.196 C 
HETATM   19  O           1     -35.157  -5.258 -13.260  0.00  0.00    -0.646 OA
HETATM   20  O           1     -33.601  -3.752 -13.275  0.00  0.00    -0.646 OA
ENDBRANCH  17  18
BRANCH  17  21
HETATM   21  C           1     -35.000  -5.527 -10.509  0.00  0.00     0.045 C 
BRANCH  21  22
HETATM   22  C           1     -33.834  -6.494 -10.663  0.00  0.00     0.105 C 
BRANCH  22  23
HETATM   23  C           1     -34.250  -7.864 -10.186  0.00  0.00     0.215 C 
HETATM   24  N           1     -33.406  -8.930 -10.347  0.00  0.00    -0.370 N 
HETATM   25  H           1     -32.504  -8.799 -10.785  0.00  0.00     0.159 HD
HETATM   26  H           1     -33.685  -9.849 -10.027  0.00  0.00     0.159 HD
HETATM   27  O           1     -35.327  -8.021  -9.663  0.00  0.00    -0.274 OA
ENDBRANCH  22  23
ENDBRANCH  21  22
ENDBRANCH  17  21
ENDBRANCH   2  17
TORSDOF 11
ENDMDL
MODEL 2
REMARK VINA RESULT:      -6.2     13.552     14.985
REMARK  11 active torsions:
REMARK  status: ('A' for Active; 'I' for Inactive)
REMARK    1  A    between atoms: C_1  and  C_2 
REMARK    2  A    between atoms: C_1  and  O_27 
REMARK    3  A    between atoms: C_2  and  C_3 
REMARK    4  A    between atoms: C_2  and  N_22 
REMARK       I    between atoms: C_3  and  N_4 
REMARK    5  A    between atoms: N_4  and  C_8 
REMARK    6  A    between atoms: C_7  and  C_8 
REMARK    7  A    between atoms: C_8  and  C_9 
REMARK    8  A    between atoms: C_9  and  C_10 
REMARK    9  A    between atoms: C_10  and  C_12 
REMARK       I    between atoms: N_11  and  C_12 
REMARK   10  A    between atoms: O_25  and  P_26 
REMARK   11  A    between atoms: P_26  and  O_27 
ROOT
HETATM    1  C           1     -20.865  -4.742  -6.435  0.00  0.00     0.251 C 
HETATM    2  N           1     -21.615  -5.749  -5.889  0.00  0.00    -0.345 N 
HETATM    3  H           1     -22.494  -6.014  -6.316  0.00  0.00     0.163 HD
HETATM    4  O           1     -19.817  -4.426  -5.925  0.00  0.00    -0.271 OA
ENDROOT
BRANCH   1   5
HETATM    5  C           1     -21.348  -4.028  -7.673  0.00  0.00     0.298 C 
BRANCH   5   6
HETATM    6  C           1     -22.769  -4.471  -7.995  0.00  0.00     0.224 C 
BRANCH   6   7
HETATM    7  O           1     -23.404  -3.486  -8.764  0.00  0.00    -0.287 OA
BRANCH   7   8
HETATM    8  P           1     -23.722  -3.881 -10.297  0.00  0.00     0.406 P 
HETATM    9  O           1     -23.887  -5.348 -10.404  0.00  0.00    -0.624 OA
HETATM   10  O           1     -22.602  -3.445 -11.161  0.00  0.00    -0.624 OA
BRANCH   8  11
HETATM   11  O           1     -25.082  -3.151 -10.772  0.00  0.00    -0.300 OA
HETATM   12  H           1     -24.798  -2.391 -11.251  0.00  0.00     0.223 HD
ENDBRANCH   8  11
ENDBRANCH   7   8
ENDBRANCH   6   7
ENDBRANCH   5   6
BRANCH   5  13
HETATM   13  N           1     -20.448  -4.361  -8.826  0.00  0.00    -0.064 N 
HETATM   14  H           1     -20.173  -5.369  -8.773  0.00  0.00     0.275 HD
HETATM   15  H           1     -19.592  -3.763  -8.784  0.00  0.00     0.275 HD
HETATM   16  H           1     -20.952  -4.185  -9.725  0.00  0.00     0.275 HD
ENDBRANCH   5  13
ENDBRANCH   1   5
BRANCH   2  17
HETATM   17  C           1     -21.152  -6.436  -4.700  0.00  0.00     0.186 C 
BRANCH  17  18
HETATM   18  C           1     -20.670  -7.817  -5.072  0.00  0.00     0.196 C 
HETATM   19  O           1     -19.703  -7.952  -5.851  0.00  0.00    -0.646 OA
HETATM   20  O           1     -21.239  -8.825  -4.600  0.00  0.00    -0.646 OA
ENDBRANCH  17  18
BRANCH  17  21
HETATM   21  C           1     -22.295  -6.548  -3.701  0.00  0.00     0.045 C 
BRANCH  21  22
HETATM   22  C           1     -21.814  -6.108  -2.324  0.00  0.00     0.105 C 
BRANCH  22  23
HETATM   23  C           1     -22.053  -7.216  -1.329  0.00  0.00     0.215 C 
HETATM   24  N           1     -21.384  -8.404  -1.452  0.00  0.00    -0.370 N 
HETATM   25  H           1     -20.729  -8.539  -2.211  0.00  0.00     0.159 HD
HETATM   26  H           1     -21.545  -9.147  -0.783  0.00  0.00     0.159 HD
HETATM   27  O           1     -22.835  -7.055  -0.422  0.00  0.00    -0.274 OA
ENDBRANCH  22  23
ENDBRANCH  21  22
ENDBRANCH  17  21
ENDBRANCH   2  17
TORSDOF 11
ENDMDL
MODEL 3
REMARK VINA RESULT:      -6.1      9.094     11.492
REMARK  11 active torsions:
REMARK  status: ('A' for Active; 'I' for Inactive)
REMARK    1  A    between atoms: C_1  and  C_2 
REMARK    2  A    between atoms: C_1  and  O_27 
REMARK    3  A    between atoms: C_2  and  C_3 
REMARK    4  A    between atoms: C_2  and  N_22 
REMARK       I    between atoms: C_3  and  N_4 
REMARK    5  A    between atoms: N_4  and  C_8 
REMARK    6  A    between atoms: C_7  and  C_8 
REMARK    7  A    between atoms: C_8  and  C_9 
REMARK    8  A    between atoms: C_9  and  C_10 
REMARK    9  A    between atoms: C_10  and  C_12 
REMARK       I    between atoms: N_11  and  C_12 
REMARK   10  A    between atoms: O_25  and  P_26 
REMARK   11  A    between atoms: P_26  and  O_27 
ROOT
HETATM    1  C           1     -27.364  -6.439 -19.330  0.00  0.00     0.251 C 
HETATM    2  N           1     -28.015  -7.054 -18.295  0.00  0.00    -0.345 N 
HETATM    3  H           1     -27.615  -7.879 -17.864  0.00  0.00     0.163 HD
HETATM    4  O           1     -27.841  -5.456 -19.845  0.00  0.00    -0.271 OA
ENDROOT
BRANCH   1   5
HETATM    5  C           1     -26.050  -6.990 -19.829  0.00  0.00     0.298 C 
BRANCH   5   6
HETATM    6  C           1     -25.035  -6.991 -18.694  0.00  0.00     0.224 C 
BRANCH   6   7
HETATM    7  O           1     -25.545  -6.264 -17.609  0.00  0.00    -0.287 OA
BRANCH   7   8
HETATM    8  P           1     -25.250  -6.876 -16.145  0.00  0.00     0.406 P 
HETATM    9  O           1     -24.286  -7.993 -16.262  0.00  0.00    -0.624 OA
HETATM   10  O           1     -26.513  -7.372 -15.554  0.00  0.00    -0.624 OA
BRANCH   8  11
HETATM   11  O           1     -24.627  -5.727 -15.195  0.00  0.00    -0.300 OA
HETATM   12  H           1     -23.742  -5.613 -15.498  0.00  0.00     0.223 HD
ENDBRANCH   8  11
ENDBRANCH   7   8
ENDBRANCH   6   7
ENDBRANCH   5   6
BRANCH   5  13
HETATM   13  N           1     -25.543  -6.134 -20.951  0.00  0.00    -0.064 N 
HETATM   14  H           1     -24.590  -6.458 -21.233  0.00  0.00     0.275 HD
HETATM   15  H           1     -25.495  -5.139 -20.636  0.00  0.00     0.275 HD
HETATM   16  H           1     -26.191  -6.209 -21.768  0.00  0.00     0.275 HD
ENDBRANCH   5  13
ENDBRANCH   1   5
BRANCH   2  17
HETATM   17  C           1     -29.277  -6.526 -17.816  0.00  0.00     0.186 C 
BRANCH  17  18
HETATM   18  C           1     -30.397  -7.449 -18.230  0.00  0.00     0.196 C 
HETATM   19  O           1     -31.549  -7.275 -17.779  0.00  0.00    -0.646 OA
HETATM   20  O           1     -30.172  -8.387 -19.026  0.00  0.00    -0.646 OA
ENDBRANCH  17  18
BRANCH  17  21
HETATM   21  C           1     -29.509  -5.145 -18.413  0.00  0.00     0.045 C 
BRANCH  21  22
HETATM   22  C           1     -29.787  -4.148 -17.296  0.00  0.00     0.105 C 
BRANCH  22  23
HETATM   23  C           1     -31.266  -3.860 -17.233  0.00  0.00     0.215 C 
HETATM   24  N           1     -32.067  -4.569 -16.380  0.00  0.00    -0.370 N 
HETATM   25  H           1     -31.666  -5.287 -15.790  0.00  0.00     0.159 HD
HETATM   26  H           1     -33.060  -4.376 -16.338  0.00  0.00     0.159 HD
HETATM   27  O           1     -31.745  -3.002 -17.937  0.00  0.00    -0.274 OA
ENDBRANCH  22  23
ENDBRANCH  21  22
ENDBRANCH  17  21
ENDBRANCH   2  17
TORSDOF 11
ENDMDL
MODEL 4
REMARK VINA RESULT:      -6.0      9.000     11.470
REMARK  11 active torsions:
REMARK  status: ('A' for Active; 'I' for Inactive)
REMARK    1  A    between atoms: C_1  and  C_2 
REMARK    2  A    between atoms: C_1  and  O_27 
REMARK    3  A    between atoms: C_2  and  C_3 
REMARK    4  A    between atoms: C_2  and  N_22 
REMARK       I    between atoms: C_3  and  N_4 
REMARK    5  A    between atoms: N_4  and  C_8 
REMARK    6  A    between atoms: C_7  and  C_8 
REMARK    7  A    between atoms: C_8  and  C_9 
REMARK    8  A    between atoms: C_9  and  C_10 
REMARK    9  A    between atoms: C_10  and  C_12 
REMARK       I    between atoms: N_11  and  C_12 
REMARK   10  A    between atoms: O_25  and  P_26 
REMARK   11  A    between atoms: P_26  and  O_27 
ROOT
HETATM    1  C           1     -27.137  -6.213 -19.513  0.00  0.00     0.251 C 
HETATM    2  N           1     -27.868  -6.106 -18.360  0.00  0.00    -0.345 N 
HETATM    3  H           1     -27.695  -6.741 -17.591  0.00  0.00     0.163 HD
HETATM    4  O           1     -27.344  -5.456 -20.431  0.00  0.00    -0.271 OA
ENDROOT
BRANCH   1   5
HETATM    5  C           1     -26.073  -7.276 -19.636  0.00  0.00     0.298 C 
BRANCH   5   6
HETATM    6  C           1     -24.944  -6.982 -18.657  0.00  0.00     0.224 C 
BRANCH   6   7
HETATM    7  O           1     -25.444  -6.245 -17.574  0.00  0.00    -0.287 OA
BRANCH   7   8
HETATM    8  P           1     -25.253  -6.911 -16.115  0.00  0.00     0.406 P 
HETATM    9  O           1     -24.260  -8.007 -16.200  0.00  0.00    -0.624 OA
HETATM   10  O           1     -26.548  -7.453 -15.647  0.00  0.00    -0.624 OA
BRANCH   8  11
HETATM   11  O           1     -24.730  -5.792 -15.075  0.00  0.00    -0.300 OA
HETATM   12  H           1     -24.891  -4.967 -15.502  0.00  0.00     0.223 HD
ENDBRANCH   8  11
ENDBRANCH   7   8
ENDBRANCH   6   7
ENDBRANCH   5   6
BRANCH   5  13
HETATM   13  N           1     -25.532  -7.282 -21.035  0.00  0.00    -0.064 N 
HETATM   14  H           1     -24.920  -8.119 -21.168  0.00  0.00     0.275 HD
HETATM   15  H           1     -24.974  -6.413 -21.196  0.00  0.00     0.275 HD
HETATM   16  H           1     -26.324  -7.317 -21.716  0.00  0.00     0.275 HD
ENDBRANCH   5  13
ENDBRANCH   1   5
BRANCH   2  17
HETATM   17  C           1     -28.891  -5.086 -18.242  0.00  0.00     0.186 C 
BRANCH  17  18
HETATM   18  C           1     -28.467  -4.068 -17.211  0.00  0.00     0.196 C 
HETATM   19  O           1     -28.701  -2.855 -17.398  0.00  0.00    -0.646 OA
HETATM   20  O           1     -27.883  -4.439 -16.170  0.00  0.00    -0.646 OA
ENDBRANCH  17  18
BRANCH  17  21
HETATM   21  C           1     -30.202  -5.729 -17.811  0.00  0.00     0.045 C 
BRANCH  21  22
HETATM   22  C           1     -30.724  -5.033 -16.562  0.00  0.00     0.105 C 
BRANCH  22  23
HETATM   23  C           1     -31.964  -4.244 -16.904  0.00  0.00     0.215 C 
HETATM   24  N           1     -33.171  -4.596 -16.365  0.00  0.00    -0.370 N 
HETATM   25  H           1     -33.233  -5.387 -15.736  0.00  0.00     0.159 HD
HETATM   26  H           1     -34.003  -4.067 -16.595  0.00  0.00     0.159 HD
HETATM   27  O           1     -31.890  -3.300 -17.655  0.00  0.00    -0.274 OA
ENDBRANCH  22  23
ENDBRANCH  21  22
ENDBRANCH  17  21
ENDBRANCH   2  17
TORSDOF 11
ENDMDL
MODEL 5
REMARK VINA RESULT:      -5.7     14.123     15.692
REMARK  11 active torsions:
REMARK  status: ('A' for Active; 'I' for Inactive)
REMARK    1  A    between atoms: C_1  and  C_2 
REMARK    2  A    between atoms: C_1  and  O_27 
REMARK    3  A    between atoms: C_2  and  C_3 
REMARK    4  A    between atoms: C_2  and  N_22 
REMARK       I    between atoms: C_3  and  N_4 
REMARK    5  A    between atoms: N_4  and  C_8 
REMARK    6  A    between atoms: C_7  and  C_8 
REMARK    7  A    between atoms: C_8  and  C_9 
REMARK    8  A    between atoms: C_9  and  C_10 
REMARK    9  A    between atoms: C_10  and  C_12 
REMARK       I    between atoms: N_11  and  C_12 
REMARK   10  A    between atoms: O_25  and  P_26 
REMARK   11  A    between atoms: P_26  and  O_27 
ROOT
HETATM    1  C           1     -21.689  -5.798  -5.782  0.00  0.00     0.251 C 
HETATM    2  N           1     -20.989  -6.663  -4.984  0.00  0.00    -0.345 N 
HETATM    3  H           1     -19.982  -6.727  -5.068  0.00  0.00     0.163 HD
HETATM    4  O           1     -22.890  -5.723  -5.683  0.00  0.00    -0.271 OA
ENDROOT
BRANCH   1   5
HETATM    5  C           1     -20.959  -4.940  -6.786  0.00  0.00     0.298 C 
BRANCH   5   6
HETATM    6  C           1     -21.968  -4.138  -7.598  0.00  0.00     0.224 C 
BRANCH   6   7
HETATM    7  O           1     -22.100  -4.706  -8.873  0.00  0.00    -0.287 OA
BRANCH   7   8
HETATM    8  P           1     -23.328  -4.161  -9.768  0.00  0.00     0.406 P 
HETATM    9  O           1     -23.963  -5.295 -10.477  0.00  0.00    -0.624 OA
HETATM   10  O           1     -22.822  -3.181 -10.755  0.00  0.00    -0.624 OA
BRANCH   8  11
HETATM   11  O           1     -24.417  -3.447  -8.812  0.00  0.00    -0.300 OA
HETATM   12  H           1     -25.117  -3.190  -9.388  0.00  0.00     0.223 HD
ENDBRANCH   8  11
ENDBRANCH   7   8
ENDBRANCH   6   7
ENDBRANCH   5   6
BRANCH   5  13
HETATM   13  N           1     -20.161  -5.815  -7.706  0.00  0.00    -0.064 N 
HETATM   14  H           1     -20.726  -6.031  -8.559  0.00  0.00     0.275 HD
HETATM   15  H           1     -19.917  -6.705  -7.216  0.00  0.00     0.275 HD
HETATM   16  H           1     -19.284  -5.320  -7.986  0.00  0.00     0.275 HD
ENDBRANCH   5  13
ENDBRANCH   1   5
BRANCH   2  17
HETATM   17  C           1     -21.689  -7.488  -4.020  0.00  0.00     0.186 C 
BRANCH  17  18
HETATM   18  C           1     -21.580  -6.864  -2.651  0.00  0.00     0.196 C 
HETATM   19  O           1     -20.764  -7.318  -1.820  0.00  0.00    -0.646 OA
HETATM   20  O           1     -22.305  -5.891  -2.348  0.00  0.00    -0.646 OA
ENDBRANCH  17  18
BRANCH  17  21
HETATM   21  C           1     -21.068  -8.878  -3.996  0.00  0.00     0.045 C 
BRANCH  21  22
HETATM   22  C           1     -19.826  -8.897  -4.878  0.00  0.00     0.105 C 
BRANCH  22  23
HETATM   23  C           1     -18.626  -9.288  -4.051  0.00  0.00     0.215 C 
HETATM   24  N           1     -18.693  -9.248  -2.685  0.00  0.00    -0.370 N 
HETATM   25  H           1     -19.548  -8.957  -2.229  0.00  0.00     0.159 HD
HETATM   26  H           1     -17.888  -9.511  -2.130  0.00  0.00     0.159 HD
HETATM   27  O           1     -17.606  -9.636  -4.596  0.00  0.00    -0.274 OA
ENDBRANCH  22  23
ENDBRANCH  21  22
ENDBRANCH  17  21
ENDBRANCH   2  17
TORSDOF 11
ENDMDL
MODEL 6
REMARK VINA RESULT:      -5.7     14.563     16.793
REMARK  11 active torsions:
REMARK  status: ('A' for Active; 'I' for Inactive)
REMARK    1  A    between atoms: C_1  and  C_2 
REMARK    2  A    between atoms: C_1  and  O_27 
REMARK    3  A    between atoms: C_2  and  C_3 
REMARK    4  A    between atoms: C_2  and  N_22 
REMARK       I    between atoms: C_3  and  N_4 
REMARK    5  A    between atoms: N_4  and  C_8 
REMARK    6  A    between atoms: C_7  and  C_8 
REMARK    7  A    between atoms: C_8  and  C_9 
REMARK    8  A    between atoms: C_9  and  C_10 
REMARK    9  A    between atoms: C_10  and  C_12 
REMARK       I    between atoms: N_11  and  C_12 
REMARK   10  A    between atoms: O_25  and  P_26 
REMARK   11  A    between atoms: P_26  and  O_27 
ROOT
HETATM    1  C           1     -21.510  -6.569  -4.475  0.00  0.00     0.251 C 
HETATM    2  N           1     -21.186  -5.466  -5.219  0.00  0.00    -0.345 N 
HETATM    3  H           1     -20.830  -4.635  -4.763  0.00  0.00     0.163 HD
HETATM    4  O           1     -21.935  -7.560  -5.019  0.00  0.00    -0.271 OA
ENDROOT
BRANCH   1   5
HETATM    5  C           1     -21.335  -6.547  -2.976  0.00  0.00     0.298 C 
BRANCH   5   6
HETATM    6  C           1     -21.418  -7.967  -2.433  0.00  0.00     0.224 C 
BRANCH   6   7
HETATM    7  O           1     -20.935  -7.993  -1.117  0.00  0.00    -0.287 OA
BRANCH   7   8
HETATM    8  P           1     -22.003  -8.405   0.021  0.00  0.00     0.406 P 
HETATM    9  O           1     -22.551  -9.748  -0.280  0.00  0.00    -0.624 OA
HETATM   10  O           1     -23.104  -7.416   0.045  0.00  0.00    -0.624 OA
BRANCH   8  11
HETATM   11  O           1     -21.273  -8.433   1.462  0.00  0.00    -0.300 OA
HETATM   12  H           1     -20.381  -8.675   1.279  0.00  0.00     0.223 HD
ENDBRANCH   8  11
ENDBRANCH   7   8
ENDBRANCH   6   7
ENDBRANCH   5   6
BRANCH   5  13
HETATM   13  N           1     -22.419  -5.712  -2.360  0.00  0.00    -0.064 N 
HETATM   14  H           1     -22.006  -5.097  -1.621  0.00  0.00     0.275 HD
HETATM   15  H           1     -23.138  -6.337  -1.931  0.00  0.00     0.275 HD
HETATM   16  H           1     -22.866  -5.121  -3.096  0.00  0.00     0.275 HD
ENDBRANCH   5  13
ENDBRANCH   1   5
BRANCH   2  17
HETATM   17  C           1     -21.354  -5.487  -6.658  0.00  0.00     0.186 C 
BRANCH  17  18
HETATM   18  C           1     -20.007  -5.654  -7.319  0.00  0.00     0.196 C 
HETATM   19  O           1     -19.404  -6.745  -7.238  0.00  0.00    -0.646 OA
HETATM   20  O           1     -19.496  -4.702  -7.946  0.00  0.00    -0.646 OA
ENDBRANCH  17  18
BRANCH  17  21
HETATM   21  C           1     -21.985  -4.179  -7.115  0.00  0.00     0.045 C 
BRANCH  21  22
HETATM   22  C           1     -23.421  -4.433  -7.555  0.00  0.00     0.105 C 
BRANCH  22  23
HETATM   23  C           1     -23.598  -3.979  -8.983  0.00  0.00     0.215 C 
HETATM   24  N           1     -24.833  -4.033  -9.570  0.00  0.00    -0.370 N 
HETATM   25  H           1     -25.627  -4.377  -9.047  0.00  0.00     0.159 HD
HETATM   26  H           1     -24.951  -3.729 -10.529  0.00  0.00     0.159 HD
HETATM   27  O           1     -22.649  -3.568  -9.608  0.00  0.00    -0.274 OA
ENDBRANCH  22  23
ENDBRANCH  21  22
ENDBRANCH  17  21
ENDBRANCH   2  17
TORSDOF 11
ENDMDL
MODEL 7
REMARK VINA RESULT:      -5.6     25.626     26.688
REMARK  11 active torsions:
REMARK  status: ('A' for Active; 'I' for Inactive)
REMARK    1  A    between atoms: C_1  and  C_2 
REMARK    2  A    between atoms: C_1  and  O_27 
REMARK    3  A    between atoms: C_2  and  C_3 
REMARK    4  A    between atoms: C_2  and  N_22 
REMARK       I    between atoms: C_3  and  N_4 
REMARK    5  A    between atoms: N_4  and  C_8 
REMARK    6  A    between atoms: C_7  and  C_8 
REMARK    7  A    between atoms: C_8  and  C_9 
REMARK    8  A    between atoms: C_9  and  C_10 
REMARK    9  A    between atoms: C_10  and  C_12 
REMARK       I    between atoms: N_11  and  C_12 
REMARK   10  A    between atoms: O_25  and  P_26 
REMARK   11  A    between atoms: P_26  and  O_27 
ROOT
HETATM    1  C           1     -13.477   7.039 -22.576  0.00  0.00     0.251 C 
HETATM    2  N           1     -13.062   5.912 -21.918  0.00  0.00    -0.345 N 
HETATM    3  H           1     -12.091   5.812 -21.649  0.00  0.00     0.163 HD
HETATM    4  O           1     -14.635   7.157 -22.899  0.00  0.00    -0.271 OA
ENDROOT
BRANCH   1   5
HETATM    5  C           1     -12.489   8.132 -22.897  0.00  0.00     0.298 C 
BRANCH   5   6
HETATM    6  C           1     -11.104   7.727 -22.408  0.00  0.00     0.224 C 
BRANCH   6   7
HETATM    7  O           1     -10.735   8.538 -21.325  0.00  0.00    -0.287 OA
BRANCH   7   8
HETATM    8  P           1     -10.396   7.768 -19.947  0.00  0.00     0.406 P 
HETATM    9  O           1     -10.036   8.757 -18.906  0.00  0.00    -0.624 OA
HETATM   10  O           1      -9.261   6.843 -20.165  0.00  0.00    -0.624 OA
BRANCH   8  11
HETATM   11  O           1     -11.690   6.928 -19.466  0.00  0.00    -0.300 OA
HETATM   12  H           1     -11.416   6.026 -19.485  0.00  0.00     0.223 HD
ENDBRANCH   8  11
ENDBRANCH   7   8
ENDBRANCH   6   7
ENDBRANCH   5   6
BRANCH   5  13
HETATM   13  N           1     -12.907   9.401 -22.215  0.00  0.00    -0.064 N 
HETATM   14  H           1     -12.058   9.944 -21.938  0.00  0.00     0.275 HD
HETATM   15  H           1     -13.467   9.170 -21.364  0.00  0.00     0.275 HD
HETATM   16  H           1     -13.489   9.973 -22.869  0.00  0.00     0.275 HD
ENDBRANCH   5  13
ENDBRANCH   1   5
BRANCH   2  17
HETATM   17  C           1     -14.011   4.860 -21.610  0.00  0.00     0.186 C 
BRANCH  17  18
HETATM   18  C           1     -14.387   4.936 -20.150  0.00  0.00     0.196 C 
HETATM   19  O           1     -13.571   4.573 -19.276  0.00  0.00    -0.646 OA
HETATM   20  O           1     -15.514   5.361 -19.816  0.00  0.00    -0.646 OA
ENDBRANCH  17  18
BRANCH  17  21
HETATM   21  C           1     -13.381   3.505 -21.903  0.00  0.00     0.045 C 
BRANCH  21  22
HETATM   22  C           1     -11.885   3.679 -22.134  0.00  0.00     0.105 C 
BRANCH  22  23
HETATM   23  C           1     -11.127   3.161 -20.937  0.00  0.00     0.215 C 
HETATM   24  N           1     -10.710   4.028 -19.964  0.00  0.00    -0.370 N 
HETATM   25  H           1     -10.910   5.016 -20.047  0.00  0.00     0.159 HD
HETATM   26  H           1     -10.201   3.680 -19.160  0.00  0.00     0.159 HD
HETATM   27  O           1     -10.888   1.981 -20.837  0.00  0.00    -0.274 OA
ENDBRANCH  22  23
ENDBRANCH  21  22
ENDBRANCH  17  21
ENDBRANCH   2  17
TORSDOF 11
ENDMDL
MODEL 8
REMARK VINA RESULT:      -5.5     14.691     16.537
REMARK  11 active torsions:
REMARK  status: ('A' for Active; 'I' for Inactive)
REMARK    1  A    between atoms: C_1  and  C_2 
REMARK    2  A    between atoms: C_1  and  O_27 
REMARK    3  A    between atoms: C_2  and  C_3 
REMARK    4  A    between atoms: C_2  and  N_22 
REMARK       I    between atoms: C_3  and  N_4 
REMARK    5  A    between atoms: N_4  and  C_8 
REMARK    6  A    between atoms: C_7  and  C_8 
REMARK    7  A    between atoms: C_8  and  C_9 
REMARK    8  A    between atoms: C_9  and  C_10 
REMARK    9  A    between atoms: C_10  and  C_12 
REMARK       I    between atoms: N_11  and  C_12 
REMARK   10  A    between atoms: O_25  and  P_26 
REMARK   11  A    between atoms: P_26  and  O_27 
ROOT
HETATM    1  C           1     -20.906  -7.722  -4.739  0.00  0.00     0.251 C 
HETATM    2  N           1     -21.472  -8.155  -3.570  0.00  0.00    -0.345 N 
HETATM    3  H           1     -22.442  -7.943  -3.369  0.00  0.00     0.163 HD
HETATM    4  O           1     -19.749  -7.974  -4.979  0.00  0.00    -0.271 OA
ENDROOT
BRANCH   1   5
HETATM    5  C           1     -21.726  -6.929  -5.727  0.00  0.00     0.298 C 
BRANCH   5   6
HETATM    6  C           1     -20.824  -5.948  -6.464  0.00  0.00     0.224 C 
BRANCH   6   7
HETATM    7  O           1     -21.370  -5.669  -7.725  0.00  0.00    -0.287 OA
BRANCH   7   8
HETATM    8  P           1     -22.060  -4.219  -7.894  0.00  0.00     0.406 P 
HETATM    9  O           1     -22.035  -3.824  -9.320  0.00  0.00    -0.624 OA
HETATM   10  O           1     -21.317  -3.223  -7.091  0.00  0.00    -0.624 OA
BRANCH   8  11
HETATM   11  O           1     -23.591  -4.288  -7.382  0.00  0.00    -0.300 OA
HETATM   12  H           1     -23.790  -3.416  -7.087  0.00  0.00     0.223 HD
ENDBRANCH   8  11
ENDBRANCH   7   8
ENDBRANCH   6   7
ENDBRANCH   5   6
BRANCH   5  13
HETATM   13  N           1     -22.795  -6.173  -4.996  0.00  0.00    -0.064 N 
HETATM   14  H           1     -23.685  -6.722  -5.014  0.00  0.00     0.275 HD
HETATM   15  H           1     -22.947  -5.249  -5.459  0.00  0.00     0.275 HD
HETATM   16  H           1     -22.501  -6.021  -4.005  0.00  0.00     0.275 HD
ENDBRANCH   5  13
ENDBRANCH   1   5
BRANCH   2  17
HETATM   17  C           1     -20.685  -8.916  -2.621  0.00  0.00     0.186 C 
BRANCH  17  18
HETATM   18  C           1     -21.385 -10.218  -2.317  0.00  0.00     0.196 C 
HETATM   19  O           1     -22.331 -10.602  -3.037  0.00  0.00    -0.646 OA
HETATM   20  O           1     -21.017 -10.914  -1.346  0.00  0.00    -0.646 OA
ENDBRANCH  17  18
BRANCH  17  21
HETATM   21  C           1     -20.524  -8.114  -1.336  0.00  0.00     0.045 C 
BRANCH  21  22
HETATM   22  C           1     -21.850  -7.455  -0.979  0.00  0.00     0.105 C 
BRANCH  22  23
HETATM   23  C           1     -22.307  -7.944   0.374  0.00  0.00     0.215 C 
HETATM   24  N           1     -23.644  -8.058   0.644  0.00  0.00    -0.370 N 
HETATM   25  H           1     -24.326  -7.815  -0.063  0.00  0.00     0.159 HD
HETATM   26  H           1     -23.951  -8.386   1.551  0.00  0.00     0.159 HD
HETATM   27  O           1     -21.493  -8.235   1.218  0.00  0.00    -0.274 OA
ENDBRANCH  22  23
ENDBRANCH  21  22
ENDBRANCH  17  21
ENDBRANCH   2  17
TORSDOF 11
ENDMDL
MODEL 9
REMARK VINA RESULT:      -5.5     14.084     16.278
REMARK  11 active torsions:
REMARK  status: ('A' for Active; 'I' for Inactive)
REMARK    1  A    between atoms: C_1  and  C_2 
REMARK    2  A    between atoms: C_1  and  O_27 
REMARK    3  A    between atoms: C_2  and  C_3 
REMARK    4  A    between atoms: C_2  and  N_22 
REMARK       I    between atoms: C_3  and  N_4 
REMARK    5  A    between atoms: N_4  and  C_8 
REMARK    6  A    between atoms: C_7  and  C_8 
REMARK    7  A    between atoms: C_8  and  C_9 
REMARK    8  A    between atoms: C_9  and  C_10 
REMARK    9  A    between atoms: C_10  and  C_12 
REMARK       I    between atoms: N_11  and  C_12 
REMARK   10  A    between atoms: O_25  and  P_26 
REMARK   11  A    between atoms: P_26  and  O_27 
ROOT
HETATM    1  C           1     -21.220  -6.186  -6.098  0.00  0.00     0.251 C 
HETATM    2  N           1     -21.378  -4.950  -6.664  0.00  0.00    -0.345 N 
HETATM    3  H           1     -21.370  -4.122  -6.081  0.00  0.00     0.163 HD
HETATM    4  O           1     -21.230  -7.174  -6.793  0.00  0.00    -0.271 OA
ENDROOT
BRANCH   1   5
HETATM    5  C           1     -21.034  -6.315  -4.606  0.00  0.00     0.298 C 
BRANCH   5   6
HETATM    6  C           1     -20.495  -7.702  -4.278  0.00  0.00     0.224 C 
BRANCH   6   7
HETATM    7  O           1     -21.489  -8.449  -3.630  0.00  0.00    -0.287 OA
BRANCH   7   8
HETATM    8  P           1     -21.189  -8.840  -2.092  0.00  0.00     0.406 P 
HETATM    9  O           1     -22.221  -9.789  -1.615  0.00  0.00    -0.624 OA
HETATM   10  O           1     -21.217  -7.618  -1.258  0.00  0.00    -0.624 OA
BRANCH   8  11
HETATM   11  O           1     -19.733  -9.532  -1.985  0.00  0.00    -0.300 OA
HETATM   12  H           1     -19.566  -9.607  -1.061  0.00  0.00     0.223 HD
ENDBRANCH   8  11
ENDBRANCH   7   8
ENDBRANCH   6   7
ENDBRANCH   5   6
BRANCH   5  13
HETATM   13  N           1     -22.352  -6.117  -3.919  0.00  0.00    -0.064 N 
HETATM   14  H           1     -22.338  -6.601  -2.992  0.00  0.00     0.275 HD
HETATM   15  H           1     -23.116  -6.516  -4.509  0.00  0.00     0.275 HD
HETATM   16  H           1     -22.521  -5.096  -3.776  0.00  0.00     0.275 HD
ENDBRANCH   5  13
ENDBRANCH   1   5
BRANCH   2  17
HETATM   17  C           1     -21.557  -4.825  -8.096  0.00  0.00     0.186 C 
BRANCH  17  18
HETATM   18  C           1     -20.222  -4.559  -8.749  0.00  0.00     0.196 C 
HETATM   19  O           1     -20.083  -4.728  -9.979  0.00  0.00    -0.646 OA
HETATM   20  O           1     -19.257  -4.167  -8.058  0.00  0.00    -0.646 OA
ENDBRANCH  17  18
BRANCH  17  21
HETATM   21  C           1     -22.506  -3.672  -8.391  0.00  0.00     0.045 C 
BRANCH  21  22
HETATM   22  C           1     -23.833  -4.221  -8.899  0.00  0.00     0.105 C 
BRANCH  22  23
HETATM   23  C           1     -23.950  -3.966 -10.381  0.00  0.00     0.215 C 
HETATM   24  N           1     -23.041  -4.513 -11.244  0.00  0.00    -0.370 N 
HETATM   25  H           1     -22.289  -5.090 -10.888  0.00  0.00     0.159 HD
HETATM   26  H           1     -23.119  -4.342 -12.239  0.00  0.00     0.159 HD
HETATM   27  O           1     -24.847  -3.277 -10.806  0.00  0.00    -0.274 OA
ENDBRANCH  22  23
ENDBRANCH  21  22
ENDBRANCH  17  21
ENDBRANCH   2  17
TORSDOF 11
ENDMDL
