MODEL 1
REMARK VINA RESULT:      -6.6      0.000      0.000
REMARK  10 active torsions:
REMARK  status: ('A' for Active; 'I' for Inactive)
REMARK    1  A    between atoms: N_1  and  C_5 
REMARK       I    between atoms: N_1  and  C_16 
REMARK    2  A    between atoms: C_4  and  C_5 
REMARK    3  A    between atoms: C_5  and  C_6 
REMARK    4  A    between atoms: C_6  and  C_7 
REMARK    5  A    between atoms: C_7  and  C_24 
REMARK    6  A    between atoms: C_13  and  C_16 
REMARK    7  A    between atoms: C_13  and  C_14 
REMARK    8  A    between atoms: C_13  and  N_17 
REMARK    9  A    between atoms: C_14  and  C_15 
REMARK   10  A    between atoms: C_15  and  C_18 
REMARK       I    between atoms: C_24  and  N_25 
ROOT
HETATM    1  N           1     -35.354  -2.091 -12.374  0.00  0.00    -0.345 N 
HETATM    2  O           1     -33.526  -2.219 -11.098  0.00  0.00    -0.271 OA
HETATM    3  C           1     -34.272  -2.766 -11.876  0.00  0.00     0.249 C 
HETATM    4  H           1     -35.978  -2.550 -13.026  0.00  0.00     0.163 HD
ENDROOT
BRANCH   1   5
HETATM    5  C           1     -35.605  -0.723 -11.969  0.00  0.00     0.186 C 
BRANCH   5   6
HETATM    6  C           1     -36.555  -0.713 -10.796  0.00  0.00     0.196 C 
HETATM    7  O           1     -37.747  -1.058 -10.954  0.00  0.00    -0.646 OA
HETATM    8  O           1     -36.152  -0.358  -9.668  0.00  0.00    -0.646 OA
ENDBRANCH   5   6
BRANCH   5   9
HETATM    9  C           1     -36.223   0.045 -13.130  0.00  0.00     0.045 C 
BRANCH   9  10
HETATM   10  C           1     -35.185   0.220 -14.232  0.00  0.00     0.105 C 
BRANCH  10  11
HETATM   11  C           1     -35.574  -0.614 -15.427  0.00  0.00     0.215 C 
HETATM   12  O           1     -35.197  -1.758 -15.513  0.00  0.00    -0.274 OA
HETATM   13  N           1     -36.353  -0.074 -16.415  0.00  0.00    -0.370 N 
HETATM   14  H           1     -36.614  -0.633 -17.216  0.00  0.00     0.159 HD
HETATM   15  H           1     -36.669   0.885 -16.342  0.00  0.00     0.159 HD
ENDBRANCH  10  11
ENDBRANCH   9  10
ENDBRANCH   5   9
ENDBRANCH   1   5
BRANCH   3  16
HETATM   16  C           1     -34.010  -4.191 -12.298  0.00  0.00     0.275 C 
BRANCH  16  17
HETATM   17  C           1     -34.669  -5.143 -11.308  0.00  0.00     0.053 C 
BRANCH  17  18
HETATM   18  C           1     -33.684  -6.237 -10.920  0.00  0.00     0.115 C 
BRANCH  18  19
HETATM   19  C           1     -34.405  -7.316 -10.151  0.00  0.00     0.172 C 
HETATM   20  O           1     -33.950  -8.480 -10.131  0.00  0.00    -0.648 OA
HETATM   21  O           1     -35.458  -7.045  -9.533  0.00  0.00    -0.648 OA
ENDBRANCH  18  19
ENDBRANCH  17  18
ENDBRANCH  16  17
BRANCH  16  22
HETATM   22  N           1     -32.531  -4.441 -12.322  0.00  0.00    -0.066 N 
HETATM   23  H           1     -32.313  -5.289 -11.753  0.00  0.00     0.275 HD
HETATM   24  H           1     -32.221  -4.593 -13.308  0.00  0.00     0.275 HD
HETATM   25  H           1     -32.032  -3.615 -11.923  0.00  0.00     0.275 HD
ENDBRANCH  16  22
ENDBRANCH   3  16
TORSDOF 10
ENDMDL
MODEL 2
REMARK VINA RESULT:      -6.3     13.668     16.719
REMARK  10 active torsions:
REMARK  status: ('A' for Active; 'I' for Inactive)
REMARK    1  A    between atoms: N_1  and  C_5 
REMARK       I    between atoms: N_1  and  C_16 
REMARK    2  A    between atoms: C_4  and  C_5 
REMARK    3  A    between atoms: C_5  and  C_6 
REMARK    4  A    between atoms: C_6  and  C_7 
REMARK    5  A    between atoms: C_7  and  C_24 
REMARK    6  A    between atoms: C_13  and  C_16 
REMARK    7  A    between atoms: C_13  and  C_14 
REMARK    8  A    between atoms: C_13  and  N_17 
REMARK    9  A    between atoms: C_14  and  C_15 
REMARK   10  A    between atoms: C_15  and  C_18 
REMARK       I    between atoms: C_24  and  N_25 
ROOT
HETATM    1  N           1     -21.392  -6.357  -6.227  0.00  0.00    -0.345 N 
HETATM    2  O           1     -20.573  -4.281  -6.171  0.00  0.00    -0.271 OA
HETATM    3  C           1     -21.202  -5.117  -6.774  0.00  0.00     0.249 C 
HETATM    4  H           1     -21.919  -7.058  -6.733  0.00  0.00     0.163 HD
ENDROOT
BRANCH   1   5
HETATM    5  C           1     -20.838  -6.667  -4.924  0.00  0.00     0.186 C 
BRANCH   5   6
HETATM    6  C           1     -19.993  -7.914  -5.021  0.00  0.00     0.196 C 
HETATM    7  O           1     -19.371  -8.168  -6.075  0.00  0.00    -0.646 OA
HETATM    8  O           1     -19.917  -8.693  -4.047  0.00  0.00    -0.646 OA
ENDBRANCH   5   6
BRANCH   5   9
HETATM    9  C           1     -21.971  -6.896  -3.933  0.00  0.00     0.045 C 
BRANCH   9  10
HETATM   10  C           1     -21.686  -6.129  -2.648  0.00  0.00     0.105 C 
BRANCH  10  11
HETATM   11  C           1     -21.870  -7.043  -1.463  0.00  0.00     0.215 C 
HETATM   12  O           1     -22.799  -6.874  -0.709  0.00  0.00    -0.274 OA
HETATM   13  N           1     -20.986  -8.064  -1.242  0.00  0.00    -0.370 N 
HETATM   14  H           1     -21.109  -8.677  -0.447  0.00  0.00     0.159 HD
HETATM   15  H           1     -20.208  -8.205  -1.874  0.00  0.00     0.159 HD
ENDBRANCH  10  11
ENDBRANCH   9  10
ENDBRANCH   5   9
ENDBRANCH   1   5
BRANCH   3  16
HETATM   16  C           1     -21.779  -4.795  -8.131  0.00  0.00     0.275 C 
BRANCH  16  17
HETATM   17  C           1     -20.759  -4.006  -8.943  0.00  0.00     0.053 C 
BRANCH  17  18
HETATM   18  C           1     -20.798  -4.466 -10.394  0.00  0.00     0.115 C 
BRANCH  18  19
HETATM   19  C           1     -21.848  -3.683 -11.143  0.00  0.00     0.172 C 
HETATM   20  O           1     -23.004  -4.142 -11.262  0.00  0.00    -0.648 OA
HETATM   21  O           1     -21.562  -2.573 -11.643  0.00  0.00    -0.648 OA
ENDBRANCH  18  19
ENDBRANCH  17  18
ENDBRANCH  16  17
BRANCH  16  22
HETATM   22  N           1     -23.024  -3.975  -7.962  0.00  0.00    -0.066 N 
HETATM   23  H           1     -23.061  -3.595  -6.990  0.00  0.00     0.275 HD
HETATM   24  H           1     -23.014  -3.184  -8.645  0.00  0.00     0.275 HD
HETATM   25  H           1     -23.862  -4.574  -8.135  0.00  0.00     0.275 HD
ENDBRANCH  16  22
ENDBRANCH   3  16
TORSDOF 10
ENDMDL
MODEL 3
REMARK VINA RESULT:      -6.3     13.220     15.190
REMARK  10 active torsions:
REMARK  status: ('A' for Active; 'I' for Inactive)
REMARK    1  A    between atoms: N_1  and  C_5 
REMARK       I    between atoms: N_1  and  C_16 
REMARK    2  A    between atoms: C_4  and  C_5 
REMARK    3  A    between atoms: C_5  and  C_6 
REMARK    4  A    between atoms: C_6  and  C_7 
REMARK    5  A    between atoms: C_7  and  C_24 
REMARK    6  A    between atoms: C_13  and  C_16 
REMARK    7  A    between atoms: C_13  and  C_14 
REMARK    8  A    between atoms: C_13  and  N_17 
REMARK    9  A    between atoms: C_14  and  C_15 
REMARK   10  A    between atoms: C_15  and  C_18 
REMARK       I    between atoms: C_24  and  N_25 
ROOT
HETATM    1  N           1     -21.850  -5.511  -6.202  0.00  0.00    -0.345 N 
HETATM    2  O           1     -20.920  -7.526  -6.448  0.00  0.00    -0.271 OA
HETATM    3  C           1     -21.551  -6.768  -5.750  0.00  0.00     0.249 C 
HETATM    4  H           1     -22.379  -4.876  -5.617  0.00  0.00     0.163 HD
ENDROOT
BRANCH   1   5
HETATM    5  C           1     -21.408  -5.088  -7.516  0.00  0.00     0.186 C 
BRANCH   5   6
HETATM    6  C           1     -20.076  -4.388  -7.397  0.00  0.00     0.196 C 
HETATM    7  O           1     -19.634  -3.718  -8.355  0.00  0.00    -0.646 OA
HETATM    8  O           1     -19.415  -4.480  -6.340  0.00  0.00    -0.646 OA
ENDBRANCH   5   6
BRANCH   5   9
HETATM    9  C           1     -22.432  -4.133  -8.112  0.00  0.00     0.045 C 
BRANCH   9  10
HETATM   10  C           1     -22.841  -4.625  -9.495  0.00  0.00     0.105 C 
BRANCH  10  11
HETATM   11  C           1     -24.076  -3.887  -9.947  0.00  0.00     0.215 C 
HETATM   12  O           1     -24.443  -3.970 -11.095  0.00  0.00    -0.274 OA
HETATM   13  N           1     -24.782  -3.122  -9.058  0.00  0.00    -0.370 N 
HETATM   14  H           1     -25.610  -2.627  -9.362  0.00  0.00     0.159 HD
HETATM   15  H           1     -24.475  -3.052  -8.096  0.00  0.00     0.159 HD
ENDBRANCH  10  11
ENDBRANCH   9  10
ENDBRANCH   5   9
ENDBRANCH   1   5
BRANCH   3  16
HETATM   16  C           1     -22.012  -7.208  -4.382  0.00  0.00     0.275 C 
BRANCH  16  17
HETATM   17  C           1     -21.252  -6.429  -3.316  0.00  0.00     0.053 C 
BRANCH  17  18
HETATM   18  C           1     -22.195  -6.077  -2.174  0.00  0.00     0.115 C 
BRANCH  18  19
HETATM   19  C           1     -22.108  -7.137  -1.103  0.00  0.00     0.172 C 
HETATM   20  O           1     -23.004  -7.225  -0.236  0.00  0.00    -0.648 OA
HETATM   21  O           1     -21.141  -7.929  -1.085  0.00  0.00    -0.648 OA
ENDBRANCH  18  19
ENDBRANCH  17  18
ENDBRANCH  16  17
BRANCH  16  22
HETATM   22  N           1     -21.745  -8.675  -4.213  0.00  0.00    -0.066 N 
HETATM   23  H           1     -22.325  -9.214  -4.895  0.00  0.00     0.275 HD
HETATM   24  H           1     -20.733  -8.866  -4.387  0.00  0.00     0.275 HD
HETATM   25  H           1     -21.993  -8.964  -3.240  0.00  0.00     0.275 HD
ENDBRANCH  16  22
ENDBRANCH   3  16
TORSDOF 10
ENDMDL
MODEL 4
REMARK VINA RESULT:      -5.8     12.809     15.620
REMARK  10 active torsions:
REMARK  status: ('A' for Active; 'I' for Inactive)
REMARK    1  A    between atoms: N_1  and  C_5 
REMARK       I    between atoms: N_1  and  C_16 
REMARK    2  A    between atoms: C_4  and  C_5 
REMARK    3  A    between atoms: C_5  and  C_6 
REMARK    4  A    between atoms: C_6  and  C_7 
REMARK    5  A    between atoms: C_7  and  C_24 
REMARK    6  A    between atoms: C_13  and  C_16 
REMARK    7  A    between atoms: C_13  and  C_14 
REMARK    8  A    between atoms: C_13  and  N_17 
REMARK    9  A    between atoms: C_14  and  C_15 
REMARK   10  A    between atoms: C_15  and  C_18 
REMARK       I    between atoms: C_24  and  N_25 
ROOT
HETATM    1  N           1     -22.051  -5.145  -6.915  0.00  0.00    -0.345 N 
HETATM    2  O           1     -21.900  -3.139  -7.885  0.00  0.00    -0.271 OA
HETATM    3  C           1     -22.496  -4.185  -7.784  0.00  0.00     0.249 C 
HETATM    4  H           1     -22.551  -6.021  -6.831  0.00  0.00     0.163 HD
ENDROOT
BRANCH   1   5
HETATM    5  C           1     -20.864  -4.907  -6.119  0.00  0.00     0.186 C 
BRANCH   5   6
HETATM    6  C           1     -19.647  -5.383  -6.876  0.00  0.00     0.196 C 
HETATM    7  O           1     -18.796  -4.558  -7.273  0.00  0.00    -0.646 OA
HETATM    8  O           1     -19.493  -6.601  -7.107  0.00  0.00    -0.646 OA
ENDBRANCH   5   6
BRANCH   5   9
HETATM    9  C           1     -20.974  -5.669  -4.805  0.00  0.00     0.045 C 
BRANCH   9  10
HETATM   10  C           1     -22.133  -6.656  -4.886  0.00  0.00     0.105 C 
BRANCH  10  11
HETATM   11  C           1     -21.614  -8.059  -4.702  0.00  0.00     0.215 C 
HETATM   12  O           1     -21.663  -8.584  -3.616  0.00  0.00    -0.274 OA
HETATM   13  N           1     -21.086  -8.739  -5.767  0.00  0.00    -0.370 N 
HETATM   14  H           1     -20.738  -9.681  -5.644  0.00  0.00     0.159 HD
HETATM   15  H           1     -21.045  -8.300  -6.678  0.00  0.00     0.159 HD
ENDBRANCH  10  11
ENDBRANCH   9  10
ENDBRANCH   5   9
ENDBRANCH   1   5
BRANCH   3  16
HETATM   16  C           1     -23.733  -4.432  -8.613  0.00  0.00     0.275 C 
BRANCH  16  17
HETATM   17  C           1     -23.342  -5.124  -9.913  0.00  0.00     0.053 C 
BRANCH  17  18
HETATM   18  C           1     -23.270  -4.097 -11.035  0.00  0.00     0.115 C 
BRANCH  18  19
HETATM   19  C           1     -21.828  -3.745 -11.303  0.00  0.00     0.172 C 
HETATM   20  O           1     -20.934  -4.602 -11.136  0.00  0.00    -0.648 OA
HETATM   21  O           1     -21.527  -2.597 -11.695  0.00  0.00    -0.648 OA
ENDBRANCH  18  19
ENDBRANCH  17  18
ENDBRANCH  16  17
BRANCH  16  22
HETATM   22  N           1     -24.395  -3.123  -8.924  0.00  0.00    -0.066 N 
HETATM   23  H           1     -24.605  -2.619  -8.034  0.00  0.00     0.275 HD
HETATM   24  H           1     -23.757  -2.542  -9.512  0.00  0.00     0.275 HD
HETATM   25  H           1     -25.285  -3.298  -9.443  0.00  0.00     0.275 HD
ENDBRANCH  16  22
ENDBRANCH   3  16
TORSDOF 10
ENDMDL
MODEL 5
REMARK VINA RESULT:      -5.8     12.797     14.796
REMARK  10 active torsions:
REMARK  status: ('A' for Active; 'I' for Inactive)
REMARK    1  A    between atoms: N_1  and  C_5 
REMARK       I    between atoms: N_1  and  C_16 
REMARK    2  A    between atoms: C_4  and  C_5 
REMARK    3  A    between atoms: C_5  and  C_6 
REMARK    4  A    between atoms: C_6  and  C_7 
REMARK    5  A    between atoms: C_7  and  C_24 
REMARK    6  A    between atoms: C_13  and  C_16 
REMARK    7  A    between atoms: C_13  and  C_14 
REMARK    8  A    between atoms: C_13  and  N_17 
REMARK    9  A    between atoms: C_14  and  C_15 
REMARK   10  A    between atoms: C_15  and  C_18 
REMARK       I    between atoms: C_24  and  N_25 
ROOT
HETATM    1  N           1     -21.466  -4.834  -6.885  0.00  0.00    -0.345 N 
HETATM    2  O           1     -21.109  -7.034  -7.028  0.00  0.00    -0.271 OA
HETATM    3  C           1     -21.220  -6.058  -6.324  0.00  0.00     0.249 C 
HETATM    4  H           1     -21.559  -4.017  -6.294  0.00  0.00     0.163 HD
ENDROOT
BRANCH   1   5
HETATM    5  C           1     -21.594  -4.709  -8.323  0.00  0.00     0.186 C 
BRANCH   5   6
HETATM    6  C           1     -20.243  -4.400  -8.922  0.00  0.00     0.196 C 
HETATM    7  O           1     -19.390  -3.778  -8.253  0.00  0.00    -0.646 OA
HETATM    8  O           1     -19.978  -4.766 -10.087  0.00  0.00    -0.646 OA
ENDBRANCH   5   6
BRANCH   5   9
HETATM    9  C           1     -22.563  -3.580  -8.649  0.00  0.00     0.045 C 
BRANCH   9  10
HETATM   10  C           1     -23.937  -4.164  -8.956  0.00  0.00     0.105 C 
BRANCH  10  11
HETATM   11  C           1     -24.221  -4.035 -10.431  0.00  0.00     0.215 C 
HETATM   12  O           1     -25.013  -3.212 -10.824  0.00  0.00    -0.274 OA
HETATM   13  N           1     -23.582  -4.851 -11.326  0.00  0.00    -0.370 N 
HETATM   14  H           1     -23.773  -4.764 -12.315  0.00  0.00     0.159 HD
HETATM   15  H           1     -22.919  -5.540 -10.997  0.00  0.00     0.159 HD
ENDBRANCH  10  11
ENDBRANCH   9  10
ENDBRANCH   5   9
ENDBRANCH   1   5
BRANCH   3  16
HETATM   16  C           1     -21.087  -6.189  -4.826  0.00  0.00     0.275 C 
BRANCH  16  17
HETATM   17  C           1     -20.417  -7.516  -4.490  0.00  0.00     0.053 C 
BRANCH  17  18
HETATM   18  C           1     -21.434  -8.452  -3.851  0.00  0.00     0.115 C 
BRANCH  18  19
HETATM   19  C           1     -21.413  -9.780  -4.566  0.00  0.00     0.172 C 
HETATM   20  O           1     -20.792  -9.901  -5.644  0.00  0.00    -0.648 OA
HETATM   21  O           1     -22.017 -10.762  -4.079  0.00  0.00    -0.648 OA
ENDBRANCH  18  19
ENDBRANCH  17  18
ENDBRANCH  16  17
BRANCH  16  22
HETATM   22  N           1     -22.448  -6.145  -4.198  0.00  0.00    -0.066 N 
HETATM   23  H           1     -22.709  -5.152  -4.002  0.00  0.00     0.275 HD
HETATM   24  H           1     -23.146  -6.565  -4.853  0.00  0.00     0.275 HD
HETATM   25  H           1     -22.438  -6.686  -3.305  0.00  0.00     0.275 HD
ENDBRANCH  16  22
ENDBRANCH   3  16
TORSDOF 10
ENDMDL
MODEL 6
REMARK VINA RESULT:      -5.7     13.629     15.736
REMARK  10 active torsions:
REMARK  status: ('A' for Active; 'I' for Inactive)
REMARK    1  A    between atoms: N_1  and  C_5 
REMARK       I    between atoms: N_1  and  C_16 
REMARK    2  A    between atoms: C_4  and  C_5 
REMARK    3  A    between atoms: C_5  and  C_6 
REMARK    4  A    between atoms: C_6  and  C_7 
REMARK    5  A    between atoms: C_7  and  C_24 
REMARK    6  A    between atoms: C_13  and  C_16 
REMARK    7  A    between atoms: C_13  and  C_14 
REMARK    8  A    between atoms: C_13  and  N_17 
REMARK    9  A    between atoms: C_14  and  C_15 
REMARK   10  A    between atoms: C_15  and  C_18 
REMARK       I    between atoms: C_24  and  N_25 
ROOT
HETATM    1  N           1     -21.136  -5.384  -5.234  0.00  0.00    -0.345 N 
HETATM    2  O           1     -22.204  -7.305  -4.840  0.00  0.00    -0.271 OA
HETATM    3  C           1     -21.573  -6.375  -4.397  0.00  0.00     0.249 C 
HETATM    4  H           1     -20.607  -4.605  -4.862  0.00  0.00     0.163 HD
ENDROOT
BRANCH   1   5
HETATM    5  C           1     -21.429  -5.451  -6.652  0.00  0.00     0.186 C 
BRANCH   5   6
HETATM    6  C           1     -20.163  -5.768  -7.412  0.00  0.00     0.196 C 
HETATM    7  O           1     -19.441  -6.723  -7.052  0.00  0.00    -0.646 OA
HETATM    8  O           1     -19.839  -5.075  -8.399  0.00  0.00    -0.646 OA
ENDBRANCH   5   6
BRANCH   5   9
HETATM    9  C           1     -21.980  -4.111  -7.119  0.00  0.00     0.045 C 
BRANCH   9  10
HETATM   10  C           1     -23.339  -4.321  -7.774  0.00  0.00     0.105 C 
BRANCH  10  11
HETATM   11  C           1     -23.302  -3.803  -9.190  0.00  0.00     0.215 C 
HETATM   12  O           1     -24.242  -3.186  -9.632  0.00  0.00    -0.274 OA
HETATM   13  N           1     -22.204  -4.031  -9.975  0.00  0.00    -0.370 N 
HETATM   14  H           1     -22.179  -3.683 -10.924  0.00  0.00     0.159 HD
HETATM   15  H           1     -21.416  -4.548  -9.604  0.00  0.00     0.159 HD
ENDBRANCH  10  11
ENDBRANCH   9  10
ENDBRANCH   5   9
ENDBRANCH   1   5
BRANCH   3  16
HETATM   16  C           1     -21.268  -6.305  -2.920  0.00  0.00     0.275 C 
BRANCH  16  17
HETATM   17  C           1     -20.858  -7.684  -2.421  0.00  0.00     0.053 C 
BRANCH  17  18
HETATM   18  C           1     -21.445  -7.919  -1.035  0.00  0.00     0.115 C 
BRANCH  18  19
HETATM   19  C           1     -21.997  -9.321  -0.953  0.00  0.00     0.172 C 
HETATM   20  O           1     -22.202  -9.848   0.162  0.00  0.00    -0.648 OA
HETATM   21  O           1     -22.249  -9.956  -2.000  0.00  0.00    -0.648 OA
ENDBRANCH  18  19
ENDBRANCH  17  18
ENDBRANCH  16  17
BRANCH  16  22
HETATM   22  N           1     -22.490  -5.848  -2.179  0.00  0.00    -0.066 N 
HETATM   23  H           1     -22.216  -5.520  -1.226  0.00  0.00     0.275 HD
HETATM   24  H           1     -22.940  -5.064  -2.702  0.00  0.00     0.275 HD
HETATM   25  H           1     -23.163  -6.643  -2.095  0.00  0.00     0.275 HD
ENDBRANCH  16  22
ENDBRANCH   3  16
TORSDOF 10
ENDMDL
MODEL 7
REMARK VINA RESULT:      -5.7     14.047     17.015
REMARK  10 active torsions:
REMARK  status: ('A' for Active; 'I' for Inactive)
REMARK    1  A    between atoms: N_1  and  C_5 
REMARK       I    between atoms: N_1  and  C_16 
REMARK    2  A    between atoms: C_4  and  C_5 
REMARK    3  A    between atoms: C_5  and  C_6 
REMARK    4  A    between atoms: C_6  and  C_7 
REMARK    5  A    between atoms: C_7  and  C_24 
REMARK    6  A    between atoms: C_13  and  C_16 
REMARK    7  A    between atoms: C_13  and  C_14 
REMARK    8  A    between atoms: C_13  and  N_17 
REMARK    9  A    between atoms: C_14  and  C_15 
REMARK   10  A    between atoms: C_15  and  C_18 
REMARK       I    between atoms: C_24  and  N_25 
ROOT
HETATM    1  N           1     -20.829  -6.365  -4.944  0.00  0.00    -0.345 N 
HETATM    2  O           1     -22.651  -5.485  -5.889  0.00  0.00    -0.271 OA
HETATM    3  C           1     -21.447  -5.484  -5.790  0.00  0.00     0.249 C 
HETATM    4  H           1     -19.820  -6.364  -4.862  0.00  0.00     0.163 HD
ENDROOT
BRANCH   1   5
HETATM    5  C           1     -21.619  -7.299  -4.167  0.00  0.00     0.186 C 
BRANCH   5   6
HETATM    6  C           1     -21.646  -6.856  -2.724  0.00  0.00     0.196 C 
HETATM    7  O           1     -20.901  -7.410  -1.886  0.00  0.00    -0.646 OA
HETATM    8  O           1     -22.412  -5.936  -2.368  0.00  0.00    -0.646 OA
ENDBRANCH   5   6
BRANCH   5   9
HETATM    9  C           1     -21.000  -8.687  -4.261  0.00  0.00     0.045 C 
BRANCH   9  10
HETATM   10  C           1     -19.633  -8.590  -4.927  0.00  0.00     0.105 C 
BRANCH  10  11
HETATM   11  C           1     -18.621  -9.358  -4.115  0.00  0.00     0.215 C 
HETATM   12  O           1     -17.882 -10.144  -4.659  0.00  0.00    -0.274 OA
HETATM   13  N           1     -18.540  -9.167  -2.762  0.00  0.00    -0.370 N 
HETATM   14  H           1     -17.861  -9.682  -2.218  0.00  0.00     0.159 HD
HETATM   15  H           1     -19.159  -8.509  -2.306  0.00  0.00     0.159 HD
ENDBRANCH  10  11
ENDBRANCH   9  10
ENDBRANCH   5   9
ENDBRANCH   1   5
BRANCH   3  16
HETATM   16  C           1     -20.623  -4.512  -6.600  0.00  0.00     0.275 C 
BRANCH  16  17
HETATM   17  C           1     -21.549  -3.624  -7.421  0.00  0.00     0.053 C 
BRANCH  17  18
HETATM   18  C           1     -21.510  -4.059  -8.880  0.00  0.00     0.115 C 
BRANCH  18  19
HETATM   19  C           1     -22.829  -3.737  -9.538  0.00  0.00     0.172 C 
HETATM   20  O           1     -22.856  -3.340 -10.722  0.00  0.00    -0.648 OA
HETATM   21  O           1     -23.895  -3.869  -8.898  0.00  0.00    -0.648 OA
ENDBRANCH  18  19
ENDBRANCH  17  18
ENDBRANCH  16  17
BRANCH  16  22
HETATM   22  N           1     -19.715  -5.272  -7.519  0.00  0.00    -0.066 N 
HETATM   23  H           1     -20.053  -5.174  -8.503  0.00  0.00     0.275 HD
HETATM   24  H           1     -18.746  -4.889  -7.444  0.00  0.00     0.275 HD
HETATM   25  H           1     -19.712  -6.281  -7.251  0.00  0.00     0.275 HD
ENDBRANCH  16  22
ENDBRANCH   3  16
TORSDOF 10
ENDMDL
MODEL 8
REMARK VINA RESULT:      -5.6     14.418     17.186
REMARK  10 active torsions:
REMARK  status: ('A' for Active; 'I' for Inactive)
REMARK    1  A    between atoms: N_1  and  C_5 
REMARK       I    between atoms: N_1  and  C_16 
REMARK    2  A    between atoms: C_4  and  C_5 
REMARK    3  A    between atoms: C_5  and  C_6 
REMARK    4  A    between atoms: C_6  and  C_7 
REMARK    5  A    between atoms: C_7  and  C_24 
REMARK    6  A    between atoms: C_13  and  C_16 
REMARK    7  A    between atoms: C_13  and  C_14 
REMARK    8  A    between atoms: C_13  and  N_17 
REMARK    9  A    between atoms: C_14  and  C_15 
REMARK   10  A    between atoms: C_15  and  C_18 
REMARK       I    between atoms: C_24  and  N_25 
ROOT
HETATM    1  N           1     -21.526  -7.912  -4.858  0.00  0.00    -0.345 N 
HETATM    2  O           1     -19.675  -7.363  -5.980  0.00  0.00    -0.271 OA
HETATM    3  C           1     -20.833  -7.121  -5.735  0.00  0.00     0.249 C 
HETATM    4  H           1     -22.497  -7.709  -4.653  0.00  0.00     0.163 HD
ENDROOT
BRANCH   1   5
HETATM    5  C           1     -20.871  -9.040  -4.226  0.00  0.00     0.186 C 
BRANCH   5   6
HETATM    6  C           1     -21.336 -10.320  -4.876  0.00  0.00     0.196 C 
HETATM    7  O           1     -22.066 -11.114  -4.243  0.00  0.00    -0.646 OA
HETATM    8  O           1     -20.989 -10.587  -6.046  0.00  0.00    -0.646 OA
ENDBRANCH   5   6
BRANCH   5   9
HETATM    9  C           1     -21.224  -9.065  -2.745  0.00  0.00     0.045 C 
BRANCH   9  10
HETATM   10  C           1     -20.746  -7.777  -2.086  0.00  0.00     0.105 C 
BRANCH  10  11
HETATM   11  C           1     -21.934  -6.910  -1.751  0.00  0.00     0.215 C 
HETATM   12  O           1     -22.314  -6.076  -2.538  0.00  0.00    -0.274 OA
HETATM   13  N           1     -22.582  -7.069  -0.556  0.00  0.00    -0.370 N 
HETATM   14  H           1     -23.379  -6.488  -0.331  0.00  0.00     0.159 HD
HETATM   15  H           1     -22.263  -7.768   0.103  0.00  0.00     0.159 HD
ENDBRANCH  10  11
ENDBRANCH   9  10
ENDBRANCH   5   9
ENDBRANCH   1   5
BRANCH   3  16
HETATM   16  C           1     -21.516  -5.947  -6.394  0.00  0.00     0.275 C 
BRANCH  16  17
HETATM   17  C           1     -20.577  -4.747  -6.392  0.00  0.00     0.053 C 
BRANCH  17  18
HETATM   18  C           1     -21.165  -3.639  -7.255  0.00  0.00     0.115 C 
BRANCH  18  19
HETATM   19  C           1     -21.267  -4.114  -8.683  0.00  0.00     0.172 C 
HETATM   20  O           1     -22.384  -4.186  -9.240  0.00  0.00    -0.648 OA
HETATM   21  O           1     -20.234  -4.433  -9.311  0.00  0.00    -0.648 OA
ENDBRANCH  18  19
ENDBRANCH  17  18
ENDBRANCH  16  17
BRANCH  16  22
HETATM   22  N           1     -22.764  -5.605  -5.635  0.00  0.00    -0.066 N 
HETATM   23  H           1     -23.588  -6.043  -6.106  0.00  0.00     0.275 HD
HETATM   24  H           1     -22.687  -5.968  -4.659  0.00  0.00     0.275 HD
HETATM   25  H           1     -22.885  -4.568  -5.614  0.00  0.00     0.275 HD
ENDBRANCH  16  22
ENDBRANCH   3  16
TORSDOF 10
ENDMDL
MODEL 9
REMARK VINA RESULT:      -5.5     12.327     14.204
REMARK  10 active torsions:
REMARK  status: ('A' for Active; 'I' for Inactive)
REMARK    1  A    between atoms: N_1  and  C_5 
REMARK       I    between atoms: N_1  and  C_16 
REMARK    2  A    between atoms: C_4  and  C_5 
REMARK    3  A    between atoms: C_5  and  C_6 
REMARK    4  A    between atoms: C_6  and  C_7 
REMARK    5  A    between atoms: C_7  and  C_24 
REMARK    6  A    between atoms: C_13  and  C_16 
REMARK    7  A    between atoms: C_13  and  C_14 
REMARK    8  A    between atoms: C_13  and  N_17 
REMARK    9  A    between atoms: C_14  and  C_15 
REMARK   10  A    between atoms: C_15  and  C_18 
REMARK       I    between atoms: C_24  and  N_25 
ROOT
HETATM    1  N           1     -21.308  -3.989  -9.323  0.00  0.00    -0.345 N 
HETATM    2  O           1     -20.129  -5.797  -8.751  0.00  0.00    -0.271 OA
HETATM    3  C           1     -20.562  -4.715  -8.434  0.00  0.00     0.249 C 
HETATM    4  H           1     -21.670  -3.082  -9.056  0.00  0.00     0.163 HD
ENDROOT
BRANCH   1   5
HETATM    5  C           1     -21.579  -4.519 -10.645  0.00  0.00     0.186 C 
BRANCH   5   6
HETATM    6  C           1     -21.145  -3.516 -11.686  0.00  0.00     0.196 C 
HETATM    7  O           1     -21.587  -3.597 -12.853  0.00  0.00    -0.646 OA
HETATM    8  O           1     -20.344  -2.607 -11.382  0.00  0.00    -0.646 OA
ENDBRANCH   5   6
BRANCH   5   9
HETATM    9  C           1     -23.071  -4.786 -10.787  0.00  0.00     0.045 C 
BRANCH   9  10
HETATM   10  C           1     -23.829  -3.465 -10.759  0.00  0.00     0.105 C 
BRANCH  10  11
HETATM   11  C           1     -24.787  -3.458  -9.595  0.00  0.00     0.215 C 
HETATM   12  O           1     -25.935  -3.118  -9.759  0.00  0.00    -0.274 OA
HETATM   13  N           1     -24.358  -3.837  -8.352  0.00  0.00    -0.370 N 
HETATM   14  H           1     -25.001  -3.832  -7.571  0.00  0.00     0.159 HD
HETATM   15  H           1     -23.396  -4.122  -8.214  0.00  0.00     0.159 HD
ENDBRANCH  10  11
ENDBRANCH   9  10
ENDBRANCH   5   9
ENDBRANCH   1   5
BRANCH   3  16
HETATM   16  C           1     -20.280  -4.163  -7.058  0.00  0.00     0.275 C 
BRANCH  16  17
HETATM   17  C           1     -20.111  -5.314  -6.074  0.00  0.00     0.053 C 
BRANCH  17  18
HETATM   18  C           1     -21.474  -5.723  -5.531  0.00  0.00     0.115 C 
BRANCH  18  19
HETATM   19  C           1     -21.494  -7.214  -5.295  0.00  0.00     0.172 C 
HETATM   20  O           1     -21.223  -7.998  -6.230  0.00  0.00    -0.648 OA
HETATM   21  O           1     -21.782  -7.664  -4.165  0.00  0.00    -0.648 OA
ENDBRANCH  18  19
ENDBRANCH  17  18
ENDBRANCH  16  17
BRANCH  16  22
HETATM   22  N           1     -21.426  -3.298  -6.622  0.00  0.00    -0.066 N 
HETATM   23  H           1     -21.268  -2.320  -6.953  0.00  0.00     0.275 HD
HETATM   24  H           1     -22.313  -3.666  -7.033  0.00  0.00     0.275 HD
HETATM   25  H           1     -21.493  -3.308  -5.580  0.00  0.00     0.275 HD
ENDBRANCH  16  22
ENDBRANCH   3  16
TORSDOF 10
ENDMDL
