MODEL 1
REMARK VINA RESULT:      -5.8      0.000      0.000
REMARK  8 active torsions:
REMARK  status: ('A' for Active; 'I' for Inactive)
REMARK    1  A    between atoms: N_3  and  C_9 
REMARK       I    between atoms: N_3  and  C_6 
REMARK    2  A    between atoms: C_4  and  C_5 
REMARK    3  A    between atoms: C_4  and  C_13 
REMARK    4  A    between atoms: C_5  and  C_6 
REMARK    5  A    between atoms: C_5  and  N_16 
REMARK    6  A    between atoms: S_7  and  C_8 
REMARK    7  A    between atoms: C_8  and  C_9 
REMARK    8  A    between atoms: C_9  and  C_10 
REMARK       I    between atoms: C_13  and  N_14 
ROOT
HETATM    1  C           1     -33.611  -2.773 -11.243  0.00  0.00     0.283 C 
ENDROOT
BRANCH   1   2
HETATM    2  C           1     -34.157  -4.086 -10.696  0.00  0.00     0.145 C 
BRANCH   2   3
HETATM    3  C           1     -33.341  -5.235 -11.238  0.00  0.00     0.217 C 
HETATM    4  N           1     -32.309  -4.994 -12.105  0.00  0.00    -0.370 N 
HETATM    5  H           1     -31.762  -5.763 -12.467  0.00  0.00     0.159 HD
HETATM    6  H           1     -32.093  -4.044 -12.382  0.00  0.00     0.159 HD
HETATM    7  O           1     -33.599  -6.367 -10.906  0.00  0.00    -0.274 OA
ENDBRANCH   2   3
ENDBRANCH   1   2
BRANCH   1   8
HETATM    8  C           1     -34.455  -2.324 -12.410  0.00  0.00     0.249 C 
HETATM    9  N           1     -35.177  -1.164 -12.326  0.00  0.00    -0.344 N 
HETATM   10  H           1     -35.145  -0.608 -11.481  0.00  0.00     0.163 HD
HETATM   11  O           1     -34.494  -2.988 -13.419  0.00  0.00    -0.271 OA
BRANCH   9  12
HETATM   12  C           1     -35.988  -0.732 -13.447  0.00  0.00     0.194 C 
BRANCH  12  13
HETATM   13  C           1     -37.249  -0.053 -12.930  0.00  0.00     0.106 C 
BRANCH  13  14
HETATM   14  S           1     -37.277  -0.125 -11.116  0.00  0.00    -0.180 SA
HETATM   15  H           1     -38.607  -0.293 -11.003  0.00  0.00     0.101 HD
ENDBRANCH  13  14
ENDBRANCH  12  13
BRANCH  12  16
HETATM   16  C           1     -35.202   0.242 -14.291  0.00  0.00     0.197 C 
HETATM   17  O           1     -34.867   1.349 -13.818  0.00  0.00    -0.646 OA
HETATM   18  O           1     -34.886  -0.060 -15.462  0.00  0.00    -0.646 OA
ENDBRANCH  12  16
ENDBRANCH   9  12
ENDBRANCH   1   8
BRANCH   1  19
HETATM   19  N           1     -33.652  -1.730 -10.166  0.00  0.00    -0.066 N 
HETATM   20  H           1     -34.618  -1.669  -9.774  0.00  0.00     0.275 HD
HETATM   21  H           1     -32.982  -1.989  -9.406  0.00  0.00     0.275 HD
HETATM   22  H           1     -33.381  -0.804 -10.568  0.00  0.00     0.275 HD
ENDBRANCH   1  19
TORSDOF 8
ENDMDL
MODEL 2
REMARK VINA RESULT:      -5.5      2.987      5.841
REMARK  8 active torsions:
REMARK  status: ('A' for Active; 'I' for Inactive)
REMARK    1  A    between atoms: N_3  and  C_9 
REMARK       I    between atoms: N_3  and  C_6 
REMARK    2  A    between atoms: C_4  and  C_5 
REMARK    3  A    between atoms: C_4  and  C_13 
REMARK    4  A    between atoms: C_5  and  C_6 
REMARK    5  A    between atoms: C_5  and  N_16 
REMARK    6  A    between atoms: S_7  and  C_8 
REMARK    7  A    between atoms: C_8  and  C_9 
REMARK    8  A    between atoms: C_9  and  C_10 
REMARK       I    between atoms: C_13  and  N_14 
ROOT
HETATM    1  C           1     -36.083  -0.164 -13.937  0.00  0.00     0.283 C 
ENDROOT
BRANCH   1   2
HETATM    2  C           1     -37.556  -0.161 -14.323  0.00  0.00     0.145 C 
BRANCH   2   3
HETATM    3  C           1     -37.701   0.293 -15.756  0.00  0.00     0.217 C 
HETATM    4  N           1     -37.902   1.617 -16.038  0.00  0.00    -0.370 N 
HETATM    5  H           1     -37.999   1.922 -16.997  0.00  0.00     0.159 HD
HETATM    6  H           1     -37.953   2.293 -15.285  0.00  0.00     0.159 HD
HETATM    7  O           1     -37.641  -0.513 -16.653  0.00  0.00    -0.274 OA
ENDBRANCH   2   3
ENDBRANCH   1   2
BRANCH   1   8
HETATM    8  C           1     -35.854  -1.166 -12.833  0.00  0.00     0.249 C 
HETATM    9  N           1     -34.883  -2.121 -12.968  0.00  0.00    -0.344 N 
HETATM   10  H           1     -34.319  -2.156 -13.808  0.00  0.00     0.163 HD
HETATM   11  O           1     -36.527  -1.125 -11.830  0.00  0.00    -0.271 OA
BRANCH   9  12
HETATM   12  C           1     -34.662  -3.085 -11.907  0.00  0.00     0.194 C 
BRANCH  12  13
HETATM   13  C           1     -34.529  -4.478 -12.506  0.00  0.00     0.106 C 
BRANCH  13  14
HETATM   14  S           1     -34.528  -5.713 -11.175  0.00  0.00    -0.180 SA
HETATM   15  H           1     -35.307  -5.011 -10.332  0.00  0.00     0.101 HD
ENDBRANCH  13  14
ENDBRANCH  12  13
BRANCH  12  16
HETATM   16  C           1     -33.395  -2.733 -11.164  0.00  0.00     0.197 C 
HETATM   17  O           1     -32.324  -3.309 -11.448  0.00  0.00    -0.646 OA
HETATM   18  O           1     -33.420  -1.865 -10.264  0.00  0.00    -0.646 OA
ENDBRANCH  12  16
ENDBRANCH   9  12
ENDBRANCH   1   8
BRANCH   1  19
HETATM   19  N           1     -35.256  -0.537 -15.132  0.00  0.00    -0.066 N 
HETATM   20  H           1     -34.692   0.287 -15.438  0.00  0.00     0.275 HD
HETATM   21  H           1     -34.615  -1.323 -14.878  0.00  0.00     0.275 HD
HETATM   22  H           1     -35.885  -0.837 -15.911  0.00  0.00     0.275 HD
ENDBRANCH   1  19
TORSDOF 8
ENDMDL
MODEL 3
REMARK VINA RESULT:      -5.5     12.386     13.948
REMARK  8 active torsions:
REMARK  status: ('A' for Active; 'I' for Inactive)
REMARK    1  A    between atoms: N_3  and  C_9 
REMARK       I    between atoms: N_3  and  C_6 
REMARK    2  A    between atoms: C_4  and  C_5 
REMARK    3  A    between atoms: C_4  and  C_13 
REMARK    4  A    between atoms: C_5  and  C_6 
REMARK    5  A    between atoms: C_5  and  N_16 
REMARK    6  A    between atoms: S_7  and  C_8 
REMARK    7  A    between atoms: C_8  and  C_9 
REMARK    8  A    between atoms: C_9  and  C_10 
REMARK       I    between atoms: C_13  and  N_14 
ROOT
HETATM    1  C           1     -21.308  -5.777  -6.897  0.00  0.00     0.283 C 
ENDROOT
BRANCH   1   2
HETATM    2  C           1     -21.165  -5.360  -5.439  0.00  0.00     0.145 C 
BRANCH   2   3
HETATM    3  C           1     -21.721  -6.444  -4.547  0.00  0.00     0.217 C 
HETATM    4  N           1     -22.087  -6.152  -3.261  0.00  0.00    -0.370 N 
HETATM    5  H           1     -22.459  -6.878  -2.664  0.00  0.00     0.159 HD
HETATM    6  H           1     -21.985  -5.208  -2.908  0.00  0.00     0.159 HD
HETATM    7  O           1     -21.842  -7.569  -4.970  0.00  0.00    -0.274 OA
ENDBRANCH   2   3
ENDBRANCH   1   2
BRANCH   1   8
HETATM    8  C           1     -21.769  -4.597  -7.716  0.00  0.00     0.249 C 
HETATM    9  N           1     -22.258  -4.791  -8.979  0.00  0.00    -0.344 N 
HETATM   10  H           1     -22.309  -5.726  -9.365  0.00  0.00     0.163 HD
HETATM   11  O           1     -21.707  -3.481  -7.256  0.00  0.00    -0.271 OA
BRANCH   9  12
HETATM   12  C           1     -22.701  -3.658  -9.767  0.00  0.00     0.194 C 
BRANCH  12  13
HETATM   13  C           1     -21.872  -3.569 -11.041  0.00  0.00     0.106 C 
BRANCH  13  14
HETATM   14  S           1     -20.264  -4.367 -10.775  0.00  0.00    -0.180 SA
HETATM   15  H           1     -20.362  -4.438  -9.436  0.00  0.00     0.101 HD
ENDBRANCH  13  14
ENDBRANCH  12  13
BRANCH  12  16
HETATM   16  C           1     -24.157  -3.833 -10.125  0.00  0.00     0.197 C 
HETATM   17  O           1     -24.750  -4.892  -9.829  0.00  0.00    -0.646 OA
HETATM   18  O           1     -24.769  -2.918 -10.718  0.00  0.00    -0.646 OA
ENDBRANCH  12  16
ENDBRANCH   9  12
ENDBRANCH   1   8
BRANCH   1  19
HETATM   19  N           1     -19.982  -6.255  -7.411  0.00  0.00    -0.066 N 
HETATM   20  H           1     -19.392  -5.433  -7.673  0.00  0.00     0.275 HD
HETATM   21  H           1     -19.499  -6.808  -6.666  0.00  0.00     0.275 HD
HETATM   22  H           1     -20.131  -6.858  -8.251  0.00  0.00     0.275 HD
ENDBRANCH   1  19
TORSDOF 8
ENDMDL
MODEL 4
REMARK VINA RESULT:      -5.2     12.472     14.773
REMARK  8 active torsions:
REMARK  status: ('A' for Active; 'I' for Inactive)
REMARK    1  A    between atoms: N_3  and  C_9 
REMARK       I    between atoms: N_3  and  C_6 
REMARK    2  A    between atoms: C_4  and  C_5 
REMARK    3  A    between atoms: C_4  and  C_13 
REMARK    4  A    between atoms: C_5  and  C_6 
REMARK    5  A    between atoms: C_5  and  N_16 
REMARK    6  A    between atoms: S_7  and  C_8 
REMARK    7  A    between atoms: C_8  and  C_9 
REMARK    8  A    between atoms: C_9  and  C_10 
REMARK       I    between atoms: C_13  and  N_14 
ROOT
HETATM    1  C           1     -22.364  -3.601  -8.713  0.00  0.00     0.283 C 
ENDROOT
BRANCH   1   2
HETATM    2  C           1     -23.669  -4.359  -8.917  0.00  0.00     0.145 C 
BRANCH   2   3
HETATM    3  C           1     -24.577  -3.565  -9.825  0.00  0.00     0.217 C 
HETATM    4  N           1     -25.926  -3.543  -9.595  0.00  0.00    -0.370 N 
HETATM    5  H           1     -26.534  -3.011 -10.203  0.00  0.00     0.159 HD
HETATM    6  H           1     -26.315  -4.058  -8.815  0.00  0.00     0.159 HD
HETATM    7  O           1     -24.112  -2.951 -10.755  0.00  0.00    -0.274 OA
ENDBRANCH   2   3
ENDBRANCH   1   2
BRANCH   1   8
HETATM    8  C           1     -21.619  -4.187  -7.539  0.00  0.00     0.249 C 
HETATM    9  N           1     -22.147  -5.250  -6.857  0.00  0.00    -0.344 N 
HETATM   10  H           1     -23.036  -5.642  -7.139  0.00  0.00     0.163 HD
HETATM   11  O           1     -20.558  -3.719  -7.202  0.00  0.00    -0.271 OA
BRANCH   9  12
HETATM   12  C           1     -21.431  -5.814  -5.728  0.00  0.00     0.194 C 
BRANCH  12  13
HETATM   13  C           1     -22.427  -6.255  -4.664  0.00  0.00     0.106 C 
BRANCH  13  14
HETATM   14  S           1     -21.607  -6.296  -3.046  0.00  0.00    -0.180 SA
HETATM   15  H           1     -20.522  -5.596  -3.421  0.00  0.00     0.101 HD
ENDBRANCH  13  14
ENDBRANCH  12  13
BRANCH  12  16
HETATM   16  C           1     -20.626  -7.005  -6.188  0.00  0.00     0.197 C 
HETATM   17  O           1     -19.514  -6.835  -6.733  0.00  0.00    -0.646 OA
HETATM   18  O           1     -21.072  -8.161  -6.026  0.00  0.00    -0.646 OA
ENDBRANCH  12  16
ENDBRANCH   9  12
ENDBRANCH   1   8
BRANCH   1  19
HETATM   19  N           1     -21.522  -3.718  -9.949  0.00  0.00    -0.066 N 
HETATM   20  H           1     -22.120  -3.580 -10.794  0.00  0.00     0.275 HD
HETATM   21  H           1     -20.772  -2.989  -9.929  0.00  0.00     0.275 HD
HETATM   22  H           1     -21.085  -4.667  -9.983  0.00  0.00     0.275 HD
ENDBRANCH   1  19
TORSDOF 8
ENDMDL
MODEL 5
REMARK VINA RESULT:      -5.0     25.447     26.373
REMARK  8 active torsions:
REMARK  status: ('A' for Active; 'I' for Inactive)
REMARK    1  A    between atoms: N_3  and  C_9 
REMARK       I    between atoms: N_3  and  C_6 
REMARK    2  A    between atoms: C_4  and  C_5 
REMARK    3  A    between atoms: C_4  and  C_13 
REMARK    4  A    between atoms: C_5  and  C_6 
REMARK    5  A    between atoms: C_5  and  N_16 
REMARK    6  A    between atoms: S_7  and  C_8 
REMARK    7  A    between atoms: C_8  and  C_9 
REMARK    8  A    between atoms: C_9  and  C_10 
REMARK       I    between atoms: C_13  and  N_14 
ROOT
HETATM    1  C           1     -10.218   6.638 -19.610  0.00  0.00     0.283 C 
ENDROOT
BRANCH   1   2
HETATM    2  C           1      -9.594   7.272 -20.846  0.00  0.00     0.145 C 
BRANCH   2   3
HETATM    3  C           1      -9.436   8.757 -20.624  0.00  0.00     0.217 C 
HETATM    4  N           1      -9.932   9.336 -19.487  0.00  0.00    -0.370 N 
HETATM    5  H           1      -9.826  10.331 -19.338  0.00  0.00     0.159 HD
HETATM    6  H           1     -10.404   8.769 -18.794  0.00  0.00     0.159 HD
HETATM    7  O           1      -8.873   9.434 -21.451  0.00  0.00    -0.274 OA
ENDBRANCH   2   3
ENDBRANCH   1   2
BRANCH   1   8
HETATM    8  C           1     -11.521   5.976 -19.988  0.00  0.00     0.249 C 
HETATM    9  N           1     -11.533   4.970 -20.916  0.00  0.00    -0.344 N 
HETATM   10  H           1     -10.669   4.670 -21.349  0.00  0.00     0.163 HD
HETATM   11  O           1     -12.553   6.335 -19.472  0.00  0.00    -0.271 OA
BRANCH   9  12
HETATM   12  C           1     -12.784   4.334 -21.280  0.00  0.00     0.194 C 
BRANCH  12  13
HETATM   13  C           1     -13.141   4.698 -22.715  0.00  0.00     0.106 C 
BRANCH  13  14
HETATM   14  S           1     -14.751   5.536 -22.746  0.00  0.00    -0.180 SA
HETATM   15  H           1     -14.677   5.933 -24.029  0.00  0.00     0.101 HD
ENDBRANCH  13  14
ENDBRANCH  12  13
BRANCH  12  16
HETATM   16  C           1     -12.639   2.836 -21.161  0.00  0.00     0.197 C 
HETATM   17  O           1     -11.531   2.336 -20.875  0.00  0.00    -0.646 OA
HETATM   18  O           1     -13.629   2.096 -21.350  0.00  0.00    -0.646 OA
ENDBRANCH  12  16
ENDBRANCH   9  12
ENDBRANCH   1   8
BRANCH   1  19
HETATM   19  N           1      -9.280   5.610 -19.049  0.00  0.00    -0.066 N 
HETATM   20  H           1      -9.677   5.221 -18.164  0.00  0.00     0.275 HD
HETATM   21  H           1      -9.153   4.840 -19.744  0.00  0.00     0.275 HD
HETATM   22  H           1      -8.356   6.056 -18.849  0.00  0.00     0.275 HD
ENDBRANCH   1  19
TORSDOF 8
ENDMDL
MODEL 6
REMARK VINA RESULT:      -4.9     13.808     16.289
REMARK  8 active torsions:
REMARK  status: ('A' for Active; 'I' for Inactive)
REMARK    1  A    between atoms: N_3  and  C_9 
REMARK       I    between atoms: N_3  and  C_6 
REMARK    2  A    between atoms: C_4  and  C_5 
REMARK    3  A    between atoms: C_4  and  C_13 
REMARK    4  A    between atoms: C_5  and  C_6 
REMARK    5  A    between atoms: C_5  and  N_16 
REMARK    6  A    between atoms: S_7  and  C_8 
REMARK    7  A    between atoms: C_8  and  C_9 
REMARK    8  A    between atoms: C_9  and  C_10 
REMARK       I    between atoms: C_13  and  N_14 
ROOT
HETATM    1  C           1     -21.166  -4.775  -6.505  0.00  0.00     0.283 C 
ENDROOT
BRANCH   1   2
HETATM    2  C           1     -21.493  -5.172  -7.939  0.00  0.00     0.145 C 
BRANCH   2   3
HETATM    3  C           1     -22.503  -4.207  -8.511  0.00  0.00     0.217 C 
HETATM    4  N           1     -23.738  -4.085  -7.933  0.00  0.00    -0.370 N 
HETATM    5  H           1     -24.415  -3.439  -8.316  0.00  0.00     0.159 HD
HETATM    6  H           1     -23.973  -4.642  -7.120  0.00  0.00     0.159 HD
HETATM    7  O           1     -22.222  -3.544  -9.480  0.00  0.00    -0.274 OA
ENDBRANCH   2   3
ENDBRANCH   1   2
BRANCH   1   8
HETATM    8  C           1     -21.774  -5.776  -5.554  0.00  0.00     0.249 C 
HETATM    9  N           1     -20.965  -6.530  -4.747  0.00  0.00    -0.344 N 
HETATM   10  H           1     -19.960  -6.416  -4.788  0.00  0.00     0.163 HD
HETATM   11  O           1     -22.973  -5.912  -5.505  0.00  0.00    -0.271 OA
BRANCH   9  12
HETATM   12  C           1     -21.548  -7.492  -3.832  0.00  0.00     0.194 C 
BRANCH  12  13
HETATM   13  C           1     -20.717  -8.767  -3.838  0.00  0.00     0.106 C 
BRANCH  13  14
HETATM   14  S           1     -21.817 -10.210  -3.789  0.00  0.00    -0.180 SA
HETATM   15  H           1     -20.880 -11.087  -3.386  0.00  0.00     0.101 HD
ENDBRANCH  13  14
ENDBRANCH  12  13
BRANCH  12  16
HETATM   16  C           1     -21.571  -6.912  -2.439  0.00  0.00     0.197 C 
HETATM   17  O           1     -22.280  -5.913  -2.189  0.00  0.00    -0.646 OA
HETATM   18  O           1     -20.880  -7.430  -1.535  0.00  0.00    -0.646 OA
ENDBRANCH  12  16
ENDBRANCH   9  12
ENDBRANCH   1   8
BRANCH   1  19
HETATM   19  N           1     -19.677  -4.750  -6.322  0.00  0.00    -0.066 N 
HETATM   20  H           1     -19.280  -5.686  -6.562  0.00  0.00     0.275 HD
HETATM   21  H           1     -19.262  -4.024  -6.948  0.00  0.00     0.275 HD
HETATM   22  H           1     -19.453  -4.523  -5.326  0.00  0.00     0.275 HD
ENDBRANCH   1  19
TORSDOF 8
ENDMDL
MODEL 7
REMARK VINA RESULT:      -4.7     26.198     26.871
REMARK  8 active torsions:
REMARK  status: ('A' for Active; 'I' for Inactive)
REMARK    1  A    between atoms: N_3  and  C_9 
REMARK       I    between atoms: N_3  and  C_6 
REMARK    2  A    between atoms: C_4  and  C_5 
REMARK    3  A    between atoms: C_4  and  C_13 
REMARK    4  A    between atoms: C_5  and  C_6 
REMARK    5  A    between atoms: C_5  and  N_16 
REMARK    6  A    between atoms: S_7  and  C_8 
REMARK    7  A    between atoms: C_8  and  C_9 
REMARK    8  A    between atoms: C_9  and  C_10 
REMARK       I    between atoms: C_13  and  N_14 
ROOT
HETATM    1  C           1      -9.955   5.237 -19.425  0.00  0.00     0.283 C 
ENDROOT
BRANCH   1   2
HETATM    2  C           1     -11.436   4.880 -19.444  0.00  0.00     0.145 C 
BRANCH   2   3
HETATM    3  C           1     -11.633   3.587 -20.199  0.00  0.00     0.217 C 
HETATM    4  N           1     -12.768   3.394 -20.940  0.00  0.00    -0.370 N 
HETATM    5  H           1     -12.900   2.528 -21.446  0.00  0.00     0.159 HD
HETATM    6  H           1     -13.474   4.118 -20.983  0.00  0.00     0.159 HD
HETATM    7  O           1     -10.790   2.724 -20.147  0.00  0.00    -0.274 OA
ENDBRANCH   2   3
ENDBRANCH   1   2
BRANCH   1   8
HETATM    8  C           1      -9.690   6.337 -20.423  0.00  0.00     0.249 C 
HETATM    9  N           1     -10.734   7.057 -20.940  0.00  0.00    -0.344 N 
HETATM   10  H           1     -11.682   6.851 -20.654  0.00  0.00     0.163 HD
HETATM   11  O           1      -8.558   6.582 -20.766  0.00  0.00    -0.271 OA
BRANCH   9  12
HETATM   12  C           1     -10.480   8.114 -21.899  0.00  0.00     0.194 C 
BRANCH  12  13
HETATM   13  C           1     -11.627   8.180 -22.898  0.00  0.00     0.106 C 
BRANCH  13  14
HETATM   14  S           1     -12.837   6.881 -22.520  0.00  0.00    -0.180 SA
HETATM   15  H           1     -13.431   6.888 -23.726  0.00  0.00     0.101 HD
ENDBRANCH  13  14
ENDBRANCH  12  13
BRANCH  12  16
HETATM   16  C           1     -10.366   9.434 -21.175  0.00  0.00     0.197 C 
HETATM   17  O           1      -9.264   9.801 -20.715  0.00  0.00    -0.646 OA
HETATM   18  O           1     -11.376  10.157 -21.033  0.00  0.00    -0.646 OA
ENDBRANCH  12  16
ENDBRANCH   9  12
ENDBRANCH   1   8
BRANCH   1  19
HETATM   19  N           1      -9.572   5.704 -18.052  0.00  0.00    -0.066 N 
HETATM   20  H           1      -9.932   5.029 -17.340  0.00  0.00     0.275 HD
HETATM   21  H           1      -8.531   5.762 -17.983  0.00  0.00     0.275 HD
HETATM   22  H           1      -9.987   6.647 -17.878  0.00  0.00     0.275 HD
ENDBRANCH   1  19
TORSDOF 8
ENDMDL
MODEL 8
REMARK VINA RESULT:      -4.7     25.635     26.415
REMARK  8 active torsions:
REMARK  status: ('A' for Active; 'I' for Inactive)
REMARK    1  A    between atoms: N_3  and  C_9 
REMARK       I    between atoms: N_3  and  C_6 
REMARK    2  A    between atoms: C_4  and  C_5 
REMARK    3  A    between atoms: C_4  and  C_13 
REMARK    4  A    between atoms: C_5  and  C_6 
REMARK    5  A    between atoms: C_5  and  N_16 
REMARK    6  A    between atoms: S_7  and  C_8 
REMARK    7  A    between atoms: C_8  and  C_9 
REMARK    8  A    between atoms: C_9  and  C_10 
REMARK       I    between atoms: C_13  and  N_14 
ROOT
HETATM    1  C           1      -9.610   6.205 -20.504  0.00  0.00     0.283 C 
ENDROOT
BRANCH   1   2
HETATM    2  C           1     -10.764   5.379 -21.055  0.00  0.00     0.145 C 
BRANCH   2   3
HETATM    3  C           1     -11.357   4.540 -19.948  0.00  0.00     0.217 C 
HETATM    4  N           1     -11.226   3.178 -19.977  0.00  0.00    -0.370 N 
HETATM    5  H           1     -11.622   2.616 -19.235  0.00  0.00     0.159 HD
HETATM    6  H           1     -10.731   2.733 -20.740  0.00  0.00     0.159 HD
HETATM    7  O           1     -11.947   5.072 -19.039  0.00  0.00    -0.274 OA
ENDBRANCH   2   3
ENDBRANCH   1   2
BRANCH   1   8
HETATM    8  C           1     -10.037   7.647 -20.380  0.00  0.00     0.249 C 
HETATM    9  N           1     -11.368   7.964 -20.332  0.00  0.00    -0.344 N 
HETATM   10  H           1     -12.065   7.232 -20.380  0.00  0.00     0.163 HD
HETATM   11  O           1      -9.205   8.522 -20.324  0.00  0.00    -0.271 OA
BRANCH   9  12
HETATM   12  C           1     -11.779   9.349 -20.213  0.00  0.00     0.194 C 
BRANCH  12  13
HETATM   13  C           1     -12.256   9.856 -21.567  0.00  0.00     0.106 C 
BRANCH  13  14
HETATM   14  S           1     -12.899   8.467 -22.542  0.00  0.00    -0.180 SA
HETATM   15  H           1     -12.181   8.729 -23.649  0.00  0.00     0.101 HD
ENDBRANCH  13  14
ENDBRANCH  12  13
BRANCH  12  16
HETATM   16  C           1     -12.903   9.455 -19.211  0.00  0.00     0.197 C 
HETATM   17  O           1     -13.353   8.425 -18.665  0.00  0.00    -0.646 OA
HETATM   18  O           1     -13.384  10.574 -18.928  0.00  0.00    -0.646 OA
ENDBRANCH  12  16
ENDBRANCH   9  12
ENDBRANCH   1   8
BRANCH   1  19
HETATM   19  N           1      -9.221   5.681 -19.154  0.00  0.00    -0.066 N 
HETATM   20  H           1      -9.111   6.479 -18.487  0.00  0.00     0.275 HD
HETATM   21  H           1      -9.965   5.035 -18.804  0.00  0.00     0.275 HD
HETATM   22  H           1      -8.316   5.163 -19.229  0.00  0.00     0.275 HD
ENDBRANCH   1  19
TORSDOF 8
ENDMDL
MODEL 9
REMARK VINA RESULT:      -4.7     25.564     26.270
REMARK  8 active torsions:
REMARK  status: ('A' for Active; 'I' for Inactive)
REMARK    1  A    between atoms: N_3  and  C_9 
REMARK       I    between atoms: N_3  and  C_6 
REMARK    2  A    between atoms: C_4  and  C_5 
REMARK    3  A    between atoms: C_4  and  C_13 
REMARK    4  A    between atoms: C_5  and  C_6 
REMARK    5  A    between atoms: C_5  and  N_16 
REMARK    6  A    between atoms: S_7  and  C_8 
REMARK    7  A    between atoms: C_8  and  C_9 
REMARK    8  A    between atoms: C_9  and  C_10 
REMARK       I    between atoms: C_13  and  N_14 
ROOT
HETATM    1  C           1     -11.873   4.523 -19.465  0.00  0.00     0.283 C 
ENDROOT
BRANCH   1   2
HETATM    2  C           1     -11.283   3.411 -20.321  0.00  0.00     0.145 C 
BRANCH   2   3
HETATM    3  C           1     -12.037   3.325 -21.627  0.00  0.00     0.217 C 
HETATM    4  N           1     -11.558   3.967 -22.737  0.00  0.00    -0.370 N 
HETATM    5  H           1     -12.062   3.910 -23.612  0.00  0.00     0.159 HD
HETATM    6  H           1     -10.698   4.499 -22.683  0.00  0.00     0.159 HD
HETATM    7  O           1     -13.062   2.691 -21.691  0.00  0.00    -0.274 OA
ENDBRANCH   2   3
ENDBRANCH   1   2
BRANCH   1   8
HETATM    8  C           1     -10.929   5.700 -19.449  0.00  0.00     0.249 C 
HETATM    9  N           1     -11.134   6.753 -20.300  0.00  0.00    -0.344 N 
HETATM   10  H           1     -11.918   6.742 -20.940  0.00  0.00     0.163 HD
HETATM   11  O           1      -9.992   5.713 -18.686  0.00  0.00    -0.271 OA
BRANCH   9  12
HETATM   12  C           1     -10.227   7.884 -20.285  0.00  0.00     0.194 C 
BRANCH  12  13
HETATM   13  C           1     -10.164   8.503 -21.675  0.00  0.00     0.106 C 
BRANCH  13  14
HETATM   14  S           1     -11.412   7.729 -22.741  0.00  0.00    -0.180 SA
HETATM   15  H           1     -10.571   7.434 -23.749  0.00  0.00     0.101 HD
ENDBRANCH  13  14
ENDBRANCH  12  13
BRANCH  12  16
HETATM   16  C           1     -10.723   8.913 -19.297  0.00  0.00     0.197 C 
HETATM   17  O           1     -10.142   9.057 -18.201  0.00  0.00    -0.646 OA
HETATM   18  O           1     -11.716   9.619 -19.577  0.00  0.00    -0.646 OA
ENDBRANCH  12  16
ENDBRANCH   9  12
ENDBRANCH   1   8
BRANCH   1  19
HETATM   19  N           1     -13.192   4.948 -20.040  0.00  0.00    -0.066 N 
HETATM   20  H           1     -13.320   4.513 -20.981  0.00  0.00     0.275 HD
HETATM   21  H           1     -13.963   4.640 -19.405  0.00  0.00     0.275 HD
HETATM   22  H           1     -13.212   5.989 -20.133  0.00  0.00     0.275 HD
ENDBRANCH   1  19
TORSDOF 8
ENDMDL
