MODEL 1
REMARK VINA RESULT:      -7.7      0.000      0.000
REMARK  15 active torsions:
REMARK  status: ('A' for Active; 'I' for Inactive)
REMARK       I    between atoms: C_1  and  N_12 
REMARK    1  A    between atoms: C_1  and  C_6 
REMARK    2  A    between atoms: C_4  and  C_5 
REMARK    3  A    between atoms: C_5  and  C_13 
REMARK    4  A    between atoms: C_6  and  C_17 
REMARK    5  A    between atoms: C_6  and  N_19 
REMARK    6  A    between atoms: C_7  and  C_29 
REMARK    7  A    between atoms: C_7  and  C_8 
REMARK    8  A    between atoms: C_7  and  N_12 
REMARK    9  A    between atoms: C_13  and  C_33 
REMARK   10  A    between atoms: C_13  and  N_31 
REMARK   11  A    between atoms: C_17  and  C_25 
REMARK       I    between atoms: N_20  and  C_22 
REMARK       I    between atoms: N_21  and  C_22 
REMARK   12  A    between atoms: N_23  and  C_24 
REMARK   13  A    between atoms: C_24  and  C_25 
REMARK   14  A    between atoms: C_29  and  C_30 
REMARK   15  A    between atoms: C_30  and  N_31 
ROOT
HETATM    1  C           1     -20.857  -7.468  -5.826  0.00  0.00     0.249 C 
HETATM    2  N           1     -21.396  -8.551  -5.184  0.00  0.00    -0.345 N 
HETATM    3  O           1     -19.681  -7.451  -6.098  0.00  0.00    -0.271 OA
HETATM    4  H           1     -22.382  -8.565  -4.956  0.00  0.00     0.163 HD
ENDROOT
BRANCH   2   5
HETATM    5  C           1     -20.555  -9.677  -4.831  0.00  0.00     0.187 C 
BRANCH   5   6
HETATM    6  C           1     -20.774 -10.034  -3.367  0.00  0.00     0.066 C 
BRANCH   6   7
HETATM    7  C           1     -19.582  -9.558  -2.544  0.00  0.00     0.273 C 
BRANCH   7   8
HETATM    8  N           1     -19.877  -8.273  -1.971  0.00  0.00     0.098 N 
HETATM    9  H           1     -19.785  -7.552  -2.688  0.00  0.00     0.317 HD
BRANCH   8  10
HETATM   10  C           1     -21.235  -8.306  -1.497  0.00  0.00     0.324 C 
BRANCH  10  11
HETATM   11  C           1     -21.248  -8.709  -0.028  0.00  0.00     0.085 C 
BRANCH  11  12
HETATM   12  C           1     -21.985 -10.004   0.127  0.00  0.00    -0.056 A 
HETATM   13  C           1     -21.331 -11.121   0.647  0.00  0.00     0.007 A 
HETATM   14  C           1     -22.019 -12.327   0.790  0.00  0.00     0.001 A 
HETATM   15  C           1     -23.359 -12.414   0.415  0.00  0.00     0.000 A 
HETATM   16  C           1     -24.012 -11.298  -0.105  0.00  0.00     0.001 A 
HETATM   17  C           1     -23.325 -10.092  -0.248  0.00  0.00     0.007 A 
ENDBRANCH  11  12
ENDBRANCH  10  11
BRANCH  10  18
HETATM   18  C           1     -21.853  -6.938  -1.649  0.00  0.00     0.207 C 
HETATM   19  O           1     -22.759  -6.571  -0.871  0.00  0.00    -0.646 OA
HETATM   20  O           1     -21.459  -6.172  -2.555  0.00  0.00    -0.646 OA
ENDBRANCH  10  18
ENDBRANCH   8  10
ENDBRANCH   7   8
ENDBRANCH   6   7
ENDBRANCH   5   6
BRANCH   5  21
HETATM   21  C           1     -20.911 -10.861  -5.696  0.00  0.00     0.196 C 
HETATM   22  O           1     -20.224 -11.127  -6.706  0.00  0.00    -0.646 OA
HETATM   23  O           1     -21.895 -11.576  -5.404  0.00  0.00    -0.646 OA
ENDBRANCH   5  21
ENDBRANCH   2   5
BRANCH   1  24
HETATM   24  C           1     -21.733  -6.295  -6.193  0.00  0.00     0.274 C 
BRANCH  24  25
HETATM   25  C           1     -20.869  -5.056  -6.387  0.00  0.00     0.044 C 
BRANCH  25  26
HETATM   26  C           1     -21.698  -3.956  -7.040  0.00  0.00     0.023 C 
BRANCH  26  27
HETATM   27  C           1     -22.360  -4.499  -8.298  0.00  0.00     0.138 C 
BRANCH  27  28
HETATM   28  N           1     -23.698  -3.906  -8.444  0.00  0.00    -0.227 N 
HETATM   29  C           1     -24.327  -4.022  -9.537  0.00  0.00     0.665 C 
HETATM   30  N           1     -23.790  -4.666 -10.530  0.00  0.00    -0.235 N 
HETATM   31  N           1     -25.478  -3.512  -9.661  0.00  0.00    -0.235 N 
HETATM   32  H           1     -24.309  -4.762 -11.432  0.00  0.00     0.174 HD
HETATM   33  H           1     -22.839  -5.088 -10.427  0.00  0.00     0.174 HD
HETATM   34  H           1     -26.000  -3.608 -10.567  0.00  0.00     0.174 HD
HETATM   35  H           1     -25.913  -2.992  -8.859  0.00  0.00     0.174 HD
HETATM   36  H           1     -24.132  -3.386  -7.641  0.00  0.00     0.177 HD
ENDBRANCH  27  28
ENDBRANCH  26  27
ENDBRANCH  25  26
ENDBRANCH  24  25
BRANCH  24  37
HETATM   37  N           1     -22.722  -6.047  -5.094  0.00  0.00    -0.067 N 
HETATM   38  H           1     -23.656  -5.828  -5.508  0.00  0.00     0.275 HD
HETATM   39  H           1     -22.402  -5.240  -4.511  0.00  0.00     0.275 HD
HETATM   40  H           1     -22.799  -6.900  -4.495  0.00  0.00     0.275 HD
ENDBRANCH  24  37
ENDBRANCH   1  24
TORSDOF 15
ENDMDL
MODEL 2
REMARK VINA RESULT:      -7.1     14.089     17.778
REMARK  15 active torsions:
REMARK  status: ('A' for Active; 'I' for Inactive)
REMARK       I    between atoms: C_1  and  N_12 
REMARK    1  A    between atoms: C_1  and  C_6 
REMARK    2  A    between atoms: C_4  and  C_5 
REMARK    3  A    between atoms: C_5  and  C_13 
REMARK    4  A    between atoms: C_6  and  C_17 
REMARK    5  A    between atoms: C_6  and  N_19 
REMARK    6  A    between atoms: C_7  and  C_29 
REMARK    7  A    between atoms: C_7  and  C_8 
REMARK    8  A    between atoms: C_7  and  N_12 
REMARK    9  A    between atoms: C_13  and  C_33 
REMARK   10  A    between atoms: C_13  and  N_31 
REMARK   11  A    between atoms: C_17  and  C_25 
REMARK       I    between atoms: N_20  and  C_22 
REMARK       I    between atoms: N_21  and  C_22 
REMARK   12  A    between atoms: N_23  and  C_24 
REMARK   13  A    between atoms: C_24  and  C_25 
REMARK   14  A    between atoms: C_29  and  C_30 
REMARK   15  A    between atoms: C_30  and  N_31 
ROOT
HETATM    1  C           1     -31.262  -4.092 -17.200  0.00  0.00     0.249 C 
HETATM    2  N           1     -32.433  -4.507 -16.624  0.00  0.00    -0.345 N 
HETATM    3  O           1     -31.003  -2.914 -17.261  0.00  0.00    -0.271 OA
HETATM    4  H           1     -32.650  -5.495 -16.573  0.00  0.00     0.163 HD
ENDROOT
BRANCH   2   5
HETATM    5  C           1     -33.362  -3.533 -16.087  0.00  0.00     0.187 C 
BRANCH   5   6
HETATM    6  C           1     -34.150  -2.902 -17.228  0.00  0.00     0.066 C 
BRANCH   6   7
HETATM    7  C           1     -35.297  -2.077 -16.657  0.00  0.00     0.273 C 
BRANCH   7   8
HETATM    8  N           1     -34.773  -0.889 -16.039  0.00  0.00     0.098 N 
HETATM    9  H           1     -34.585  -0.187 -16.755  0.00  0.00     0.317 HD
BRANCH   8  10
HETATM   10  C           1     -35.771  -0.392 -15.130  0.00  0.00     0.324 C 
BRANCH  10  11
HETATM   11  C           1     -35.090   0.302 -13.958  0.00  0.00     0.085 C 
BRANCH  11  12
HETATM   12  C           1     -35.555  -0.314 -12.675  0.00  0.00    -0.056 A 
HETATM   13  C           1     -34.723  -1.192 -11.981  0.00  0.00     0.007 A 
HETATM   14  C           1     -35.157  -1.766 -10.786  0.00  0.00     0.001 A 
HETATM   15  C           1     -36.423  -1.461 -10.285  0.00  0.00     0.000 A 
HETATM   16  C           1     -37.254  -0.583 -10.979  0.00  0.00     0.001 A 
HETATM   17  C           1     -36.820  -0.009 -12.174  0.00  0.00     0.007 A 
ENDBRANCH  11  12
ENDBRANCH  10  11
BRANCH  10  18
HETATM   18  C           1     -36.659   0.592 -15.851  0.00  0.00     0.207 C 
HETATM   19  O           1     -37.834   0.281 -16.139  0.00  0.00    -0.646 OA
HETATM   20  O           1     -36.218   1.720 -16.162  0.00  0.00    -0.646 OA
ENDBRANCH  10  18
ENDBRANCH   8  10
ENDBRANCH   7   8
ENDBRANCH   6   7
ENDBRANCH   5   6
BRANCH   5  21
HETATM   21  C           1     -34.313  -4.217 -15.136  0.00  0.00     0.196 C 
HETATM   22  O           1     -34.369  -3.857 -13.941  0.00  0.00    -0.646 OA
HETATM   23  O           1     -35.046  -5.145 -15.544  0.00  0.00    -0.646 OA
ENDBRANCH   5  21
ENDBRANCH   2   5
BRANCH   1  24
HETATM   24  C           1     -30.295  -5.107 -17.759  0.00  0.00     0.274 C 
BRANCH  24  25
HETATM   25  C           1     -29.482  -5.715 -16.625  0.00  0.00     0.044 C 
BRANCH  25  26
HETATM   26  C           1     -28.312  -6.501 -17.202  0.00  0.00     0.023 C 
BRANCH  26  27
HETATM   27  C           1     -27.004  -5.921 -16.680  0.00  0.00     0.138 C 
BRANCH  27  28
HETATM   28  N           1     -25.875  -6.693 -17.220  0.00  0.00    -0.227 N 
HETATM   29  C           1     -24.899  -6.994 -16.471  0.00  0.00     0.665 C 
HETATM   30  N           1     -24.895  -6.621 -15.226  0.00  0.00    -0.235 N 
HETATM   31  N           1     -23.927  -7.658 -16.936  0.00  0.00    -0.235 N 
HETATM   32  H           1     -24.089  -6.869 -14.609  0.00  0.00     0.174 HD
HETATM   33  H           1     -25.698  -6.072 -14.842  0.00  0.00     0.174 HD
HETATM   34  H           1     -23.118  -7.908 -16.316  0.00  0.00     0.174 HD
HETATM   35  H           1     -23.930  -7.960 -17.942  0.00  0.00     0.174 HD
HETATM   36  H           1     -25.879  -6.994 -18.226  0.00  0.00     0.177 HD
ENDBRANCH  27  28
ENDBRANCH  26  27
ENDBRANCH  25  26
ENDBRANCH  24  25
BRANCH  24  37
HETATM   37  N           1     -29.370  -4.433 -18.730  0.00  0.00    -0.067 N 
HETATM   38  H           1     -28.782  -5.153 -19.208  0.00  0.00     0.275 HD
HETATM   39  H           1     -28.753  -3.764 -18.217  0.00  0.00     0.275 HD
HETATM   40  H           1     -29.932  -3.914 -19.442  0.00  0.00     0.275 HD
ENDBRANCH  24  37
ENDBRANCH   1  24
TORSDOF 15
ENDMDL
MODEL 3
REMARK VINA RESULT:      -6.9      2.157      3.009
REMARK  15 active torsions:
REMARK  status: ('A' for Active; 'I' for Inactive)
REMARK       I    between atoms: C_1  and  N_12 
REMARK    1  A    between atoms: C_1  and  C_6 
REMARK    2  A    between atoms: C_4  and  C_5 
REMARK    3  A    between atoms: C_5  and  C_13 
REMARK    4  A    between atoms: C_6  and  C_17 
REMARK    5  A    between atoms: C_6  and  N_19 
REMARK    6  A    between atoms: C_7  and  C_29 
REMARK    7  A    between atoms: C_7  and  C_8 
REMARK    8  A    between atoms: C_7  and  N_12 
REMARK    9  A    between atoms: C_13  and  C_33 
REMARK   10  A    between atoms: C_13  and  N_31 
REMARK   11  A    between atoms: C_17  and  C_25 
REMARK       I    between atoms: N_20  and  C_22 
REMARK       I    between atoms: N_21  and  C_22 
REMARK   12  A    between atoms: N_23  and  C_24 
REMARK   13  A    between atoms: C_24  and  C_25 
REMARK   14  A    between atoms: C_29  and  C_30 
REMARK   15  A    between atoms: C_30  and  N_31 
ROOT
HETATM    1  C           1     -20.165  -7.105  -5.749  0.00  0.00     0.249 C 
HETATM    2  N           1     -20.171  -8.121  -4.832  0.00  0.00    -0.345 N 
HETATM    3  O           1     -19.397  -7.135  -6.680  0.00  0.00    -0.271 OA
HETATM    4  H           1     -20.815  -8.095  -4.051  0.00  0.00     0.163 HD
ENDROOT
BRANCH   2   5
HETATM    5  C           1     -19.255  -9.234  -4.978  0.00  0.00     0.187 C 
BRANCH   5   6
HETATM    6  C           1     -18.601  -9.533  -3.635  0.00  0.00     0.066 C 
BRANCH   6   7
HETATM    7  C           1     -19.672  -9.610  -2.554  0.00  0.00     0.273 C 
BRANCH   7   8
HETATM    8  N           1     -19.793 -10.966  -2.093  0.00  0.00     0.098 N 
HETATM    9  H           1     -19.210 -11.575  -2.669  0.00  0.00     0.317 HD
BRANCH   8  10
HETATM   10  C           1     -19.330 -11.008  -0.732  0.00  0.00     0.324 C 
BRANCH  10  11
HETATM   11  C           1     -20.469 -11.451   0.178  0.00  0.00     0.085 C 
BRANCH  11  12
HETATM   12  C           1     -21.423 -10.315   0.372  0.00  0.00    -0.056 A 
HETATM   13  C           1     -22.746 -10.433  -0.055  0.00  0.00     0.007 A 
HETATM   14  C           1     -23.634  -9.373   0.126  0.00  0.00     0.001 A 
HETATM   15  C           1     -23.200  -8.195   0.735  0.00  0.00     0.000 A 
HETATM   16  C           1     -21.878  -8.077   1.160  0.00  0.00     0.001 A 
HETATM   17  C           1     -20.990  -9.136   0.980  0.00  0.00     0.007 A 
ENDBRANCH  11  12
ENDBRANCH  10  11
BRANCH  10  18
HETATM   18  C           1     -18.187 -11.987  -0.621  0.00  0.00     0.207 C 
HETATM   19  O           1     -17.051 -11.672  -1.037  0.00  0.00    -0.646 OA
HETATM   20  O           1     -18.376 -13.113  -0.113  0.00  0.00    -0.646 OA
ENDBRANCH  10  18
ENDBRANCH   8  10
ENDBRANCH   7   8
ENDBRANCH   6   7
ENDBRANCH   5   6
BRANCH   5  21
HETATM   21  C           1     -20.014 -10.451  -5.450  0.00  0.00     0.196 C 
HETATM   22  O           1     -21.123 -10.317  -6.008  0.00  0.00    -0.646 OA
HETATM   23  O           1     -19.532 -11.593  -5.281  0.00  0.00    -0.646 OA
ENDBRANCH   5  21
ENDBRANCH   2   5
BRANCH   1  24
HETATM   24  C           1     -21.119  -5.945  -5.596  0.00  0.00     0.274 C 
BRANCH  24  25
HETATM   25  C           1     -20.390  -4.643  -5.898  0.00  0.00     0.044 C 
BRANCH  25  26
HETATM   26  C           1     -21.192  -3.834  -6.910  0.00  0.00     0.023 C 
BRANCH  26  27
HETATM   27  C           1     -22.161  -4.754  -7.641  0.00  0.00     0.138 C 
BRANCH  27  28
HETATM   28  N           1     -23.427  -4.043  -7.879  0.00  0.00    -0.227 N 
HETATM   29  C           1     -23.842  -3.869  -9.062  0.00  0.00     0.665 C 
HETATM   30  N           1     -23.150  -4.318 -10.067  0.00  0.00    -0.235 N 
HETATM   31  N           1     -24.931  -3.258  -9.267  0.00  0.00    -0.235 N 
HETATM   32  H           1     -23.492  -4.173 -11.044  0.00  0.00     0.174 HD
HETATM   33  H           1     -22.250  -4.822  -9.898  0.00  0.00     0.174 HD
HETATM   34  H           1     -25.276  -3.113 -10.248  0.00  0.00     0.174 HD
HETATM   35  H           1     -25.491  -2.895  -8.456  0.00  0.00     0.174 HD
HETATM   36  H           1     -23.986  -3.682  -7.067  0.00  0.00     0.177 HD
ENDBRANCH  27  28
ENDBRANCH  26  27
ENDBRANCH  25  26
ENDBRANCH  24  25
BRANCH  24  37
HETATM   37  N           1     -21.643  -5.910  -4.191  0.00  0.00    -0.067 N 
HETATM   38  H           1     -21.057  -5.262  -3.618  0.00  0.00     0.275 HD
HETATM   39  H           1     -21.603  -6.870  -3.780  0.00  0.00     0.275 HD
HETATM   40  H           1     -22.632  -5.574  -4.196  0.00  0.00     0.275 HD
ENDBRANCH  24  37
ENDBRANCH   1  24
TORSDOF 15
ENDMDL
MODEL 4
REMARK VINA RESULT:      -6.9      3.136      7.780
REMARK  15 active torsions:
REMARK  status: ('A' for Active; 'I' for Inactive)
REMARK       I    between atoms: C_1  and  N_12 
REMARK    1  A    between atoms: C_1  and  C_6 
REMARK    2  A    between atoms: C_4  and  C_5 
REMARK    3  A    between atoms: C_5  and  C_13 
REMARK    4  A    between atoms: C_6  and  C_17 
REMARK    5  A    between atoms: C_6  and  N_19 
REMARK    6  A    between atoms: C_7  and  C_29 
REMARK    7  A    between atoms: C_7  and  C_8 
REMARK    8  A    between atoms: C_7  and  N_12 
REMARK    9  A    between atoms: C_13  and  C_33 
REMARK   10  A    between atoms: C_13  and  N_31 
REMARK   11  A    between atoms: C_17  and  C_25 
REMARK       I    between atoms: N_20  and  C_22 
REMARK       I    between atoms: N_21  and  C_22 
REMARK   12  A    between atoms: N_23  and  C_24 
REMARK   13  A    between atoms: C_24  and  C_25 
REMARK   14  A    between atoms: C_29  and  C_30 
REMARK   15  A    between atoms: C_30  and  N_31 
ROOT
HETATM    1  C           1     -20.912  -9.824  -1.973  0.00  0.00     0.249 C 
HETATM    2  N           1     -21.794  -8.780  -1.889  0.00  0.00    -0.345 N 
HETATM    3  O           1     -19.952  -9.864  -1.242  0.00  0.00    -0.271 OA
HETATM    4  H           1     -22.599  -8.748  -2.503  0.00  0.00     0.163 HD
ENDROOT
BRANCH   2   5
HETATM    5  C           1     -21.576  -7.723  -0.923  0.00  0.00     0.187 C 
BRANCH   5   6
HETATM    6  C           1     -22.231  -6.440  -1.419  0.00  0.00     0.066 C 
BRANCH   6   7
HETATM    7  C           1     -22.317  -6.468  -2.940  0.00  0.00     0.273 C 
BRANCH   7   8
HETATM    8  N           1     -21.207  -5.742  -3.497  0.00  0.00     0.098 N 
HETATM    9  H           1     -20.336  -6.090  -3.095  0.00  0.00     0.317 HD
BRANCH   8  10
HETATM   10  C           1     -21.204  -5.970  -4.917  0.00  0.00     0.324 C 
BRANCH  10  11
HETATM   11  C           1     -20.222  -5.015  -5.582  0.00  0.00     0.085 C 
BRANCH  11  12
HETATM   12  C           1     -20.706  -4.681  -6.959  0.00  0.00    -0.056 A 
HETATM   13  C           1     -19.812  -4.676  -8.031  0.00  0.00     0.007 A 
HETATM   14  C           1     -20.264  -4.363  -9.313  0.00  0.00     0.001 A 
HETATM   15  C           1     -21.609  -4.058  -9.524  0.00  0.00     0.000 A 
HETATM   16  C           1     -22.501  -4.063  -8.452  0.00  0.00     0.001 A 
HETATM   17  C           1     -22.050  -4.375  -7.171  0.00  0.00     0.007 A 
ENDBRANCH  11  12
ENDBRANCH  10  11
BRANCH  10  18
HETATM   18  C           1     -20.788  -7.394  -5.195  0.00  0.00     0.207 C 
HETATM   19  O           1     -19.886  -7.926  -4.514  0.00  0.00    -0.646 OA
HETATM   20  O           1     -21.346  -8.041  -6.107  0.00  0.00    -0.646 OA
ENDBRANCH  10  18
ENDBRANCH   8  10
ENDBRANCH   7   8
ENDBRANCH   6   7
ENDBRANCH   5   6
BRANCH   5  21
HETATM   21  C           1     -22.183  -8.119   0.401  0.00  0.00     0.196 C 
HETATM   22  O           1     -21.444  -8.365   1.378  0.00  0.00    -0.646 OA
HETATM   23  O           1     -23.425  -8.202   0.520  0.00  0.00    -0.646 OA
ENDBRANCH   5  21
ENDBRANCH   2   5
BRANCH   1  24
HETATM   24  C           1     -21.139 -10.926  -2.980  0.00  0.00     0.274 C 
BRANCH  24  25
HETATM   25  C           1     -19.806 -11.347  -3.582  0.00  0.00     0.044 C 
BRANCH  25  26
HETATM   26  C           1     -20.054 -12.161  -4.846  0.00  0.00     0.023 C 
BRANCH  26  27
HETATM   27  C           1     -19.382 -11.477  -6.030  0.00  0.00     0.138 C 
BRANCH  27  28
HETATM   28  N           1     -17.934 -11.388  -5.789  0.00  0.00    -0.227 N 
HETATM   29  C           1     -17.323 -10.301  -6.002  0.00  0.00     0.665 C 
HETATM   30  N           1     -17.974  -9.262  -6.435  0.00  0.00    -0.235 N 
HETATM   31  N           1     -16.077 -10.225  -5.794  0.00  0.00    -0.235 N 
HETATM   32  H           1     -17.469  -8.365  -6.611  0.00  0.00     0.174 HD
HETATM   33  H           1     -19.003  -9.325  -6.607  0.00  0.00     0.174 HD
HETATM   34  H           1     -15.569  -9.323  -5.971  0.00  0.00     0.174 HD
HETATM   35  H           1     -15.549 -11.063  -5.445  0.00  0.00     0.174 HD
HETATM   36  H           1     -17.409 -12.227  -5.439  0.00  0.00     0.177 HD
ENDBRANCH  27  28
ENDBRANCH  26  27
ENDBRANCH  25  26
ENDBRANCH  24  25
BRANCH  24  37
HETATM   37  N           1     -22.044 -10.429  -4.068  0.00  0.00    -0.067 N 
HETATM   38  H           1     -21.718 -10.801  -4.988  0.00  0.00     0.275 HD
HETATM   39  H           1     -22.025  -9.384  -4.088  0.00  0.00     0.275 HD
HETATM   40  H           1     -23.020 -10.757  -3.885  0.00  0.00     0.275 HD
ENDBRANCH  24  37
ENDBRANCH   1  24
TORSDOF 15
ENDMDL
MODEL 5
REMARK VINA RESULT:      -6.8      1.492      3.644
REMARK  15 active torsions:
REMARK  status: ('A' for Active; 'I' for Inactive)
REMARK       I    between atoms: C_1  and  N_12 
REMARK    1  A    between atoms: C_1  and  C_6 
REMARK    2  A    between atoms: C_4  and  C_5 
REMARK    3  A    between atoms: C_5  and  C_13 
REMARK    4  A    between atoms: C_6  and  C_17 
REMARK    5  A    between atoms: C_6  and  N_19 
REMARK    6  A    between atoms: C_7  and  C_29 
REMARK    7  A    between atoms: C_7  and  C_8 
REMARK    8  A    between atoms: C_7  and  N_12 
REMARK    9  A    between atoms: C_13  and  C_33 
REMARK   10  A    between atoms: C_13  and  N_31 
REMARK   11  A    between atoms: C_17  and  C_25 
REMARK       I    between atoms: N_20  and  C_22 
REMARK       I    between atoms: N_21  and  C_22 
REMARK   12  A    between atoms: N_23  and  C_24 
REMARK   13  A    between atoms: C_24  and  C_25 
REMARK   14  A    between atoms: C_29  and  C_30 
REMARK   15  A    between atoms: C_30  and  N_31 
ROOT
HETATM    1  C           1     -21.132  -6.725  -4.892  0.00  0.00     0.249 C 
HETATM    2  N           1     -20.940  -6.627  -3.540  0.00  0.00    -0.345 N 
HETATM    3  O           1     -21.537  -7.756  -5.372  0.00  0.00    -0.271 OA
HETATM    4  H           1     -20.601  -5.762  -3.139  0.00  0.00     0.163 HD
ENDROOT
BRANCH   2   5
HETATM    5  C           1     -21.223  -7.761  -2.684  0.00  0.00     0.187 C 
BRANCH   5   6
HETATM    6  C           1     -19.925  -8.487  -2.358  0.00  0.00     0.066 C 
BRANCH   6   7
HETATM    7  C           1     -20.079  -9.971  -2.671  0.00  0.00     0.273 C 
BRANCH   7   8
HETATM    8  N           1     -20.538 -10.131  -4.024  0.00  0.00     0.098 N 
HETATM    9  H           1     -19.737 -10.274  -4.640  0.00  0.00     0.317 HD
BRANCH   8  10
HETATM   10  C           1     -21.386 -11.292  -4.064  0.00  0.00     0.324 C 
BRANCH  10  11
HETATM   11  C           1     -22.791 -10.909  -3.615  0.00  0.00     0.085 C 
BRANCH  11  12
HETATM   12  C           1     -23.078 -11.536  -2.287  0.00  0.00    -0.056 A 
HETATM   13  C           1     -23.515 -10.746  -1.222  0.00  0.00     0.007 A 
HETATM   14  C           1     -23.782 -11.331   0.016  0.00  0.00     0.001 A 
HETATM   15  C           1     -23.614 -12.705   0.189  0.00  0.00     0.000 A 
HETATM   16  C           1     -23.177 -13.494  -0.875  0.00  0.00     0.001 A 
HETATM   17  C           1     -22.911 -12.909  -2.113  0.00  0.00     0.007 A 
ENDBRANCH  11  12
ENDBRANCH  10  11
BRANCH  10  18
HETATM   18  C           1     -21.436 -11.828  -5.473  0.00  0.00     0.207 C 
HETATM   19  O           1     -21.832 -12.994  -5.685  0.00  0.00    -0.646 OA
HETATM   20  O           1     -21.081 -11.105  -6.429  0.00  0.00    -0.646 OA
ENDBRANCH  10  18
ENDBRANCH   8  10
ENDBRANCH   7   8
ENDBRANCH   6   7
ENDBRANCH   5   6
BRANCH   5  21
HETATM   21  C           1     -21.865  -7.279  -1.406  0.00  0.00     0.196 C 
HETATM   22  O           1     -21.606  -7.847  -0.324  0.00  0.00    -0.646 OA
HETATM   23  O           1     -22.656  -6.311  -1.430  0.00  0.00    -0.646 OA
ENDBRANCH   5  21
ENDBRANCH   2   5
BRANCH   1  24
HETATM   24  C           1     -20.837  -5.543  -5.784  0.00  0.00     0.274 C 
BRANCH  24  25
HETATM   25  C           1     -22.110  -5.116  -6.501  0.00  0.00     0.044 C 
BRANCH  25  26
HETATM   26  C           1     -21.825  -3.885  -7.353  0.00  0.00     0.023 C 
BRANCH  26  27
HETATM   27  C           1     -22.452  -4.064  -8.729  0.00  0.00     0.138 C 
BRANCH  27  28
HETATM   28  N           1     -23.879  -3.711  -8.669  0.00  0.00    -0.227 N 
HETATM   29  C           1     -24.600  -3.813  -9.704  0.00  0.00     0.665 C 
HETATM   30  N           1     -24.081  -4.230 -10.820  0.00  0.00    -0.235 N 
HETATM   31  N           1     -25.828  -3.510  -9.651  0.00  0.00    -0.235 N 
HETATM   32  H           1     -24.676  -4.314 -11.674  0.00  0.00     0.174 HD
HETATM   33  H           1     -23.067  -4.480 -10.863  0.00  0.00     0.174 HD
HETATM   34  H           1     -26.427  -3.595 -10.509  0.00  0.00     0.174 HD
HETATM   35  H           1     -26.248  -3.173  -8.749  0.00  0.00     0.174 HD
HETATM   36  H           1     -24.298  -3.375  -7.766  0.00  0.00     0.177 HD
ENDBRANCH  27  28
ENDBRANCH  26  27
ENDBRANCH  25  26
ENDBRANCH  24  25
BRANCH  24  37
HETATM   37  N           1     -19.799  -5.928  -6.796  0.00  0.00    -0.067 N 
HETATM   38  H           1     -19.320  -6.804  -6.488  0.00  0.00     0.275 HD
HETATM   39  H           1     -19.096  -5.160  -6.885  0.00  0.00     0.275 HD
HETATM   40  H           1     -20.258  -6.089  -7.721  0.00  0.00     0.275 HD
ENDBRANCH  24  37
ENDBRANCH   1  24
TORSDOF 15
ENDMDL
MODEL 6
REMARK VINA RESULT:      -6.7      2.522      8.690
REMARK  15 active torsions:
REMARK  status: ('A' for Active; 'I' for Inactive)
REMARK       I    between atoms: C_1  and  N_12 
REMARK    1  A    between atoms: C_1  and  C_6 
REMARK    2  A    between atoms: C_4  and  C_5 
REMARK    3  A    between atoms: C_5  and  C_13 
REMARK    4  A    between atoms: C_6  and  C_17 
REMARK    5  A    between atoms: C_6  and  N_19 
REMARK    6  A    between atoms: C_7  and  C_29 
REMARK    7  A    between atoms: C_7  and  C_8 
REMARK    8  A    between atoms: C_7  and  N_12 
REMARK    9  A    between atoms: C_13  and  C_33 
REMARK   10  A    between atoms: C_13  and  N_31 
REMARK   11  A    between atoms: C_17  and  C_25 
REMARK       I    between atoms: N_20  and  C_22 
REMARK       I    between atoms: N_21  and  C_22 
REMARK   12  A    between atoms: N_23  and  C_24 
REMARK   13  A    between atoms: C_24  and  C_25 
REMARK   14  A    between atoms: C_29  and  C_30 
REMARK   15  A    between atoms: C_30  and  N_31 
ROOT
HETATM    1  C           1     -19.723  -9.214  -2.977  0.00  0.00     0.249 C 
HETATM    2  N           1     -20.919  -8.555  -2.887  0.00  0.00    -0.345 N 
HETATM    3  O           1     -18.835  -8.963  -2.198  0.00  0.00    -0.271 OA
HETATM    4  H           1     -21.663  -8.765  -3.540  0.00  0.00     0.163 HD
ENDROOT
BRANCH   2   5
HETATM    5  C           1     -21.121  -7.556  -1.856  0.00  0.00     0.187 C 
BRANCH   5   6
HETATM    6  C           1     -21.885  -6.374  -2.438  0.00  0.00     0.066 C 
BRANCH   6   7
HETATM    7  C           1     -21.332  -6.041  -3.818  0.00  0.00     0.273 C 
BRANCH   7   8
HETATM    8  N           1     -22.410  -6.002  -4.770  0.00  0.00     0.098 N 
HETATM    9  H           1     -22.908  -5.116  -4.684  0.00  0.00     0.317 HD
BRANCH   8  10
HETATM   10  C           1     -21.835  -6.103  -6.085  0.00  0.00     0.324 C 
BRANCH  10  11
HETATM   11  C           1     -21.044  -4.838  -6.390  0.00  0.00     0.085 C 
BRANCH  11  12
HETATM   12  C           1     -21.245  -4.458  -7.824  0.00  0.00    -0.056 A 
HETATM   13  C           1     -20.167  -4.479  -8.710  0.00  0.00     0.007 A 
HETATM   14  C           1     -20.356  -4.124 -10.046  0.00  0.00     0.001 A 
HETATM   15  C           1     -21.623  -3.750 -10.496  0.00  0.00     0.000 A 
HETATM   16  C           1     -22.699  -3.730  -9.611  0.00  0.00     0.001 A 
HETATM   17  C           1     -22.511  -4.084  -8.276  0.00  0.00     0.007 A 
ENDBRANCH  11  12
ENDBRANCH  10  11
BRANCH  10  18
HETATM   18  C           1     -20.915  -7.298  -6.139  0.00  0.00     0.207 C 
HETATM   19  O           1     -19.688  -7.135  -6.314  0.00  0.00    -0.646 OA
HETATM   20  O           1     -21.380  -8.451  -6.011  0.00  0.00    -0.646 OA
ENDBRANCH  10  18
ENDBRANCH   8  10
ENDBRANCH   7   8
ENDBRANCH   6   7
ENDBRANCH   5   6
BRANCH   5  21
HETATM   21  C           1     -21.913  -8.159  -0.721  0.00  0.00     0.196 C 
HETATM   22  O           1     -22.597  -9.187  -0.913  0.00  0.00    -0.646 OA
HETATM   23  O           1     -21.886  -7.628   0.411  0.00  0.00    -0.646 OA
ENDBRANCH   5  21
ENDBRANCH   2   5
BRANCH   1  24
HETATM   24  C           1     -19.513 -10.253  -4.051  0.00  0.00     0.274 C 
BRANCH  24  25
HETATM   25  C           1     -18.913 -11.509  -3.433  0.00  0.00     0.044 C 
BRANCH  25  26
HETATM   26  C           1     -20.006 -12.299  -2.725  0.00  0.00     0.023 C 
BRANCH  26  27
HETATM   27  C           1     -19.543 -12.659  -1.320  0.00  0.00     0.138 C 
BRANCH  27  28
HETATM   28  N           1     -19.624 -11.471  -0.456  0.00  0.00    -0.227 N 
HETATM   29  C           1     -20.464 -11.432   0.489  0.00  0.00     0.665 C 
HETATM   30  N           1     -21.256 -12.441   0.698  0.00  0.00    -0.235 N 
HETATM   31  N           1     -20.533 -10.409   1.232  0.00  0.00    -0.235 N 
HETATM   32  H           1     -21.950 -12.409   1.478  0.00  0.00     0.174 HD
HETATM   33  H           1     -21.199 -13.286   0.084  0.00  0.00     0.174 HD
HETATM   34  H           1     -21.230 -10.376   2.017  0.00  0.00     0.174 HD
HETATM   35  H           1     -19.894  -9.593   1.064  0.00  0.00     0.174 HD
HETATM   36  H           1     -18.984 -10.655  -0.625  0.00  0.00     0.177 HD
ENDBRANCH  27  28
ENDBRANCH  26  27
ENDBRANCH  25  26
ENDBRANCH  24  25
BRANCH  24  37
HETATM   37  N           1     -18.578  -9.714  -5.093  0.00  0.00    -0.067 N 
HETATM   38  H           1     -18.169 -10.506  -5.638  0.00  0.00     0.275 HD
HETATM   39  H           1     -17.810  -9.178  -4.629  0.00  0.00     0.275 HD
HETATM   40  H           1     -19.104  -9.082  -5.738  0.00  0.00     0.275 HD
ENDBRANCH  24  37
ENDBRANCH   1  24
TORSDOF 15
ENDMDL
MODEL 7
REMARK VINA RESULT:      -6.6      2.781      8.643
REMARK  15 active torsions:
REMARK  status: ('A' for Active; 'I' for Inactive)
REMARK       I    between atoms: C_1  and  N_12 
REMARK    1  A    between atoms: C_1  and  C_6 
REMARK    2  A    between atoms: C_4  and  C_5 
REMARK    3  A    between atoms: C_5  and  C_13 
REMARK    4  A    between atoms: C_6  and  C_17 
REMARK    5  A    between atoms: C_6  and  N_19 
REMARK    6  A    between atoms: C_7  and  C_29 
REMARK    7  A    between atoms: C_7  and  C_8 
REMARK    8  A    between atoms: C_7  and  N_12 
REMARK    9  A    between atoms: C_13  and  C_33 
REMARK   10  A    between atoms: C_13  and  N_31 
REMARK   11  A    between atoms: C_17  and  C_25 
REMARK       I    between atoms: N_20  and  C_22 
REMARK       I    between atoms: N_21  and  C_22 
REMARK   12  A    between atoms: N_23  and  C_24 
REMARK   13  A    between atoms: C_24  and  C_25 
REMARK   14  A    between atoms: C_29  and  C_30 
REMARK   15  A    between atoms: C_30  and  N_31 
ROOT
HETATM    1  C           1     -19.869  -9.202  -3.149  0.00  0.00     0.249 C 
HETATM    2  N           1     -21.039  -8.494  -3.078  0.00  0.00    -0.345 N 
HETATM    3  O           1     -18.946  -8.916  -2.424  0.00  0.00    -0.271 OA
HETATM    4  H           1     -21.812  -8.733  -3.686  0.00  0.00     0.163 HD
ENDROOT
BRANCH   2   5
HETATM    5  C           1     -21.170  -7.403  -2.134  0.00  0.00     0.187 C 
BRANCH   5   6
HETATM    6  C           1     -21.847  -6.221  -2.816  0.00  0.00     0.066 C 
BRANCH   6   7
HETATM    7  C           1     -21.212  -5.991  -4.183  0.00  0.00     0.273 C 
BRANCH   7   8
HETATM    8  N           1     -22.224  -5.579  -5.119  0.00  0.00     0.098 N 
HETATM    9  H           1     -22.417  -4.585  -4.996  0.00  0.00     0.317 HD
BRANCH   8  10
HETATM   10  C           1     -21.712  -5.808  -6.443  0.00  0.00     0.324 C 
BRANCH  10  11
HETATM   11  C           1     -20.893  -4.601  -6.885  0.00  0.00     0.085 C 
BRANCH  11  12
HETATM   12  C           1     -21.151  -4.328  -8.335  0.00  0.00    -0.056 A 
HETATM   13  C           1     -22.401  -3.866  -8.747  0.00  0.00     0.007 A 
HETATM   14  C           1     -22.640  -3.613 -10.098  0.00  0.00     0.001 A 
HETATM   15  C           1     -21.629  -3.820 -11.036  0.00  0.00     0.000 A 
HETATM   16  C           1     -20.380  -4.283 -10.624  0.00  0.00     0.001 A 
HETATM   17  C           1     -20.140  -4.536  -9.274  0.00  0.00     0.007 A 
ENDBRANCH  11  12
ENDBRANCH  10  11
BRANCH  10  18
HETATM   18  C           1     -20.835  -7.035  -6.437  0.00  0.00     0.207 C 
HETATM   19  O           1     -21.337  -8.162  -6.236  0.00  0.00    -0.646 OA
HETATM   20  O           1     -19.605  -6.926  -6.631  0.00  0.00    -0.646 OA
ENDBRANCH  10  18
ENDBRANCH   8  10
ENDBRANCH   7   8
ENDBRANCH   6   7
ENDBRANCH   5   6
BRANCH   5  21
HETATM   21  C           1     -22.005  -7.852  -0.960  0.00  0.00     0.196 C 
HETATM   22  O           1     -21.820  -8.980  -0.456  0.00  0.00    -0.646 OA
HETATM   23  O           1     -22.883  -7.095  -0.491  0.00  0.00    -0.646 OA
ENDBRANCH   5  21
ENDBRANCH   2   5
BRANCH   1  24
HETATM   24  C           1     -19.732 -10.338  -4.132  0.00  0.00     0.274 C 
BRANCH  24  25
HETATM   25  C           1     -18.683  -9.984  -5.177  0.00  0.00     0.044 C 
BRANCH  25  26
HETATM   26  C           1     -17.777 -11.185  -5.417  0.00  0.00     0.023 C 
BRANCH  26  27
HETATM   27  C           1     -16.378 -10.876  -4.902  0.00  0.00     0.138 C 
BRANCH  27  28
HETATM   28  N           1     -16.213 -11.444  -3.556  0.00  0.00    -0.227 N 
HETATM   29  C           1     -16.031 -10.678  -2.564  0.00  0.00     0.665 C 
HETATM   30  N           1     -15.991  -9.391  -2.735  0.00  0.00    -0.235 N 
HETATM   31  N           1     -15.890 -11.168  -1.405  0.00  0.00    -0.235 N 
HETATM   32  H           1     -15.841  -8.759  -1.916  0.00  0.00     0.174 HD
HETATM   33  H           1     -16.108  -8.986  -3.692  0.00  0.00     0.174 HD
HETATM   34  H           1     -15.739 -10.534  -0.582  0.00  0.00     0.174 HD
HETATM   35  H           1     -15.922 -12.208  -1.266  0.00  0.00     0.174 HD
HETATM   36  H           1     -16.246 -12.484  -3.418  0.00  0.00     0.177 HD
ENDBRANCH  27  28
ENDBRANCH  26  27
ENDBRANCH  25  26
ENDBRANCH  24  25
BRANCH  24  37
HETATM   37  N           1     -21.050 -10.576  -4.808  0.00  0.00    -0.067 N 
HETATM   38  H           1     -21.073 -10.061  -5.717  0.00  0.00     0.275 HD
HETATM   39  H           1     -21.824 -10.233  -4.194  0.00  0.00     0.275 HD
HETATM   40  H           1     -21.171 -11.599  -4.983  0.00  0.00     0.275 HD
ENDBRANCH  24  37
ENDBRANCH   1  24
TORSDOF 15
ENDMDL
MODEL 8
REMARK VINA RESULT:      -6.6      2.086      3.321
REMARK  15 active torsions:
REMARK  status: ('A' for Active; 'I' for Inactive)
REMARK       I    between atoms: C_1  and  N_12 
REMARK    1  A    between atoms: C_1  and  C_6 
REMARK    2  A    between atoms: C_4  and  C_5 
REMARK    3  A    between atoms: C_5  and  C_13 
REMARK    4  A    between atoms: C_6  and  C_17 
REMARK    5  A    between atoms: C_6  and  N_19 
REMARK    6  A    between atoms: C_7  and  C_29 
REMARK    7  A    between atoms: C_7  and  C_8 
REMARK    8  A    between atoms: C_7  and  N_12 
REMARK    9  A    between atoms: C_13  and  C_33 
REMARK   10  A    between atoms: C_13  and  N_31 
REMARK   11  A    between atoms: C_17  and  C_25 
REMARK       I    between atoms: N_20  and  C_22 
REMARK       I    between atoms: N_21  and  C_22 
REMARK   12  A    between atoms: N_23  and  C_24 
REMARK   13  A    between atoms: C_24  and  C_25 
REMARK   14  A    between atoms: C_29  and  C_30 
REMARK   15  A    between atoms: C_30  and  N_31 
ROOT
HETATM    1  C           1     -20.646  -6.882  -5.090  0.00  0.00     0.249 C 
HETATM    2  N           1     -20.048  -8.093  -5.313  0.00  0.00    -0.345 N 
HETATM    3  O           1     -21.255  -6.688  -4.065  0.00  0.00    -0.271 OA
HETATM    4  H           1     -19.538  -8.255  -6.172  0.00  0.00     0.163 HD
ENDROOT
BRANCH   2   5
HETATM    5  C           1     -20.146  -9.144  -4.320  0.00  0.00     0.187 C 
BRANCH   5   6
HETATM    6  C           1     -21.186 -10.165  -4.763  0.00  0.00     0.066 C 
BRANCH   6   7
HETATM    7  C           1     -22.247 -10.312  -3.680  0.00  0.00     0.273 C 
BRANCH   7   8
HETATM    8  N           1     -22.546 -11.706  -3.487  0.00  0.00     0.098 N 
HETATM    9  H           1     -21.810 -12.273  -3.910  0.00  0.00     0.317 HD
BRANCH   8  10
HETATM   10  C           1     -22.588 -11.952  -2.071  0.00  0.00     0.324 C 
BRANCH  10  11
HETATM   11  C           1     -23.422 -10.873  -1.393  0.00  0.00     0.085 C 
BRANCH  11  12
HETATM   12  C           1     -22.576 -10.139  -0.400  0.00  0.00    -0.056 A 
HETATM   13  C           1     -21.513 -10.789   0.228  0.00  0.00     0.007 A 
HETATM   14  C           1     -20.726 -10.104   1.153  0.00  0.00     0.001 A 
HETATM   15  C           1     -21.000  -8.769   1.450  0.00  0.00     0.000 A 
HETATM   16  C           1     -22.063  -8.119   0.823  0.00  0.00     0.001 A 
HETATM   17  C           1     -22.850  -8.804  -0.103  0.00  0.00     0.007 A 
ENDBRANCH  11  12
ENDBRANCH  10  11
BRANCH  10  18
HETATM   18  C           1     -23.209 -13.303  -1.815  0.00  0.00     0.207 C 
HETATM   19  O           1     -23.798 -13.527  -0.736  0.00  0.00    -0.646 OA
HETATM   20  O           1     -23.133 -14.200  -2.683  0.00  0.00    -0.646 OA
ENDBRANCH  10  18
ENDBRANCH   8  10
ENDBRANCH   7   8
ENDBRANCH   6   7
ENDBRANCH   5   6
BRANCH   5  21
HETATM   21  C           1     -18.806  -9.822  -4.172  0.00  0.00     0.196 C 
HETATM   22  O           1     -18.057  -9.523  -3.218  0.00  0.00    -0.646 OA
HETATM   23  O           1     -18.445 -10.682  -5.004  0.00  0.00    -0.646 OA
ENDBRANCH   5  21
ENDBRANCH   2   5
BRANCH   1  24
HETATM   24  C           1     -20.544  -5.787  -6.124  0.00  0.00     0.274 C 
BRANCH  24  25
HETATM   25  C           1     -21.941  -5.363  -6.555  0.00  0.00     0.044 C 
BRANCH  25  26
HETATM   26  C           1     -21.879  -3.980  -7.192  0.00  0.00     0.023 C 
BRANCH  26  27
HETATM   27  C           1     -22.422  -4.050  -8.612  0.00  0.00     0.138 C 
BRANCH  27  28
HETATM   28  N           1     -23.847  -3.684  -8.612  0.00  0.00    -0.227 N 
HETATM   29  C           1     -24.554  -3.895  -9.640  0.00  0.00     0.665 C 
HETATM   30  N           1     -24.023  -4.436 -10.696  0.00  0.00    -0.235 N 
HETATM   31  N           1     -25.780  -3.581  -9.639  0.00  0.00    -0.235 N 
HETATM   32  H           1     -24.607  -4.610 -11.545  0.00  0.00     0.174 HD
HETATM   33  H           1     -23.011  -4.696 -10.697  0.00  0.00     0.174 HD
HETATM   34  H           1     -26.368  -3.755 -10.491  0.00  0.00     0.174 HD
HETATM   35  H           1     -26.211  -3.144  -8.786  0.00  0.00     0.174 HD
HETATM   36  H           1     -24.276  -3.248  -7.759  0.00  0.00     0.177 HD
ENDBRANCH  27  28
ENDBRANCH  26  27
ENDBRANCH  25  26
ENDBRANCH  24  25
BRANCH  24  37
HETATM   37  N           1     -19.787  -6.295  -7.315  0.00  0.00    -0.067 N 
HETATM   38  H           1     -18.835  -6.604  -7.017  0.00  0.00     0.275 HD
HETATM   39  H           1     -19.699  -5.532  -8.024  0.00  0.00     0.275 HD
HETATM   40  H           1     -20.300  -7.103  -7.735  0.00  0.00     0.275 HD
ENDBRANCH  24  37
ENDBRANCH   1  24
TORSDOF 15
ENDMDL
MODEL 9
REMARK VINA RESULT:      -6.4      2.392      5.239
REMARK  15 active torsions:
REMARK  status: ('A' for Active; 'I' for Inactive)
REMARK       I    between atoms: C_1  and  N_12 
REMARK    1  A    between atoms: C_1  and  C_6 
REMARK    2  A    between atoms: C_4  and  C_5 
REMARK    3  A    between atoms: C_5  and  C_13 
REMARK    4  A    between atoms: C_6  and  C_17 
REMARK    5  A    between atoms: C_6  and  N_19 
REMARK    6  A    between atoms: C_7  and  C_29 
REMARK    7  A    between atoms: C_7  and  C_8 
REMARK    8  A    between atoms: C_7  and  N_12 
REMARK    9  A    between atoms: C_13  and  C_33 
REMARK   10  A    between atoms: C_13  and  N_31 
REMARK   11  A    between atoms: C_17  and  C_25 
REMARK       I    between atoms: N_20  and  C_22 
REMARK       I    between atoms: N_21  and  C_22 
REMARK   12  A    between atoms: N_23  and  C_24 
REMARK   13  A    between atoms: C_24  and  C_25 
REMARK   14  A    between atoms: C_29  and  C_30 
REMARK   15  A    between atoms: C_30  and  N_31 
ROOT
HETATM    1  C           1     -21.172  -6.767  -5.031  0.00  0.00     0.249 C 
HETATM    2  N           1     -20.790  -6.643  -3.722  0.00  0.00    -0.345 N 
HETATM    3  O           1     -21.885  -7.680  -5.368  0.00  0.00    -0.271 OA
HETATM    4  H           1     -20.191  -5.877  -3.439  0.00  0.00     0.163 HD
ENDROOT
BRANCH   2   5
HETATM    5  C           1     -21.242  -7.609  -2.741  0.00  0.00     0.187 C 
BRANCH   5   6
HETATM    6  C           1     -20.041  -8.163  -1.985  0.00  0.00     0.066 C 
BRANCH   6   7
HETATM    7  C           1     -19.707  -9.554  -2.511  0.00  0.00     0.273 C 
BRANCH   7   8
HETATM    8  N           1     -20.642  -9.914  -3.542  0.00  0.00     0.098 N 
HETATM    9  H           1     -21.099  -9.074  -3.896  0.00  0.00     0.317 HD
BRANCH   8  10
HETATM   10  C           1     -19.901 -10.540  -4.604  0.00  0.00     0.324 C 
BRANCH  10  11
HETATM   11  C           1     -18.871 -11.492  -4.011  0.00  0.00     0.085 C 
BRANCH  11  12
HETATM   12  C           1     -17.629 -11.467  -4.848  0.00  0.00    -0.056 A 
HETATM   13  C           1     -16.712 -10.426  -4.704  0.00  0.00     0.007 A 
HETATM   14  C           1     -15.556 -10.403  -5.485  0.00  0.00     0.001 A 
HETATM   15  C           1     -15.317 -11.422  -6.407  0.00  0.00     0.000 A 
HETATM   16  C           1     -16.234 -12.462  -6.550  0.00  0.00     0.001 A 
HETATM   17  C           1     -17.389 -12.485  -5.770  0.00  0.00     0.007 A 
ENDBRANCH  11  12
ENDBRANCH  10  11
BRANCH  10  18
HETATM   18  C           1     -20.849 -11.312  -5.489  0.00  0.00     0.207 C 
HETATM   19  O           1     -21.183 -12.476  -5.182  0.00  0.00    -0.646 OA
HETATM   20  O           1     -21.299 -10.787  -6.530  0.00  0.00    -0.646 OA
ENDBRANCH  10  18
ENDBRANCH   8  10
ENDBRANCH   7   8
ENDBRANCH   6   7
ENDBRANCH   5   6
BRANCH   5  21
HETATM   21  C           1     -22.181  -6.937  -1.770  0.00  0.00     0.196 C 
HETATM   22  O           1     -22.488  -7.506  -0.701  0.00  0.00    -0.646 OA
HETATM   23  O           1     -22.654  -5.810  -2.035  0.00  0.00    -0.646 OA
ENDBRANCH   5  21
ENDBRANCH   2   5
BRANCH   1  24
HETATM   24  C           1     -20.700  -5.761  -6.053  0.00  0.00     0.274 C 
BRANCH  24  25
HETATM   25  C           1     -21.904  -5.078  -6.687  0.00  0.00     0.044 C 
BRANCH  25  26
HETATM   26  C           1     -21.445  -3.838  -7.444  0.00  0.00     0.023 C 
BRANCH  26  27
HETATM   27  C           1     -22.043  -3.847  -8.844  0.00  0.00     0.138 C 
BRANCH  27  28
HETATM   28  N           1     -23.477  -3.525  -8.768  0.00  0.00    -0.227 N 
HETATM   29  C           1     -24.269  -3.951  -9.658  0.00  0.00     0.665 C 
HETATM   30  N           1     -23.818  -4.673 -10.639  0.00  0.00    -0.235 N 
HETATM   31  N           1     -25.503  -3.675  -9.591  0.00  0.00    -0.235 N 
HETATM   32  H           1     -24.472  -5.025 -11.374  0.00  0.00     0.174 HD
HETATM   33  H           1     -22.799  -4.902 -10.694  0.00  0.00     0.174 HD
HETATM   34  H           1     -26.161  -4.028 -10.329  0.00  0.00     0.174 HD
HETATM   35  H           1     -25.869  -3.091  -8.798  0.00  0.00     0.174 HD
HETATM   36  H           1     -23.841  -2.942  -7.974  0.00  0.00     0.177 HD
ENDBRANCH  27  28
ENDBRANCH  26  27
ENDBRANCH  25  26
ENDBRANCH  24  25
BRANCH  24  37
HETATM   37  N           1     -19.907  -6.462  -7.115  0.00  0.00    -0.067 N 
HETATM   38  H           1     -19.091  -6.947  -6.677  0.00  0.00     0.275 HD
HETATM   39  H           1     -19.563  -5.764  -7.812  0.00  0.00     0.275 HD
HETATM   40  H           1     -20.513  -7.165  -7.595  0.00  0.00     0.275 HD
ENDBRANCH  24  37
ENDBRANCH   1  24
TORSDOF 15
ENDMDL
