MODEL 1
REMARK VINA RESULT:      -6.7      0.000      0.000
REMARK  12 active torsions:
REMARK  status: ('A' for Active; 'I' for Inactive)
REMARK    1  A    between atoms: C_3  and  C_25 
REMARK    2  A    between atoms: C_3  and  C_12 
REMARK    3  A    between atoms: C_5  and  C_12 
REMARK    4  A    between atoms: C_5  and  C_21 
REMARK    5  A    between atoms: C_5  and  N_7 
REMARK       I    between atoms: N_7  and  C_8 
REMARK    6  A    between atoms: C_8  and  C_20 
REMARK    7  A    between atoms: C_10  and  C_26 
REMARK    8  A    between atoms: C_10  and  C_22 
REMARK    9  A    between atoms: C_17  and  C_22 
REMARK   10  A    between atoms: C_17  and  N_18 
REMARK   11  A    between atoms: N_19  and  C_20 
REMARK   12  A    between atoms: C_20  and  C_26 
ROOT
HETATM    1  O           1     -26.079  -5.995 -17.271  0.00  0.00    -0.271 OA
HETATM    2  N           1     -27.589  -6.503 -18.835  0.00  0.00    -0.345 N 
HETATM    3  C           1     -26.298  -6.351 -18.404  0.00  0.00     0.249 C 
HETATM    4  H           1     -27.773  -6.801 -19.784  0.00  0.00     0.163 HD
ENDROOT
BRANCH   3   5
HETATM    5  C           1     -25.152  -6.628 -19.343  0.00  0.00     0.274 C 
BRANCH   5   6
HETATM    6  N           1     -24.242  -7.653 -18.733  0.00  0.00    -0.067 N 
HETATM    7  H           1     -23.417  -7.174 -18.304  0.00  0.00     0.275 HD
HETATM    8  H           1     -23.916  -8.314 -19.473  0.00  0.00     0.275 HD
HETATM    9  H           1     -24.759  -8.183 -17.995  0.00  0.00     0.275 HD
ENDBRANCH   5   6
BRANCH   5  10
HETATM   10  C           1     -25.694  -7.156 -20.666  0.00  0.00     0.042 C 
BRANCH  10  11
HETATM   11  C           1     -24.765  -8.237 -21.201  0.00  0.00     0.004 C 
BRANCH  11  12
HETATM   12  C           1     -24.024  -7.713 -22.423  0.00  0.00     0.027 C 
BRANCH  12  13
HETATM   13  C           1     -22.743  -8.513 -22.623  0.00  0.00     0.229 C 
BRANCH  13  14
HETATM   14  N           1     -22.357  -9.171 -21.332  0.00  0.00    -0.079 N 
HETATM   15  H           1     -22.083 -10.162 -21.514  0.00  0.00     0.274 HD
HETATM   16  H           1     -21.551  -8.659 -20.908  0.00  0.00     0.274 HD
HETATM   17  H           1     -23.169  -9.150 -20.674  0.00  0.00     0.274 HD
ENDBRANCH  13  14
ENDBRANCH  12  13
ENDBRANCH  11  12
ENDBRANCH  10  11
ENDBRANCH   5  10
ENDBRANCH   3   5
BRANCH   2  18
HETATM   18  C           1     -28.691  -6.237 -17.932  0.00  0.00     0.186 C 
BRANCH  18  19
HETATM   19  C           1     -29.466  -5.020 -18.421  0.00  0.00     0.046 C 
BRANCH  19  20
HETATM   20  C           1     -29.922  -4.193 -17.226  0.00  0.00     0.116 C 
BRANCH  20  21
HETATM   21  C           1     -31.419  -4.012 -17.281  0.00  0.00     0.172 C 
HETATM   22  O           1     -31.905  -2.961 -17.752  0.00  0.00    -0.648 OA
HETATM   23  O           1     -32.173  -4.913 -16.856  0.00  0.00    -0.648 OA
ENDBRANCH  20  21
ENDBRANCH  19  20
ENDBRANCH  18  19
BRANCH  18  24
HETATM   24  C           1     -29.607  -7.434 -17.890  0.00  0.00     0.196 C 
HETATM   25  O           1     -29.484  -8.285 -16.982  0.00  0.00    -0.646 OA
HETATM   26  O           1     -30.490  -7.577 -18.762  0.00  0.00    -0.646 OA
ENDBRANCH  18  24
ENDBRANCH   2  18
TORSDOF 12
ENDMDL
MODEL 2
REMARK VINA RESULT:      -6.3      1.961      3.123
REMARK  12 active torsions:
REMARK  status: ('A' for Active; 'I' for Inactive)
REMARK    1  A    between atoms: C_3  and  C_25 
REMARK    2  A    between atoms: C_3  and  C_12 
REMARK    3  A    between atoms: C_5  and  C_12 
REMARK    4  A    between atoms: C_5  and  C_21 
REMARK    5  A    between atoms: C_5  and  N_7 
REMARK       I    between atoms: N_7  and  C_8 
REMARK    6  A    between atoms: C_8  and  C_20 
REMARK    7  A    between atoms: C_10  and  C_26 
REMARK    8  A    between atoms: C_10  and  C_22 
REMARK    9  A    between atoms: C_17  and  C_22 
REMARK   10  A    between atoms: C_17  and  N_18 
REMARK   11  A    between atoms: N_19  and  C_20 
REMARK   12  A    between atoms: C_20  and  C_26 
ROOT
HETATM    1  O           1     -27.089  -5.530 -20.672  0.00  0.00    -0.271 OA
HETATM    2  N           1     -27.478  -6.518 -18.707  0.00  0.00    -0.345 N 
HETATM    3  C           1     -26.946  -6.502 -19.969  0.00  0.00     0.249 C 
HETATM    4  H           1     -27.358  -7.331 -18.118  0.00  0.00     0.163 HD
ENDROOT
BRANCH   3   5
HETATM    5  C           1     -26.183  -7.698 -20.480  0.00  0.00     0.274 C 
BRANCH   5   6
HETATM    6  N           1     -27.129  -8.641 -21.163  0.00  0.00    -0.067 N 
HETATM    7  H           1     -28.092  -8.505 -20.780  0.00  0.00     0.275 HD
HETATM    8  H           1     -26.822  -9.626 -20.993  0.00  0.00     0.275 HD
HETATM    9  H           1     -27.132  -8.449 -22.190  0.00  0.00     0.275 HD
ENDBRANCH   5   6
BRANCH   5  10
HETATM   10  C           1     -25.122  -7.238 -21.472  0.00  0.00     0.042 C 
BRANCH  10  11
HETATM   11  C           1     -23.900  -8.141 -21.364  0.00  0.00     0.004 C 
BRANCH  11  12
HETATM   12  C           1     -23.268  -8.308 -22.740  0.00  0.00     0.027 C 
BRANCH  12  13
HETATM   13  C           1     -21.907  -8.976 -22.596  0.00  0.00     0.229 C 
BRANCH  13  14
HETATM   14  N           1     -21.526  -9.031 -21.146  0.00  0.00    -0.079 N 
HETATM   15  H           1     -21.709  -8.103 -20.703  0.00  0.00     0.274 HD
HETATM   16  H           1     -22.095  -9.765 -20.666  0.00  0.00     0.274 HD
HETATM   17  H           1     -20.512  -9.264 -21.062  0.00  0.00     0.274 HD
ENDBRANCH  13  14
ENDBRANCH  12  13
ENDBRANCH  11  12
ENDBRANCH  10  11
ENDBRANCH   5  10
ENDBRANCH   3   5
BRANCH   2  18
HETATM   18  C           1     -28.211  -5.368 -18.215  0.00  0.00     0.186 C 
BRANCH  18  19
HETATM   19  C           1     -29.639  -5.782 -17.882  0.00  0.00     0.046 C 
BRANCH  19  20
HETATM   20  C           1     -29.674  -7.268 -17.551  0.00  0.00     0.116 C 
BRANCH  20  21
HETATM   21  C           1     -30.298  -8.024 -18.699  0.00  0.00     0.172 C 
HETATM   22  O           1     -29.604  -8.807 -19.383  0.00  0.00    -0.648 OA
HETATM   23  O           1     -31.509  -7.867 -18.965  0.00  0.00    -0.648 OA
ENDBRANCH  20  21
ENDBRANCH  19  20
ENDBRANCH  18  19
BRANCH  18  24
HETATM   24  C           1     -27.539  -4.835 -16.975  0.00  0.00     0.196 C 
HETATM   25  O           1     -28.029  -3.859 -16.367  0.00  0.00    -0.646 OA
HETATM   26  O           1     -26.491  -5.370 -16.553  0.00  0.00    -0.646 OA
ENDBRANCH  18  24
ENDBRANCH   2  18
TORSDOF 12
ENDMDL
MODEL 3
REMARK VINA RESULT:      -6.2      1.663      2.589
REMARK  12 active torsions:
REMARK  status: ('A' for Active; 'I' for Inactive)
REMARK    1  A    between atoms: C_3  and  C_25 
REMARK    2  A    between atoms: C_3  and  C_12 
REMARK    3  A    between atoms: C_5  and  C_12 
REMARK    4  A    between atoms: C_5  and  C_21 
REMARK    5  A    between atoms: C_5  and  N_7 
REMARK       I    between atoms: N_7  and  C_8 
REMARK    6  A    between atoms: C_8  and  C_20 
REMARK    7  A    between atoms: C_10  and  C_26 
REMARK    8  A    between atoms: C_10  and  C_22 
REMARK    9  A    between atoms: C_17  and  C_22 
REMARK   10  A    between atoms: C_17  and  N_18 
REMARK   11  A    between atoms: N_19  and  C_20 
REMARK   12  A    between atoms: C_20  and  C_26 
ROOT
HETATM    1  O           1     -24.314  -6.575 -18.671  0.00  0.00    -0.271 OA
HETATM    2  N           1     -26.523  -6.674 -18.360  0.00  0.00    -0.345 N 
HETATM    3  C           1     -25.390  -6.941 -19.081  0.00  0.00     0.249 C 
HETATM    4  H           1     -27.424  -6.980 -18.703  0.00  0.00     0.163 HD
ENDROOT
BRANCH   3   5
HETATM    5  C           1     -25.485  -7.691 -20.386  0.00  0.00     0.274 C 
BRANCH   5   6
HETATM    6  N           1     -26.928  -7.874 -20.753  0.00  0.00    -0.067 N 
HETATM    7  H           1     -27.392  -8.490 -20.047  0.00  0.00     0.275 HD
HETATM    8  H           1     -26.994  -8.315 -21.698  0.00  0.00     0.275 HD
HETATM    9  H           1     -27.405  -6.943 -20.768  0.00  0.00     0.275 HD
ENDBRANCH   5   6
BRANCH   5  10
HETATM   10  C           1     -24.780  -6.900 -21.480  0.00  0.00     0.042 C 
BRANCH  10  11
HETATM   11  C           1     -23.922  -7.841 -22.315  0.00  0.00     0.004 C 
BRANCH  11  12
HETATM   12  C           1     -22.870  -8.492 -21.427  0.00  0.00     0.027 C 
BRANCH  12  13
HETATM   13  C           1     -21.741  -9.036 -22.292  0.00  0.00     0.229 C 
BRANCH  13  14
HETATM   14  N           1     -22.159 -10.342 -22.899  0.00  0.00    -0.079 N 
HETATM   15  H           1     -22.413 -10.195 -23.901  0.00  0.00     0.274 HD
HETATM   16  H           1     -21.368 -11.023 -22.836  0.00  0.00     0.274 HD
HETATM   17  H           1     -22.985 -10.718 -22.381  0.00  0.00     0.274 HD
ENDBRANCH  13  14
ENDBRANCH  12  13
ENDBRANCH  11  12
ENDBRANCH  10  11
ENDBRANCH   5  10
ENDBRANCH   3   5
BRANCH   2  18
HETATM   18  C           1     -26.431  -5.954 -17.105  0.00  0.00     0.186 C 
BRANCH  18  19
HETATM   19  C           1     -27.649  -5.052 -16.948  0.00  0.00     0.046 C 
BRANCH  19  20
HETATM   20  C           1     -28.696  -5.424 -17.989  0.00  0.00     0.116 C 
BRANCH  20  21
HETATM   21  C           1     -29.927  -5.956 -17.297  0.00  0.00     0.172 C 
HETATM   22  O           1     -30.705  -5.170 -16.715  0.00  0.00    -0.648 OA
HETATM   23  O           1     -30.168  -7.182 -17.306  0.00  0.00    -0.648 OA
ENDBRANCH  20  21
ENDBRANCH  19  20
ENDBRANCH  18  19
BRANCH  18  24
HETATM   24  C           1     -26.382  -6.937 -15.963  0.00  0.00     0.196 C 
HETATM   25  O           1     -25.298  -7.476 -15.648  0.00  0.00    -0.646 OA
HETATM   26  O           1     -27.423  -7.214 -15.330  0.00  0.00    -0.646 OA
ENDBRANCH  18  24
ENDBRANCH   2  18
TORSDOF 12
ENDMDL
MODEL 4
REMARK VINA RESULT:      -6.2      1.835      2.341
REMARK  12 active torsions:
REMARK  status: ('A' for Active; 'I' for Inactive)
REMARK    1  A    between atoms: C_3  and  C_25 
REMARK    2  A    between atoms: C_3  and  C_12 
REMARK    3  A    between atoms: C_5  and  C_12 
REMARK    4  A    between atoms: C_5  and  C_21 
REMARK    5  A    between atoms: C_5  and  N_7 
REMARK       I    between atoms: N_7  and  C_8 
REMARK    6  A    between atoms: C_8  and  C_20 
REMARK    7  A    between atoms: C_10  and  C_26 
REMARK    8  A    between atoms: C_10  and  C_22 
REMARK    9  A    between atoms: C_17  and  C_22 
REMARK   10  A    between atoms: C_17  and  N_18 
REMARK   11  A    between atoms: N_19  and  C_20 
REMARK   12  A    between atoms: C_20  and  C_26 
ROOT
HETATM    1  O           1     -26.454  -7.330 -15.309  0.00  0.00    -0.271 OA
HETATM    2  N           1     -27.323  -6.421 -17.153  0.00  0.00    -0.345 N 
HETATM    3  C           1     -26.264  -6.860 -16.405  0.00  0.00     0.249 C 
HETATM    4  H           1     -27.165  -6.028 -18.072  0.00  0.00     0.163 HD
ENDROOT
BRANCH   3   5
HETATM    5  C           1     -24.862  -6.758 -16.950  0.00  0.00     0.274 C 
BRANCH   5   6
HETATM    6  N           1     -24.124  -8.034 -16.675  0.00  0.00    -0.067 N 
HETATM    7  H           1     -24.540  -8.503 -15.838  0.00  0.00     0.275 HD
HETATM    8  H           1     -23.117  -7.823 -16.492  0.00  0.00     0.275 HD
HETATM    9  H           1     -24.202  -8.668 -17.503  0.00  0.00     0.275 HD
ENDBRANCH   5   6
BRANCH   5  10
HETATM   10  C           1     -24.917  -6.518 -18.454  0.00  0.00     0.042 C 
BRANCH  10  11
HETATM   11  C           1     -23.954  -7.467 -19.155  0.00  0.00     0.004 C 
BRANCH  11  12
HETATM   12  C           1     -24.495  -7.812 -20.536  0.00  0.00     0.027 C 
BRANCH  12  13
HETATM   13  C           1     -25.893  -7.228 -20.695  0.00  0.00     0.229 C 
BRANCH  13  14
HETATM   14  N           1     -26.882  -8.339 -20.887  0.00  0.00    -0.079 N 
HETATM   15  H           1     -26.444  -9.101 -21.450  0.00  0.00     0.274 HD
HETATM   16  H           1     -27.168  -8.714 -19.955  0.00  0.00     0.274 HD
HETATM   17  H           1     -27.722  -7.973 -21.389  0.00  0.00     0.274 HD
ENDBRANCH  13  14
ENDBRANCH  12  13
ENDBRANCH  11  12
ENDBRANCH  10  11
ENDBRANCH   5  10
ENDBRANCH   3   5
BRANCH   2  18
HETATM   18  C           1     -28.672  -6.520 -16.630  0.00  0.00     0.186 C 
BRANCH  18  19
HETATM   19  C           1     -29.219  -5.122 -16.369  0.00  0.00     0.046 C 
BRANCH  19  20
HETATM   20  C           1     -29.368  -4.380 -17.690  0.00  0.00     0.116 C 
BRANCH  20  21
HETATM   21  C           1     -30.228  -3.156 -17.485  0.00  0.00     0.172 C 
HETATM   22  O           1     -31.469  -3.235 -17.613  0.00  0.00    -0.648 OA
HETATM   23  O           1     -29.698  -2.064 -17.187  0.00  0.00    -0.648 OA
ENDBRANCH  20  21
ENDBRANCH  19  20
ENDBRANCH  18  19
BRANCH  18  24
HETATM   24  C           1     -29.549  -7.226 -17.632  0.00  0.00     0.196 C 
HETATM   25  O           1     -29.070  -7.616 -18.719  0.00  0.00    -0.646 OA
HETATM   26  O           1     -30.757  -7.423 -17.377  0.00  0.00    -0.646 OA
ENDBRANCH  18  24
ENDBRANCH   2  18
TORSDOF 12
ENDMDL
MODEL 5
REMARK VINA RESULT:      -5.9     13.260     15.045
REMARK  12 active torsions:
REMARK  status: ('A' for Active; 'I' for Inactive)
REMARK    1  A    between atoms: C_3  and  C_25 
REMARK    2  A    between atoms: C_3  and  C_12 
REMARK    3  A    between atoms: C_5  and  C_12 
REMARK    4  A    between atoms: C_5  and  C_21 
REMARK    5  A    between atoms: C_5  and  N_7 
REMARK       I    between atoms: N_7  and  C_8 
REMARK    6  A    between atoms: C_8  and  C_20 
REMARK    7  A    between atoms: C_10  and  C_26 
REMARK    8  A    between atoms: C_10  and  C_22 
REMARK    9  A    between atoms: C_17  and  C_22 
REMARK   10  A    between atoms: C_17  and  N_18 
REMARK   11  A    between atoms: N_19  and  C_20 
REMARK   12  A    between atoms: C_20  and  C_26 
ROOT
HETATM    1  O           1     -21.177  -7.182  -6.715  0.00  0.00    -0.271 OA
HETATM    2  N           1     -21.402  -4.965  -6.581  0.00  0.00    -0.345 N 
HETATM    3  C           1     -21.226  -6.199  -6.015  0.00  0.00     0.249 C 
HETATM    4  H           1     -21.442  -4.141  -5.995  0.00  0.00     0.163 HD
ENDROOT
BRANCH   3   5
HETATM    5  C           1     -21.092  -6.331  -4.519  0.00  0.00     0.274 C 
BRANCH   5   6
HETATM    6  N           1     -22.432  -6.122  -3.877  0.00  0.00    -0.067 N 
HETATM    7  H           1     -22.346  -6.249  -2.842  0.00  0.00     0.275 HD
HETATM    8  H           1     -23.112  -6.817  -4.258  0.00  0.00     0.275 HD
HETATM    9  H           1     -22.770  -5.154  -4.082  0.00  0.00     0.275 HD
ENDBRANCH   5   6
BRANCH   5  10
HETATM   10  C           1     -20.576  -7.722  -4.174  0.00  0.00     0.042 C 
BRANCH  10  11
HETATM   11  C           1     -21.304  -8.243  -2.943  0.00  0.00     0.004 C 
BRANCH  11  12
HETATM   12  C           1     -20.390  -8.138  -1.729  0.00  0.00     0.027 C 
BRANCH  12  13
HETATM   13  C           1     -21.227  -8.178  -0.458  0.00  0.00     0.229 C 
BRANCH  13  14
HETATM   14  N           1     -22.342  -7.181  -0.560  0.00  0.00    -0.079 N 
HETATM   15  H           1     -22.061  -6.409  -1.205  0.00  0.00     0.274 HD
HETATM   16  H           1     -23.197  -7.653  -0.934  0.00  0.00     0.274 HD
HETATM   17  H           1     -22.545  -6.787   0.386  0.00  0.00     0.274 HD
ENDBRANCH  13  14
ENDBRANCH  12  13
ENDBRANCH  11  12
ENDBRANCH  10  11
ENDBRANCH   5  10
ENDBRANCH   3   5
BRANCH   2  18
HETATM   18  C           1     -21.530  -4.838  -8.020  0.00  0.00     0.186 C 
BRANCH  18  19
HETATM   19  C           1     -22.459  -3.676  -8.346  0.00  0.00     0.046 C 
BRANCH  19  20
HETATM   20  C           1     -23.716  -4.205  -9.024  0.00  0.00     0.116 C 
BRANCH  20  21
HETATM   21  C           1     -23.904  -3.509 -10.350  0.00  0.00     0.172 C 
HETATM   22  O           1     -22.909  -3.214 -11.048  0.00  0.00    -0.648 OA
HETATM   23  O           1     -25.053  -3.227 -10.750  0.00  0.00    -0.648 OA
ENDBRANCH  20  21
ENDBRANCH  19  20
ENDBRANCH  18  19
BRANCH  18  24
HETATM   24  C           1     -20.172  -4.583  -8.624  0.00  0.00     0.196 C 
HETATM   25  O           1     -19.248  -4.125  -7.917  0.00  0.00    -0.646 OA
HETATM   26  O           1     -19.969  -4.829  -9.833  0.00  0.00    -0.646 OA
ENDBRANCH  18  24
ENDBRANCH   2  18
TORSDOF 12
ENDMDL
MODEL 6
REMARK VINA RESULT:      -5.9     14.182     15.724
REMARK  12 active torsions:
REMARK  status: ('A' for Active; 'I' for Inactive)
REMARK    1  A    between atoms: C_3  and  C_25 
REMARK    2  A    between atoms: C_3  and  C_12 
REMARK    3  A    between atoms: C_5  and  C_12 
REMARK    4  A    between atoms: C_5  and  C_21 
REMARK    5  A    between atoms: C_5  and  N_7 
REMARK       I    between atoms: N_7  and  C_8 
REMARK    6  A    between atoms: C_8  and  C_20 
REMARK    7  A    between atoms: C_10  and  C_26 
REMARK    8  A    between atoms: C_10  and  C_22 
REMARK    9  A    between atoms: C_17  and  C_22 
REMARK   10  A    between atoms: C_17  and  N_18 
REMARK   11  A    between atoms: N_19  and  C_20 
REMARK   12  A    between atoms: C_20  and  C_26 
ROOT
HETATM    1  O           1     -19.770  -7.201  -5.885  0.00  0.00    -0.271 OA
HETATM    2  N           1     -21.629  -7.848  -4.830  0.00  0.00    -0.345 N 
HETATM    3  C           1     -20.951  -7.029  -5.693  0.00  0.00     0.249 C 
HETATM    4  H           1     -22.617  -7.705  -4.669  0.00  0.00     0.163 HD
ENDROOT
BRANCH   3   5
HETATM    5  C           1     -21.677  -5.915  -6.404  0.00  0.00     0.274 C 
BRANCH   5   6
HETATM    6  N           1     -22.940  -5.590  -5.663  0.00  0.00    -0.067 N 
HETATM    7  H           1     -22.852  -5.906  -4.670  0.00  0.00     0.275 HD
HETATM    8  H           1     -23.745  -6.079  -6.115  0.00  0.00     0.275 HD
HETATM    9  H           1     -23.103  -4.557  -5.686  0.00  0.00     0.275 HD
ENDBRANCH   5   6
BRANCH   5  10
HETATM   10  C           1     -20.788  -4.680  -6.456  0.00  0.00     0.042 C 
BRANCH  10  11
HETATM   11  C           1     -21.437  -3.623  -7.339  0.00  0.00     0.004 C 
BRANCH  11  12
HETATM   12  C           1     -21.479  -4.119  -8.778  0.00  0.00     0.027 C 
BRANCH  12  13
HETATM   13  C           1     -22.798  -3.708  -9.419  0.00  0.00     0.229 C 
BRANCH  13  14
HETATM   14  N           1     -23.896  -3.790  -8.401  0.00  0.00    -0.079 N 
HETATM   15  H           1     -24.018  -2.859  -7.943  0.00  0.00     0.274 HD
HETATM   16  H           1     -24.787  -4.065  -8.873  0.00  0.00     0.274 HD
HETATM   17  H           1     -23.649  -4.503  -7.679  0.00  0.00     0.274 HD
ENDBRANCH  13  14
ENDBRANCH  12  13
ENDBRANCH  11  12
ENDBRANCH  10  11
ENDBRANCH   5  10
ENDBRANCH   3   5
BRANCH   2  18
HETATM   18  C           1     -20.931  -8.919  -4.147  0.00  0.00     0.186 C 
BRANCH  18  19
HETATM   19  C           1     -21.352  -8.949  -2.684  0.00  0.00     0.046 C 
BRANCH  19  20
HETATM   20  C           1     -20.892  -7.670  -1.996  0.00  0.00     0.116 C 
BRANCH  20  21
HETATM   21  C           1     -22.085  -6.785  -1.728  0.00  0.00     0.172 C 
HETATM   22  O           1     -22.715  -6.894  -0.654  0.00  0.00    -0.648 OA
HETATM   23  O           1     -22.442  -5.944  -2.580  0.00  0.00    -0.648 OA
ENDBRANCH  20  21
ENDBRANCH  19  20
ENDBRANCH  18  19
BRANCH  18  24
HETATM   24  C           1     -21.273 -10.236  -4.797  0.00  0.00     0.196 C 
HETATM   25  O           1     -20.866 -10.490  -5.952  0.00  0.00    -0.646 OA
HETATM   26  O           1     -21.964 -11.077  -4.181  0.00  0.00    -0.646 OA
ENDBRANCH  18  24
ENDBRANCH   2  18
TORSDOF 12
ENDMDL
MODEL 7
REMARK VINA RESULT:      -5.9      1.682      2.255
REMARK  12 active torsions:
REMARK  status: ('A' for Active; 'I' for Inactive)
REMARK    1  A    between atoms: C_3  and  C_25 
REMARK    2  A    between atoms: C_3  and  C_12 
REMARK    3  A    between atoms: C_5  and  C_12 
REMARK    4  A    between atoms: C_5  and  C_21 
REMARK    5  A    between atoms: C_5  and  N_7 
REMARK       I    between atoms: N_7  and  C_8 
REMARK    6  A    between atoms: C_8  and  C_20 
REMARK    7  A    between atoms: C_10  and  C_26 
REMARK    8  A    between atoms: C_10  and  C_22 
REMARK    9  A    between atoms: C_17  and  C_22 
REMARK   10  A    between atoms: C_17  and  N_18 
REMARK   11  A    between atoms: N_19  and  C_20 
REMARK   12  A    between atoms: C_20  and  C_26 
ROOT
HETATM    1  O           1     -27.123  -5.559 -20.408  0.00  0.00    -0.271 OA
HETATM    2  N           1     -27.208  -6.682 -18.480  0.00  0.00    -0.345 N 
HETATM    3  C           1     -26.885  -6.580 -19.807  0.00  0.00     0.249 C 
HETATM    4  H           1     -27.009  -7.536 -17.976  0.00  0.00     0.163 HD
ENDROOT
BRANCH   3   5
HETATM    5  C           1     -26.232  -7.740 -20.516  0.00  0.00     0.274 C 
BRANCH   5   6
HETATM    6  N           1     -27.286  -8.582 -21.171  0.00  0.00    -0.067 N 
HETATM    7  H           1     -27.086  -9.593 -20.990  0.00  0.00     0.275 HD
HETATM    8  H           1     -27.284  -8.405 -22.200  0.00  0.00     0.275 HD
HETATM    9  H           1     -28.223  -8.338 -20.777  0.00  0.00     0.275 HD
ENDBRANCH   5   6
BRANCH   5  10
HETATM   10  C           1     -25.273  -7.213 -21.576  0.00  0.00     0.042 C 
BRANCH  10  11
HETATM   11  C           1     -23.906  -7.858 -21.390  0.00  0.00     0.004 C 
BRANCH  11  12
HETATM   12  C           1     -23.345  -8.261 -22.747  0.00  0.00     0.027 C 
BRANCH  12  13
HETATM   13  C           1     -21.983  -8.915 -22.560  0.00  0.00     0.229 C 
BRANCH  13  14
HETATM   14  N           1     -21.684  -9.041 -21.096  0.00  0.00    -0.079 N 
HETATM   15  H           1     -20.657  -8.931 -20.939  0.00  0.00     0.274 HD
HETATM   16  H           1     -22.199  -8.297 -20.572  0.00  0.00     0.274 HD
HETATM   17  H           1     -21.989  -9.981 -20.758  0.00  0.00     0.274 HD
ENDBRANCH  13  14
ENDBRANCH  12  13
ENDBRANCH  11  12
ENDBRANCH  10  11
ENDBRANCH   5  10
ENDBRANCH   3   5
BRANCH   2  18
HETATM   18  C           1     -27.835  -5.567 -17.798  0.00  0.00     0.186 C 
BRANCH  18  19
HETATM   19  C           1     -29.328  -5.561 -18.102  0.00  0.00     0.046 C 
BRANCH  19  20
HETATM   20  C           1     -29.801  -4.126 -18.295  0.00  0.00     0.116 C 
BRANCH  20  21
HETATM   21  C           1     -31.033  -3.885 -17.457  0.00  0.00     0.172 C 
HETATM   22  O           1     -31.261  -4.602 -16.459  0.00  0.00    -0.648 OA
HETATM   23  O           1     -31.826  -2.969 -17.762  0.00  0.00    -0.648 OA
ENDBRANCH  20  21
ENDBRANCH  19  20
ENDBRANCH  18  19
BRANCH  18  24
HETATM   24  C           1     -27.624  -5.705 -16.311  0.00  0.00     0.196 C 
HETATM   25  O           1     -27.749  -4.708 -15.567  0.00  0.00    -0.646 OA
HETATM   26  O           1     -27.325  -6.815 -15.822  0.00  0.00    -0.646 OA
ENDBRANCH  18  24
ENDBRANCH   2  18
TORSDOF 12
ENDMDL
MODEL 8
REMARK VINA RESULT:      -5.7     13.452     14.995
REMARK  12 active torsions:
REMARK  status: ('A' for Active; 'I' for Inactive)
REMARK    1  A    between atoms: C_3  and  C_25 
REMARK    2  A    between atoms: C_3  and  C_12 
REMARK    3  A    between atoms: C_5  and  C_12 
REMARK    4  A    between atoms: C_5  and  C_21 
REMARK    5  A    between atoms: C_5  and  N_7 
REMARK       I    between atoms: N_7  and  C_8 
REMARK    6  A    between atoms: C_8  and  C_20 
REMARK    7  A    between atoms: C_10  and  C_26 
REMARK    8  A    between atoms: C_10  and  C_22 
REMARK    9  A    between atoms: C_17  and  C_22 
REMARK   10  A    between atoms: C_17  and  N_18 
REMARK   11  A    between atoms: N_19  and  C_20 
REMARK   12  A    between atoms: C_20  and  C_26 
ROOT
HETATM    1  O           1     -20.447  -4.511  -5.749  0.00  0.00    -0.271 OA
HETATM    2  N           1     -21.042  -6.593  -6.295  0.00  0.00    -0.345 N 
HETATM    3  C           1     -20.912  -5.259  -6.576  0.00  0.00     0.249 C 
HETATM    4  H           1     -21.431  -7.220  -6.987  0.00  0.00     0.163 HD
ENDROOT
BRANCH   3   5
HETATM    5  C           1     -21.348  -4.725  -7.917  0.00  0.00     0.274 C 
BRANCH   5   6
HETATM    6  N           1     -22.387  -3.661  -7.717  0.00  0.00    -0.067 N 
HETATM    7  H           1     -21.916  -2.750  -7.510  0.00  0.00     0.275 HD
HETATM    8  H           1     -23.006  -3.924  -6.917  0.00  0.00     0.275 HD
HETATM    9  H           1     -22.961  -3.566  -8.586  0.00  0.00     0.275 HD
ENDBRANCH   5   6
BRANCH   5  10
HETATM   10  C           1     -20.148  -4.132  -8.643  0.00  0.00     0.042 C 
BRANCH  10  11
HETATM   11  C           1     -20.133  -4.622 -10.085  0.00  0.00     0.004 C 
BRANCH  11  12
HETATM   12  C           1     -20.889  -3.636 -10.965  0.00  0.00     0.027 C 
BRANCH  12  13
HETATM   13  C           1     -21.903  -4.388 -11.817  0.00  0.00     0.229 C 
BRANCH  13  14
HETATM   14  N           1     -23.192  -4.520 -11.061  0.00  0.00    -0.079 N 
HETATM   15  H           1     -23.534  -3.572 -10.787  0.00  0.00     0.274 HD
HETATM   16  H           1     -23.904  -4.985 -11.668  0.00  0.00     0.274 HD
HETATM   17  H           1     -23.035  -5.095 -10.204  0.00  0.00     0.274 HD
ENDBRANCH  13  14
ENDBRANCH  12  13
ENDBRANCH  11  12
ENDBRANCH  10  11
ENDBRANCH   5  10
ENDBRANCH   3   5
BRANCH   2  18
HETATM   18  C           1     -20.622  -7.107  -5.006  0.00  0.00     0.186 C 
BRANCH  18  19
HETATM   19  C           1     -21.816  -7.147  -4.061  0.00  0.00     0.046 C 
BRANCH  19  20
HETATM   20  C           1     -21.547  -6.246  -2.863  0.00  0.00     0.116 C 
BRANCH  20  21
HETATM   21  C           1     -21.757  -7.028  -1.589  0.00  0.00     0.172 C 
HETATM   22  O           1     -20.952  -7.928  -1.267  0.00  0.00    -0.648 OA
HETATM   23  O           1     -22.737  -6.775  -0.855  0.00  0.00    -0.648 OA
ENDBRANCH  20  21
ENDBRANCH  19  20
ENDBRANCH  18  19
BRANCH  18  24
HETATM   24  C           1     -20.068  -8.499  -5.176  0.00  0.00     0.196 C 
HETATM   25  O           1     -19.028  -8.681  -5.847  0.00  0.00    -0.646 OA
HETATM   26  O           1     -20.646  -9.472  -4.646  0.00  0.00    -0.646 OA
ENDBRANCH  18  24
ENDBRANCH   2  18
TORSDOF 12
ENDMDL
MODEL 9
REMARK VINA RESULT:      -5.5     14.011     15.962
REMARK  12 active torsions:
REMARK  status: ('A' for Active; 'I' for Inactive)
REMARK    1  A    between atoms: C_3  and  C_25 
REMARK    2  A    between atoms: C_3  and  C_12 
REMARK    3  A    between atoms: C_5  and  C_12 
REMARK    4  A    between atoms: C_5  and  C_21 
REMARK    5  A    between atoms: C_5  and  N_7 
REMARK       I    between atoms: N_7  and  C_8 
REMARK    6  A    between atoms: C_8  and  C_20 
REMARK    7  A    between atoms: C_10  and  C_26 
REMARK    8  A    between atoms: C_10  and  C_22 
REMARK    9  A    between atoms: C_17  and  C_22 
REMARK   10  A    between atoms: C_17  and  N_18 
REMARK   11  A    between atoms: N_19  and  C_20 
REMARK   12  A    between atoms: C_20  and  C_26 
ROOT
HETATM    1  O           1     -22.592  -5.567  -5.761  0.00  0.00    -0.271 OA
HETATM    2  N           1     -20.765  -6.416  -4.798  0.00  0.00    -0.345 N 
HETATM    3  C           1     -21.388  -5.549  -5.655  0.00  0.00     0.249 C 
HETATM    4  H           1     -19.758  -6.402  -4.708  0.00  0.00     0.163 HD
ENDROOT
BRANCH   3   5
HETATM    5  C           1     -20.573  -4.573  -6.464  0.00  0.00     0.274 C 
BRANCH   5   6
HETATM    6  N           1     -19.591  -5.325  -7.313  0.00  0.00    -0.067 N 
HETATM    7  H           1     -19.558  -4.898  -8.268  0.00  0.00     0.275 HD
HETATM    8  H           1     -19.888  -6.324  -7.388  0.00  0.00     0.275 HD
HETATM    9  H           1     -18.642  -5.275  -6.877  0.00  0.00     0.275 HD
ENDBRANCH   5   6
BRANCH   5  10
HETATM   10  C           1     -21.497  -3.757  -7.359  0.00  0.00     0.042 C 
BRANCH  10  11
HETATM   11  C           1     -21.241  -4.117  -8.816  0.00  0.00     0.004 C 
BRANCH  11  12
HETATM   12  C           1     -22.515  -4.677  -9.434  0.00  0.00     0.027 C 
BRANCH  12  13
HETATM   13  C           1     -23.710  -3.857  -8.965  0.00  0.00     0.229 C 
BRANCH  13  14
HETATM   14  N           1     -24.961  -4.385  -9.601  0.00  0.00    -0.079 N 
HETATM   15  H           1     -24.783  -5.343  -9.978  0.00  0.00     0.274 HD
HETATM   16  H           1     -25.722  -4.428  -8.886  0.00  0.00     0.274 HD
HETATM   17  H           1     -25.249  -3.752 -10.380  0.00  0.00     0.274 HD
ENDBRANCH  13  14
ENDBRANCH  12  13
ENDBRANCH  11  12
ENDBRANCH  10  11
ENDBRANCH   5  10
ENDBRANCH   3   5
BRANCH   2  18
HETATM   18  C           1     -21.549  -7.355  -4.019  0.00  0.00     0.186 C 
BRANCH  18  19
HETATM   19  C           1     -20.871  -8.719  -4.034  0.00  0.00     0.046 C 
BRANCH  19  20
HETATM   20  C           1     -19.585  -8.638  -4.847  0.00  0.00     0.116 C 
BRANCH  20  21
HETATM   21  C           1     -18.451  -9.246  -4.058  0.00  0.00     0.172 C 
HETATM   22  O           1     -18.490  -9.249  -2.809  0.00  0.00    -0.648 OA
HETATM   23  O           1     -17.474  -9.746  -4.654  0.00  0.00    -0.648 OA
ENDBRANCH  20  21
ENDBRANCH  19  20
ENDBRANCH  18  19
BRANCH  18  24
HETATM   24  C           1     -21.657  -6.862  -2.598  0.00  0.00     0.196 C 
HETATM   25  O           1     -22.426  -5.915  -2.321  0.00  0.00    -0.646 OA
HETATM   26  O           1     -20.980  -7.399  -1.696  0.00  0.00    -0.646 OA
ENDBRANCH  18  24
ENDBRANCH   2  18
TORSDOF 12
ENDMDL
