MODEL 1
REMARK VINA RESULT:      -6.1      0.000      0.000
REMARK  8 active torsions:
REMARK  status: ('A' for Active; 'I' for Inactive)
REMARK    1  A    between atoms: C_1  and  C_19 
REMARK    2  A    between atoms: C_1  and  C_2 
REMARK    3  A    between atoms: C_1  and  N_10 
REMARK    4  A    between atoms: C_2  and  C_3 
REMARK    5  A    between atoms: C_5  and  C_7 
REMARK    6  A    between atoms: C_7  and  C_12 
REMARK    7  A    between atoms: C_8  and  C_12 
REMARK    8  A    between atoms: C_12  and  N_18 
REMARK       I    between atoms: N_18  and  C_19 
ROOT
HETATM    1  O           1     -25.952  -6.312 -17.242  0.00  0.00    -0.271 OA
HETATM    2  H           1     -27.726  -6.362 -19.829  0.00  0.00     0.163 HD
HETATM    3  N           1     -27.510  -6.306 -18.842  0.00  0.00    -0.344 N 
HETATM    4  C           1     -26.209  -6.378 -18.421  0.00  0.00     0.249 C 
ENDROOT
BRANCH   4   5
HETATM    5  C           1     -25.097  -6.539 -19.429  0.00  0.00     0.284 C 
BRANCH   5   6
HETATM    6  C           1     -25.680  -6.519 -20.836  0.00  0.00     0.155 C 
BRANCH   6   7
HETATM    7  C           1     -25.540  -7.886 -21.458  0.00  0.00     0.175 C 
HETATM    8  O           1     -26.475  -8.711 -21.372  0.00  0.00    -0.648 OA
HETATM    9  O           1     -24.489  -8.194 -22.060  0.00  0.00    -0.648 OA
ENDBRANCH   6   7
ENDBRANCH   5   6
BRANCH   5  10
HETATM   10  N           1     -24.398  -7.845 -19.196  0.00  0.00    -0.066 N 
HETATM   11  H           1     -23.450  -7.815 -19.633  0.00  0.00     0.275 HD
HETATM   12  H           1     -24.303  -8.010 -18.169  0.00  0.00     0.275 HD
HETATM   13  H           1     -24.956  -8.619 -19.624  0.00  0.00     0.275 HD
ENDBRANCH   5  10
ENDBRANCH   4   5
BRANCH   3  14
HETATM   14  C           1     -28.579  -6.151 -17.874  0.00  0.00     0.195 C 
BRANCH  14  15
HETATM   15  C           1     -29.423  -4.938 -18.240  0.00  0.00     0.149 C 
BRANCH  15  16
HETATM   16  C           1     -28.984  -3.753 -17.415  0.00  0.00     0.175 C 
HETATM   17  O           1     -29.647  -2.694 -17.439  0.00  0.00    -0.648 OA
HETATM   18  O           1     -27.956  -3.831 -16.708  0.00  0.00    -0.648 OA
ENDBRANCH  15  16
ENDBRANCH  14  15
BRANCH  14  19
HETATM   19  C           1     -29.444  -7.388 -17.880  0.00  0.00     0.197 C 
HETATM   20  O           1     -29.377  -8.204 -16.936  0.00  0.00    -0.646 OA
HETATM   21  O           1     -30.228  -7.596 -18.830  0.00  0.00    -0.646 OA
ENDBRANCH  14  19
ENDBRANCH   3  14
TORSDOF 8
ENDMDL
MODEL 2
REMARK VINA RESULT:      -6.0      1.543      3.083
REMARK  8 active torsions:
REMARK  status: ('A' for Active; 'I' for Inactive)
REMARK    1  A    between atoms: C_1  and  C_19 
REMARK    2  A    between atoms: C_1  and  C_2 
REMARK    3  A    between atoms: C_1  and  N_10 
REMARK    4  A    between atoms: C_2  and  C_3 
REMARK    5  A    between atoms: C_5  and  C_7 
REMARK    6  A    between atoms: C_7  and  C_12 
REMARK    7  A    between atoms: C_8  and  C_12 
REMARK    8  A    between atoms: C_12  and  N_18 
REMARK       I    between atoms: N_18  and  C_19 
ROOT
HETATM    1  O           1     -27.332  -5.551 -20.592  0.00  0.00    -0.271 OA
HETATM    2  H           1     -27.372  -7.247 -17.953  0.00  0.00     0.163 HD
HETATM    3  N           1     -27.612  -6.497 -18.588  0.00  0.00    -0.344 N 
HETATM    4  C           1     -27.046  -6.447 -19.834  0.00  0.00     0.249 C 
ENDROOT
BRANCH   4   5
HETATM    5  C           1     -26.064  -7.511 -20.260  0.00  0.00     0.284 C 
BRANCH   5   6
HETATM    6  C           1     -24.967  -6.880 -21.107  0.00  0.00     0.155 C 
BRANCH   6   7
HETATM    7  C           1     -24.100  -7.964 -21.698  0.00  0.00     0.175 C 
HETATM    8  O           1     -23.206  -8.497 -21.004  0.00  0.00    -0.648 OA
HETATM    9  O           1     -24.274  -8.330 -22.879  0.00  0.00    -0.648 OA
ENDBRANCH   6   7
ENDBRANCH   5   6
BRANCH   5  10
HETATM   10  N           1     -26.778  -8.556 -21.066  0.00  0.00    -0.066 N 
HETATM   11  H           1     -27.514  -8.102 -21.651  0.00  0.00     0.275 HD
HETATM   12  H           1     -26.093  -9.044 -21.686  0.00  0.00     0.275 HD
HETATM   13  H           1     -27.221  -9.249 -20.421  0.00  0.00     0.275 HD
ENDBRANCH   5  10
ENDBRANCH   4   5
BRANCH   3  14
HETATM   14  C           1     -28.556  -5.475 -18.179  0.00  0.00     0.195 C 
BRANCH  14  15
HETATM   15  C           1     -29.916  -6.113 -17.926  0.00  0.00     0.149 C 
BRANCH  15  16
HETATM   16  C           1     -29.775  -7.615 -17.928  0.00  0.00     0.175 C 
HETATM   17  O           1     -30.046  -8.267 -18.959  0.00  0.00    -0.648 OA
HETATM   18  O           1     -29.387  -8.207 -16.897  0.00  0.00    -0.648 OA
ENDBRANCH  15  16
ENDBRANCH  14  15
BRANCH  14  19
HETATM   19  C           1     -28.064  -4.817 -16.913  0.00  0.00     0.197 C 
HETATM   20  O           1     -27.582  -5.512 -15.993  0.00  0.00    -0.646 OA
HETATM   21  O           1     -28.139  -3.576 -16.785  0.00  0.00    -0.646 OA
ENDBRANCH  14  19
ENDBRANCH   3  14
TORSDOF 8
ENDMDL
MODEL 3
REMARK VINA RESULT:      -5.9      1.798      2.586
REMARK  8 active torsions:
REMARK  status: ('A' for Active; 'I' for Inactive)
REMARK    1  A    between atoms: C_1  and  C_19 
REMARK    2  A    between atoms: C_1  and  C_2 
REMARK    3  A    between atoms: C_1  and  N_10 
REMARK    4  A    between atoms: C_2  and  C_3 
REMARK    5  A    between atoms: C_5  and  C_7 
REMARK    6  A    between atoms: C_7  and  C_12 
REMARK    7  A    between atoms: C_8  and  C_12 
REMARK    8  A    between atoms: C_12  and  N_18 
REMARK       I    between atoms: N_18  and  C_19 
ROOT
HETATM    1  O           1     -24.596  -6.472 -18.333  0.00  0.00    -0.271 OA
HETATM    2  H           1     -27.697  -6.934 -18.428  0.00  0.00     0.163 HD
HETATM    3  N           1     -26.807  -6.624 -18.060  0.00  0.00    -0.344 N 
HETATM    4  C           1     -25.658  -6.841 -18.773  0.00  0.00     0.249 C 
ENDROOT
BRANCH   4   5
HETATM    5  C           1     -25.720  -7.543 -20.108  0.00  0.00     0.284 C 
BRANCH   5   6
HETATM    6  C           1     -24.749  -6.879 -21.076  0.00  0.00     0.155 C 
BRANCH   6   7
HETATM    7  C           1     -23.932  -7.937 -21.775  0.00  0.00     0.175 C 
HETATM    8  O           1     -22.899  -8.388 -21.234  0.00  0.00    -0.648 OA
HETATM    9  O           1     -24.288  -8.364 -22.894  0.00  0.00    -0.648 OA
ENDBRANCH   6   7
ENDBRANCH   5   6
BRANCH   5  10
HETATM   10  N           1     -27.113  -7.451 -20.656  0.00  0.00    -0.066 N 
HETATM   11  H           1     -27.744  -7.032 -19.937  0.00  0.00     0.275 HD
HETATM   12  H           1     -27.111  -6.850 -21.511  0.00  0.00     0.275 HD
HETATM   13  H           1     -27.453  -8.409 -20.904  0.00  0.00     0.275 HD
ENDBRANCH   5  10
ENDBRANCH   4   5
BRANCH   3  14
HETATM   14  C           1     -26.748  -5.950 -16.778  0.00  0.00     0.195 C 
BRANCH  14  15
HETATM   15  C           1     -28.006  -5.112 -16.587  0.00  0.00     0.149 C 
BRANCH  15  16
HETATM   16  C           1     -28.988  -5.422 -17.689  0.00  0.00     0.175 C 
HETATM   17  O           1     -29.054  -4.683 -18.695  0.00  0.00    -0.648 OA
HETATM   18  O           1     -29.737  -6.419 -17.596  0.00  0.00    -0.648 OA
ENDBRANCH  15  16
ENDBRANCH  14  15
BRANCH  14  19
HETATM   19  C           1     -26.654  -6.976 -15.675  0.00  0.00     0.197 C 
HETATM   20  O           1     -25.538  -7.414 -15.321  0.00  0.00    -0.646 OA
HETATM   21  O           1     -27.693  -7.389 -15.116  0.00  0.00    -0.646 OA
ENDBRANCH  14  19
ENDBRANCH   3  14
TORSDOF 8
ENDMDL
MODEL 4
REMARK VINA RESULT:      -5.9     11.381     13.100
REMARK  8 active torsions:
REMARK  status: ('A' for Active; 'I' for Inactive)
REMARK    1  A    between atoms: C_1  and  C_19 
REMARK    2  A    between atoms: C_1  and  C_2 
REMARK    3  A    between atoms: C_1  and  N_10 
REMARK    4  A    between atoms: C_2  and  C_3 
REMARK    5  A    between atoms: C_5  and  C_7 
REMARK    6  A    between atoms: C_7  and  C_12 
REMARK    7  A    between atoms: C_8  and  C_12 
REMARK    8  A    between atoms: C_12  and  N_18 
REMARK       I    between atoms: N_18  and  C_19 
ROOT
HETATM    1  O           1     -21.504  -3.210  -7.261  0.00  0.00    -0.271 OA
HETATM    2  H           1     -22.398  -5.771  -8.835  0.00  0.00     0.163 HD
HETATM    3  N           1     -22.276  -4.785  -8.642  0.00  0.00    -0.344 N 
HETATM    4  C           1     -21.649  -4.386  -7.492  0.00  0.00     0.249 C 
ENDROOT
BRANCH   4   5
HETATM    5  C           1     -21.141  -5.416  -6.513  0.00  0.00     0.284 C 
BRANCH   5   6
HETATM    6  C           1     -22.312  -5.995  -5.731  0.00  0.00     0.155 C 
BRANCH   6   7
HETATM    7  C           1     -21.817  -6.545  -4.415  0.00  0.00     0.175 C 
HETATM    8  O           1     -21.035  -7.519  -4.400  0.00  0.00    -0.648 OA
HETATM    9  O           1     -22.189  -6.026  -3.342  0.00  0.00    -0.648 OA
ENDBRANCH   6   7
ENDBRANCH   5   6
BRANCH   5  10
HETATM   10  N           1     -20.177  -4.769  -5.562  0.00  0.00    -0.066 N 
HETATM   11  H           1     -19.330  -5.372  -5.461  0.00  0.00     0.275 HD
HETATM   12  H           1     -19.896  -3.835  -5.936  0.00  0.00     0.275 HD
HETATM   13  H           1     -20.635  -4.650  -4.630  0.00  0.00     0.275 HD
ENDBRANCH   5  10
ENDBRANCH   4   5
BRANCH   3  14
HETATM   14  C           1     -22.764  -3.796  -9.583  0.00  0.00     0.195 C 
BRANCH  14  15
HETATM   15  C           1     -22.200  -4.090 -10.967  0.00  0.00     0.149 C 
BRANCH  15  16
HETATM   16  C           1     -20.708  -3.865 -10.959  0.00  0.00     0.175 C 
HETATM   17  O           1     -19.937  -4.792 -10.633  0.00  0.00    -0.648 OA
HETATM   18  O           1     -20.243  -2.749 -11.280  0.00  0.00    -0.648 OA
ENDBRANCH  15  16
ENDBRANCH  14  15
BRANCH  14  19
HETATM   19  C           1     -24.271  -3.851  -9.631  0.00  0.00     0.197 C 
HETATM   20  O           1     -24.941  -2.808  -9.469  0.00  0.00    -0.646 OA
HETATM   21  O           1     -24.850  -4.940  -9.834  0.00  0.00    -0.646 OA
ENDBRANCH  14  19
ENDBRANCH   3  14
TORSDOF 8
ENDMDL
MODEL 5
REMARK VINA RESULT:      -5.4     12.373     13.838
REMARK  8 active torsions:
REMARK  status: ('A' for Active; 'I' for Inactive)
REMARK    1  A    between atoms: C_1  and  C_19 
REMARK    2  A    between atoms: C_1  and  C_2 
REMARK    3  A    between atoms: C_1  and  N_10 
REMARK    4  A    between atoms: C_2  and  C_3 
REMARK    5  A    between atoms: C_5  and  C_7 
REMARK    6  A    between atoms: C_7  and  C_12 
REMARK    7  A    between atoms: C_8  and  C_12 
REMARK    8  A    between atoms: C_12  and  N_18 
REMARK       I    between atoms: N_18  and  C_19 
ROOT
HETATM    1  O           1     -20.399  -3.954  -6.887  0.00  0.00    -0.271 OA
HETATM    2  H           1     -22.994  -5.715  -6.959  0.00  0.00     0.163 HD
HETATM    3  N           1     -22.086  -5.397  -6.645  0.00  0.00    -0.344 N 
HETATM    4  C           1     -21.484  -4.332  -7.261  0.00  0.00     0.249 C 
ENDROOT
BRANCH   4   5
HETATM    5  C           1     -22.173  -3.633  -8.407  0.00  0.00     0.284 C 
BRANCH   5   6
HETATM    6  C           1     -23.598  -4.155  -8.536  0.00  0.00     0.155 C 
BRANCH   6   7
HETATM    7  C           1     -24.013  -4.132  -9.987  0.00  0.00     0.175 C 
HETATM    8  O           1     -23.907  -5.165 -10.683  0.00  0.00    -0.648 OA
HETATM    9  O           1     -24.463  -3.082 -10.492  0.00  0.00    -0.648 OA
ENDBRANCH   6   7
ENDBRANCH   5   6
BRANCH   5  10
HETATM   10  N           1     -21.426  -3.902  -9.679  0.00  0.00    -0.066 N 
HETATM   11  H           1     -20.469  -4.256  -9.453  0.00  0.00     0.275 HD
HETATM   12  H           1     -21.939  -4.621 -10.237  0.00  0.00     0.275 HD
HETATM   13  H           1     -21.350  -3.018 -10.232  0.00  0.00     0.275 HD
ENDBRANCH   5  10
ENDBRANCH   4   5
BRANCH   3  14
HETATM   14  C           1     -21.424  -6.069  -5.544  0.00  0.00     0.195 C 
BRANCH  14  15
HETATM   15  C           1     -22.463  -6.520  -4.527  0.00  0.00     0.149 C 
BRANCH  15  16
HETATM   16  C           1     -21.853  -6.510  -3.147  0.00  0.00     0.175 C 
HETATM   17  O           1     -20.875  -7.244  -2.890  0.00  0.00    -0.648 OA
HETATM   18  O           1     -22.327  -5.767  -2.260  0.00  0.00    -0.648 OA
ENDBRANCH  15  16
ENDBRANCH  14  15
BRANCH  14  19
HETATM   19  C           1     -20.675  -7.270  -6.068  0.00  0.00     0.197 C 
HETATM   20  O           1     -21.199  -8.404  -6.021  0.00  0.00    -0.646 OA
HETATM   21  O           1     -19.530  -7.131  -6.550  0.00  0.00    -0.646 OA
ENDBRANCH  14  19
ENDBRANCH   3  14
TORSDOF 8
ENDMDL
MODEL 6
REMARK VINA RESULT:      -5.3     11.719     13.297
REMARK  8 active torsions:
REMARK  status: ('A' for Active; 'I' for Inactive)
REMARK    1  A    between atoms: C_1  and  C_19 
REMARK    2  A    between atoms: C_1  and  C_2 
REMARK    3  A    between atoms: C_1  and  N_10 
REMARK    4  A    between atoms: C_2  and  C_3 
REMARK    5  A    between atoms: C_5  and  C_7 
REMARK    6  A    between atoms: C_7  and  C_12 
REMARK    7  A    between atoms: C_8  and  C_12 
REMARK    8  A    between atoms: C_12  and  N_18 
REMARK       I    between atoms: N_18  and  C_19 
ROOT
HETATM    1  O           1     -23.815  -4.409  -6.825  0.00  0.00    -0.271 OA
HETATM    2  H           1     -21.175  -5.156  -8.345  0.00  0.00     0.163 HD
HETATM    3  N           1     -21.797  -5.023  -7.559  0.00  0.00    -0.344 N 
HETATM    4  C           1     -23.073  -4.568  -7.764  0.00  0.00     0.249 C 
ENDROOT
BRANCH   4   5
HETATM    5  C           1     -23.550  -4.265  -9.163  0.00  0.00     0.284 C 
BRANCH   5   6
HETATM    6  C           1     -22.376  -3.784 -10.007  0.00  0.00     0.155 C 
BRANCH   6   7
HETATM    7  C           1     -22.604  -4.164 -11.450  0.00  0.00     0.175 C 
HETATM    8  O           1     -21.723  -3.929 -12.304  0.00  0.00    -0.648 OA
HETATM    9  O           1     -23.673  -4.714 -11.790  0.00  0.00    -0.648 OA
ENDBRANCH   6   7
ENDBRANCH   5   6
BRANCH   5  10
HETATM   10  N           1     -24.599  -3.195  -9.112  0.00  0.00    -0.066 N 
HETATM   11  H           1     -24.431  -2.504  -9.878  0.00  0.00     0.275 HD
HETATM   12  H           1     -25.542  -3.628  -9.235  0.00  0.00     0.275 HD
HETATM   13  H           1     -24.556  -2.709  -8.188  0.00  0.00     0.275 HD
ENDBRANCH   5  10
ENDBRANCH   4   5
BRANCH   3  14
HETATM   14  C           1     -21.339  -5.315  -6.214  0.00  0.00     0.195 C 
BRANCH  14  15
HETATM   15  C           1     -21.295  -6.823  -6.009  0.00  0.00     0.149 C 
BRANCH  15  16
HETATM   16  C           1     -21.848  -7.162  -4.647  0.00  0.00     0.175 C 
HETATM   17  O           1     -22.395  -6.275  -3.956  0.00  0.00    -0.648 OA
HETATM   18  O           1     -21.759  -8.330  -4.210  0.00  0.00    -0.648 OA
ENDBRANCH  15  16
ENDBRANCH  14  15
BRANCH  14  19
HETATM   19  C           1     -19.958  -4.739  -6.020  0.00  0.00     0.197 C 
HETATM   20  O           1     -19.595  -4.350  -4.889  0.00  0.00    -0.646 OA
HETATM   21  O           1     -19.175  -4.651  -6.991  0.00  0.00    -0.646 OA
ENDBRANCH  14  19
ENDBRANCH   3  14
TORSDOF 8
ENDMDL
MODEL 7
REMARK VINA RESULT:      -5.3     13.872     15.380
REMARK  8 active torsions:
REMARK  status: ('A' for Active; 'I' for Inactive)
REMARK    1  A    between atoms: C_1  and  C_19 
REMARK    2  A    between atoms: C_1  and  C_2 
REMARK    3  A    between atoms: C_1  and  N_10 
REMARK    4  A    between atoms: C_2  and  C_3 
REMARK    5  A    between atoms: C_5  and  C_7 
REMARK    6  A    between atoms: C_7  and  C_12 
REMARK    7  A    between atoms: C_8  and  C_12 
REMARK    8  A    between atoms: C_12  and  N_18 
REMARK       I    between atoms: N_18  and  C_19 
ROOT
HETATM    1  O           1     -22.557  -5.653  -5.631  0.00  0.00    -0.271 OA
HETATM    2  H           1     -19.842  -6.894  -4.669  0.00  0.00     0.163 HD
HETATM    3  N           1     -20.842  -6.741  -4.704  0.00  0.00    -0.344 N 
HETATM    4  C           1     -21.364  -5.836  -5.589  0.00  0.00     0.249 C 
ENDROOT
BRANCH   4   5
HETATM    5  C           1     -20.450  -5.067  -6.511  0.00  0.00     0.284 C 
BRANCH   5   6
HETATM    6  C           1     -21.237  -3.962  -7.203  0.00  0.00     0.155 C 
BRANCH   6   7
HETATM    7  C           1     -21.350  -4.270  -8.676  0.00  0.00     0.175 C 
HETATM    8  O           1     -22.353  -4.876  -9.112  0.00  0.00    -0.648 OA
HETATM    9  O           1     -20.442  -3.920  -9.459  0.00  0.00    -0.648 OA
ENDBRANCH   6   7
ENDBRANCH   5   6
BRANCH   5  10
HETATM   10  N           1     -19.884  -5.997  -7.543  0.00  0.00    -0.066 N 
HETATM   11  H           1     -20.288  -5.768  -8.479  0.00  0.00     0.275 HD
HETATM   12  H           1     -18.845  -5.888  -7.576  0.00  0.00     0.275 HD
HETATM   13  H           1     -20.123  -6.983  -7.291  0.00  0.00     0.275 HD
ENDBRANCH   5  10
ENDBRANCH   4   5
BRANCH   3  14
HETATM   14  C           1     -21.720  -7.480  -3.819  0.00  0.00     0.195 C 
BRANCH  14  15
HETATM   15  C           1     -21.289  -8.940  -3.779  0.00  0.00     0.149 C 
BRANCH  15  16
HETATM   16  C           1     -19.998  -9.104  -4.542  0.00  0.00     0.175 C 
HETATM   17  O           1     -20.022  -9.409  -5.754  0.00  0.00    -0.648 OA
HETATM   18  O           1     -18.903  -8.935  -3.962  0.00  0.00    -0.648 OA
ENDBRANCH  15  16
ENDBRANCH  14  15
BRANCH  14  19
HETATM   19  C           1     -21.641  -6.893  -2.431  0.00  0.00     0.197 C 
HETATM   20  O           1     -20.935  -7.442  -1.558  0.00  0.00    -0.646 OA
HETATM   21  O           1     -22.283  -5.857  -2.154  0.00  0.00    -0.646 OA
ENDBRANCH  14  19
ENDBRANCH   3  14
TORSDOF 8
ENDMDL
MODEL 8
REMARK VINA RESULT:      -5.1     15.370     16.659
REMARK  8 active torsions:
REMARK  status: ('A' for Active; 'I' for Inactive)
REMARK    1  A    between atoms: C_1  and  C_19 
REMARK    2  A    between atoms: C_1  and  C_2 
REMARK    3  A    between atoms: C_1  and  N_10 
REMARK    4  A    between atoms: C_2  and  C_3 
REMARK    5  A    between atoms: C_5  and  C_7 
REMARK    6  A    between atoms: C_7  and  C_12 
REMARK    7  A    between atoms: C_8  and  C_12 
REMARK    8  A    between atoms: C_12  and  N_18 
REMARK       I    between atoms: N_18  and  C_19 
ROOT
HETATM    1  O           1     -19.705  -8.091  -4.820  0.00  0.00    -0.271 OA
HETATM    2  H           1     -22.518  -7.635  -3.509  0.00  0.00     0.163 HD
HETATM    3  N           1     -21.560  -7.954  -3.585  0.00  0.00    -0.344 N 
HETATM    4  C           1     -20.848  -7.710  -4.729  0.00  0.00     0.249 C 
ENDROOT
BRANCH   4   5
HETATM    5  C           1     -21.489  -6.966  -5.874  0.00  0.00     0.284 C 
BRANCH   5   6
HETATM    6  C           1     -20.428  -6.165  -6.617  0.00  0.00     0.155 C 
BRANCH   6   7
HETATM    7  C           1     -20.469  -4.728  -6.158  0.00  0.00     0.175 C 
HETATM    8  O           1     -21.002  -3.856  -6.879  0.00  0.00    -0.648 OA
HETATM    9  O           1     -19.970  -4.409  -5.058  0.00  0.00    -0.648 OA
ENDBRANCH   6   7
ENDBRANCH   5   6
BRANCH   5  10
HETATM   10  N           1     -22.536  -6.034  -5.340  0.00  0.00    -0.066 N 
HETATM   11  H           1     -23.469  -6.502  -5.373  0.00  0.00     0.275 HD
HETATM   12  H           1     -22.306  -5.784  -4.352  0.00  0.00     0.275 HD
HETATM   13  H           1     -22.559  -5.166  -5.923  0.00  0.00     0.275 HD
ENDBRANCH   5  10
ENDBRANCH   4   5
BRANCH   3  14
HETATM   14  C           1     -20.944  -8.669  -2.485  0.00  0.00     0.195 C 
BRANCH  14  15
HETATM   15  C           1     -20.901  -7.769  -1.257  0.00  0.00     0.149 C 
BRANCH  15  16
HETATM   16  C           1     -22.131  -6.897  -1.228  0.00  0.00     0.175 C 
HETATM   17  O           1     -23.069  -7.164  -0.446  0.00  0.00    -0.648 OA
HETATM   18  O           1     -22.213  -5.907  -1.988  0.00  0.00    -0.648 OA
ENDBRANCH  15  16
ENDBRANCH  14  15
BRANCH  14  19
HETATM   19  C           1     -21.752  -9.906  -2.175  0.00  0.00     0.197 C 
HETATM   20  O           1     -22.423 -10.456  -3.074  0.00  0.00    -0.646 OA
HETATM   21  O           1     -21.749 -10.380  -1.019  0.00  0.00    -0.646 OA
ENDBRANCH  14  19
ENDBRANCH   3  14
TORSDOF 8
ENDMDL
MODEL 9
REMARK VINA RESULT:      -4.8     15.170     16.631
REMARK  8 active torsions:
REMARK  status: ('A' for Active; 'I' for Inactive)
REMARK    1  A    between atoms: C_1  and  C_19 
REMARK    2  A    between atoms: C_1  and  C_2 
REMARK    3  A    between atoms: C_1  and  N_10 
REMARK    4  A    between atoms: C_2  and  C_3 
REMARK    5  A    between atoms: C_5  and  C_7 
REMARK    6  A    between atoms: C_7  and  C_12 
REMARK    7  A    between atoms: C_8  and  C_12 
REMARK    8  A    between atoms: C_12  and  N_18 
REMARK       I    between atoms: N_18  and  C_19 
ROOT
HETATM    1  O           1     -22.374  -7.045  -4.975  0.00  0.00    -0.271 OA
HETATM    2  H           1     -19.776  -7.038  -3.217  0.00  0.00     0.163 HD
HETATM    3  N           1     -20.747  -7.198  -3.453  0.00  0.00    -0.344 N 
HETATM    4  C           1     -21.215  -6.855  -4.693  0.00  0.00     0.249 C 
ENDROOT
BRANCH   4   5
HETATM    5  C           1     -20.283  -6.239  -5.708  0.00  0.00     0.284 C 
BRANCH   5   6
HETATM    6  C           1     -20.348  -4.721  -5.602  0.00  0.00     0.155 C 
BRANCH   6   7
HETATM    7  C           1     -20.878  -4.149  -6.894  0.00  0.00     0.175 C 
HETATM    8  O           1     -22.111  -4.049  -7.074  0.00  0.00    -0.648 OA
HETATM    9  O           1     -20.085  -3.774  -7.783  0.00  0.00    -0.648 OA
ENDBRANCH   6   7
ENDBRANCH   5   6
BRANCH   5  10
HETATM   10  N           1     -20.696  -6.662  -7.087  0.00  0.00    -0.066 N 
HETATM   11  H           1     -20.123  -7.482  -7.387  0.00  0.00     0.275 HD
HETATM   12  H           1     -21.707  -6.928  -7.080  0.00  0.00     0.275 HD
HETATM   13  H           1     -20.548  -5.869  -7.752  0.00  0.00     0.275 HD
ENDBRANCH   5  10
ENDBRANCH   4   5
BRANCH   3  14
HETATM   14  C           1     -21.642  -7.790  -2.478  0.00  0.00     0.195 C 
BRANCH  14  15
HETATM   15  C           1     -20.874  -8.793  -1.627  0.00  0.00     0.149 C 
BRANCH  15  16
HETATM   16  C           1     -21.456 -10.170  -1.825  0.00  0.00     0.175 C 
HETATM   17  O           1     -21.076 -11.119  -1.106  0.00  0.00    -0.648 OA
HETATM   18  O           1     -22.319 -10.362  -2.710  0.00  0.00    -0.648 OA
ENDBRANCH  15  16
ENDBRANCH  14  15
BRANCH  14  19
HETATM   19  C           1     -22.207  -6.706  -1.593  0.00  0.00     0.197 C 
HETATM   20  O           1     -22.063  -5.504  -1.905  0.00  0.00    -0.646 OA
HETATM   21  O           1     -22.819  -7.010  -0.546  0.00  0.00    -0.646 OA
ENDBRANCH  14  19
ENDBRANCH   3  14
TORSDOF 8
ENDMDL
