MODEL 1
REMARK VINA RESULT:      -6.6      0.000      0.000
REMARK  12 active torsions:
REMARK  status: ('A' for Active; 'I' for Inactive)
REMARK    1  A    between atoms: N_1  and  C_15 
REMARK    2  A    between atoms: C_2  and  C_14 
REMARK    3  A    between atoms: C_2  and  C_3 
REMARK    4  A    between atoms: C_2  and  N_8 
REMARK    5  A    between atoms: C_3  and  C_4 
REMARK    6  A    between atoms: C_4  and  C_5 
REMARK       I    between atoms: C_5  and  N_6 
REMARK    7  A    between atoms: N_10  and  C_22 
REMARK       I    between atoms: N_10  and  C_14 
REMARK    8  A    between atoms: C_15  and  C_16 
REMARK    9  A    between atoms: C_16  and  C_28 
REMARK   10  A    between atoms: C_17  and  C_22 
REMARK   11  A    between atoms: C_18  and  C_28 
REMARK   12  A    between atoms: C_18  and  C_22 
ROOT
HETATM    1  N           1     -26.423  -6.700 -18.285  0.00  0.00    -0.345 N 
HETATM    2  C           1     -25.251  -6.901 -18.962  0.00  0.00     0.249 C 
HETATM    3  H           1     -27.293  -7.056 -18.663  0.00  0.00     0.163 HD
HETATM    4  O           1     -24.214  -6.477 -18.512  0.00  0.00    -0.271 OA
ENDROOT
BRANCH   1   5
HETATM    5  C           1     -26.420  -5.978 -17.028  0.00  0.00     0.185 C 
BRANCH   5   6
HETATM    6  C           1     -26.372  -6.961 -15.885  0.00  0.00     0.196 C 
HETATM    7  O           1     -27.435  -7.399 -15.391  0.00  0.00    -0.646 OA
HETATM    8  O           1     -25.270  -7.338 -15.430  0.00  0.00    -0.646 OA
ENDBRANCH   5   6
BRANCH   5   9
HETATM    9  C           1     -27.686  -5.137 -16.924  0.00  0.00     0.036 C 
BRANCH   9  10
HETATM   10  C           1     -28.620  -5.482 -18.077  0.00  0.00     0.004 C 
BRANCH  10  11
HETATM   11  C           1     -29.980  -5.892 -17.525  0.00  0.00     0.027 C 
BRANCH  11  12
HETATM   12  C           1     -30.344  -7.276 -18.047  0.00  0.00     0.229 C 
BRANCH  12  13
HETATM   13  N           1     -29.433  -8.298 -17.435  0.00  0.00    -0.079 N 
HETATM   14  H           1     -29.051  -7.931 -16.534  0.00  0.00     0.274 HD
HETATM   15  H           1     -29.968  -9.178 -17.254  0.00  0.00     0.274 HD
HETATM   16  H           1     -28.644  -8.498 -18.091  0.00  0.00     0.274 HD
ENDBRANCH  12  13
ENDBRANCH  11  12
ENDBRANCH  10  11
ENDBRANCH   9  10
ENDBRANCH   5   9
ENDBRANCH   1   5
BRANCH   2  17
HETATM   17  C           1     -25.254  -7.653 -20.271  0.00  0.00     0.275 C 
BRANCH  17  18
HETATM   18  C           1     -24.506  -6.844 -21.323  0.00  0.00     0.052 C 
BRANCH  18  19
HETATM   19  C           1     -24.098  -7.756 -22.472  0.00  0.00     0.105 C 
BRANCH  19  20
HETATM   20  C           1     -22.883  -8.557 -22.072  0.00  0.00     0.215 C 
HETATM   21  N           1     -22.501  -9.639 -22.819  0.00  0.00    -0.370 N 
HETATM   22  H           1     -21.685 -10.176 -22.551  0.00  0.00     0.159 HD
HETATM   23  H           1     -23.032  -9.900 -23.639  0.00  0.00     0.159 HD
HETATM   24  O           1     -22.249  -8.244 -21.093  0.00  0.00    -0.274 OA
ENDBRANCH  19  20
ENDBRANCH  18  19
ENDBRANCH  17  18
BRANCH  17  25
HETATM   25  N           1     -26.668  -7.868 -20.720  0.00  0.00    -0.066 N 
HETATM   26  H           1     -27.323  -7.609 -19.947  0.00  0.00     0.275 HD
HETATM   27  H           1     -26.863  -7.270 -21.555  0.00  0.00     0.275 HD
HETATM   28  H           1     -26.806  -8.873 -20.970  0.00  0.00     0.275 HD
ENDBRANCH  17  25
ENDBRANCH   2  17
TORSDOF 12
ENDMDL
MODEL 2
REMARK VINA RESULT:      -6.4     11.384     13.628
REMARK  12 active torsions:
REMARK  status: ('A' for Active; 'I' for Inactive)
REMARK    1  A    between atoms: N_1  and  C_15 
REMARK    2  A    between atoms: C_2  and  C_14 
REMARK    3  A    between atoms: C_2  and  C_3 
REMARK    4  A    between atoms: C_2  and  N_8 
REMARK    5  A    between atoms: C_3  and  C_4 
REMARK    6  A    between atoms: C_4  and  C_5 
REMARK       I    between atoms: C_5  and  N_6 
REMARK    7  A    between atoms: N_10  and  C_22 
REMARK       I    between atoms: N_10  and  C_14 
REMARK    8  A    between atoms: C_15  and  C_16 
REMARK    9  A    between atoms: C_16  and  C_28 
REMARK   10  A    between atoms: C_17  and  C_22 
REMARK   11  A    between atoms: C_18  and  C_28 
REMARK   12  A    between atoms: C_18  and  C_22 
ROOT
HETATM    1  N           1     -35.258  -0.944 -12.179  0.00  0.00    -0.345 N 
HETATM    2  C           1     -34.500  -2.071 -12.352  0.00  0.00     0.249 C 
HETATM    3  H           1     -35.089  -0.337 -11.387  0.00  0.00     0.163 HD
HETATM    4  O           1     -34.702  -2.795 -13.298  0.00  0.00    -0.271 OA
ENDROOT
BRANCH   1   5
HETATM    5  C           1     -36.304  -0.620 -13.130  0.00  0.00     0.185 C 
BRANCH   5   6
HETATM    6  C           1     -35.815   0.458 -14.065  0.00  0.00     0.196 C 
HETATM    7  O           1     -34.831   1.161 -13.749  0.00  0.00    -0.646 OA
HETATM    8  O           1     -36.395   0.648 -15.157  0.00  0.00    -0.646 OA
ENDBRANCH   5   6
BRANCH   5   9
HETATM    9  C           1     -37.534  -0.125 -12.380  0.00  0.00     0.036 C 
BRANCH   9  10
HETATM   10  C           1     -37.521  -0.682 -10.962  0.00  0.00     0.004 C 
BRANCH  10  11
HETATM   11  C           1     -38.075   0.363 -10.001  0.00  0.00     0.027 C 
BRANCH  11  12
HETATM   12  C           1     -37.339   0.271  -8.671  0.00  0.00     0.229 C 
BRANCH  12  13
HETATM   13  N           1     -36.305   1.355  -8.595  0.00  0.00    -0.079 N 
HETATM   14  H           1     -35.606   1.118  -7.855  0.00  0.00     0.274 HD
HETATM   15  H           1     -35.821   1.439  -9.518  0.00  0.00     0.274 HD
HETATM   16  H           1     -36.768   2.262  -8.360  0.00  0.00     0.274 HD
ENDBRANCH  12  13
ENDBRANCH  11  12
ENDBRANCH  10  11
ENDBRANCH   9  10
ENDBRANCH   5   9
ENDBRANCH   1   5
BRANCH   2  17
HETATM   17  C           1     -33.412  -2.408 -11.363  0.00  0.00     0.275 C 
BRANCH  17  18
HETATM   18  C           1     -33.088  -3.894 -11.451  0.00  0.00     0.052 C 
BRANCH  18  19
HETATM   19  C           1     -34.016  -4.673 -10.529  0.00  0.00     0.105 C 
BRANCH  19  20
HETATM   20  C           1     -34.518  -5.904 -11.243  0.00  0.00     0.215 C 
HETATM   21  N           1     -34.812  -5.847 -12.579  0.00  0.00    -0.370 N 
HETATM   22  H           1     -35.149  -6.673 -13.059  0.00  0.00     0.159 HD
HETATM   23  H           1     -34.693  -4.981 -13.087  0.00  0.00     0.159 HD
HETATM   24  O           1     -34.660  -6.938 -10.637  0.00  0.00    -0.274 OA
ENDBRANCH  19  20
ENDBRANCH  18  19
ENDBRANCH  17  18
BRANCH  17  25
HETATM   25  N           1     -33.879  -2.081  -9.976  0.00  0.00    -0.066 N 
HETATM   26  H           1     -34.907  -1.895  -9.989  0.00  0.00     0.275 HD
HETATM   27  H           1     -33.680  -2.887  -9.343  0.00  0.00     0.275 HD
HETATM   28  H           1     -33.377  -1.233  -9.630  0.00  0.00     0.275 HD
ENDBRANCH  17  25
ENDBRANCH   2  17
TORSDOF 12
ENDMDL
MODEL 3
REMARK VINA RESULT:      -6.3     11.066     12.954
REMARK  12 active torsions:
REMARK  status: ('A' for Active; 'I' for Inactive)
REMARK    1  A    between atoms: N_1  and  C_15 
REMARK    2  A    between atoms: C_2  and  C_14 
REMARK    3  A    between atoms: C_2  and  C_3 
REMARK    4  A    between atoms: C_2  and  N_8 
REMARK    5  A    between atoms: C_3  and  C_4 
REMARK    6  A    between atoms: C_4  and  C_5 
REMARK       I    between atoms: C_5  and  N_6 
REMARK    7  A    between atoms: N_10  and  C_22 
REMARK       I    between atoms: N_10  and  C_14 
REMARK    8  A    between atoms: C_15  and  C_16 
REMARK    9  A    between atoms: C_16  and  C_28 
REMARK   10  A    between atoms: C_17  and  C_22 
REMARK   11  A    between atoms: C_18  and  C_28 
REMARK   12  A    between atoms: C_18  and  C_22 
ROOT
HETATM    1  N           1     -35.134  -2.192 -12.305  0.00  0.00    -0.345 N 
HETATM    2  C           1     -34.058  -2.906 -11.852  0.00  0.00     0.249 C 
HETATM    3  H           1     -35.779  -2.611 -12.964  0.00  0.00     0.163 HD
HETATM    4  O           1     -33.290  -2.406 -11.066  0.00  0.00    -0.271 OA
ENDROOT
BRANCH   1   5
HETATM    5  C           1     -35.353  -0.836 -11.840  0.00  0.00     0.185 C 
BRANCH   5   6
HETATM    6  C           1     -36.312  -0.852 -10.677  0.00  0.00     0.196 C 
HETATM    7  O           1     -36.247   0.037  -9.800  0.00  0.00    -0.646 OA
HETATM    8  O           1     -37.173  -1.755 -10.588  0.00  0.00    -0.646 OA
ENDBRANCH   5   6
BRANCH   5   9
HETATM    9  C           1     -35.938  -0.002 -12.973  0.00  0.00     0.036 C 
BRANCH   9  10
HETATM   10  C           1     -34.827   0.796 -13.641  0.00  0.00     0.004 C 
BRANCH  10  11
HETATM   11  C           1     -35.272   1.218 -15.036  0.00  0.00     0.027 C 
BRANCH  11  12
HETATM   12  C           1     -36.447   0.355 -15.477  0.00  0.00     0.229 C 
BRANCH  12  13
HETATM   13  N           1     -37.575   1.237 -15.925  0.00  0.00    -0.079 N 
HETATM   14  H           1     -37.881   0.953 -16.883  0.00  0.00     0.274 HD
HETATM   15  H           1     -38.377   1.141 -15.260  0.00  0.00     0.274 HD
HETATM   16  H           1     -37.254   2.231 -15.942  0.00  0.00     0.274 HD
ENDBRANCH  12  13
ENDBRANCH  11  12
ENDBRANCH  10  11
ENDBRANCH   9  10
ENDBRANCH   5   9
ENDBRANCH   1   5
BRANCH   2  17
HETATM   17  C           1     -33.831  -4.318 -12.335  0.00  0.00     0.275 C 
BRANCH  17  18
HETATM   18  C           1     -34.542  -5.293 -11.406  0.00  0.00     0.052 C 
BRANCH  18  19
HETATM   19  C           1     -33.530  -6.273 -10.827  0.00  0.00     0.105 C 
BRANCH  19  20
HETATM   20  C           1     -34.259  -7.443 -10.212  0.00  0.00     0.215 C 
HETATM   21  N           1     -33.739  -8.705 -10.318  0.00  0.00    -0.370 N 
HETATM   22  H           1     -34.228  -9.490  -9.905  0.00  0.00     0.159 HD
HETATM   23  H           1     -32.867  -8.853 -10.808  0.00  0.00     0.159 HD
HETATM   24  O           1     -35.300  -7.266  -9.626  0.00  0.00    -0.274 OA
ENDBRANCH  19  20
ENDBRANCH  18  19
ENDBRANCH  17  18
BRANCH  17  25
HETATM   25  N           1     -32.361  -4.613 -12.339  0.00  0.00    -0.066 N 
HETATM   26  H           1     -31.840  -3.798 -11.944  0.00  0.00     0.275 HD
HETATM   27  H           1     -32.175  -5.460 -11.756  0.00  0.00     0.275 HD
HETATM   28  H           1     -32.043  -4.788 -13.319  0.00  0.00     0.275 HD
ENDBRANCH  17  25
ENDBRANCH   2  17
TORSDOF 12
ENDMDL
MODEL 4
REMARK VINA RESULT:      -6.1     10.986     13.130
REMARK  12 active torsions:
REMARK  status: ('A' for Active; 'I' for Inactive)
REMARK    1  A    between atoms: N_1  and  C_15 
REMARK    2  A    between atoms: C_2  and  C_14 
REMARK    3  A    between atoms: C_2  and  C_3 
REMARK    4  A    between atoms: C_2  and  N_8 
REMARK    5  A    between atoms: C_3  and  C_4 
REMARK    6  A    between atoms: C_4  and  C_5 
REMARK       I    between atoms: C_5  and  N_6 
REMARK    7  A    between atoms: N_10  and  C_22 
REMARK       I    between atoms: N_10  and  C_14 
REMARK    8  A    between atoms: C_15  and  C_16 
REMARK    9  A    between atoms: C_16  and  C_28 
REMARK   10  A    between atoms: C_17  and  C_22 
REMARK   11  A    between atoms: C_18  and  C_28 
REMARK   12  A    between atoms: C_18  and  C_22 
ROOT
HETATM    1  N           1     -35.579  -2.917 -11.321  0.00  0.00    -0.345 N 
HETATM    2  C           1     -35.506  -1.711 -10.677  0.00  0.00     0.249 C 
HETATM    3  H           1     -36.366  -3.120 -11.926  0.00  0.00     0.163 HD
HETATM    4  O           1     -34.568  -1.469  -9.956  0.00  0.00    -0.271 OA
ENDROOT
BRANCH   1   5
HETATM    5  C           1     -34.532  -3.902 -11.138  0.00  0.00     0.185 C 
BRANCH   5   6
HETATM    6  C           1     -33.538  -3.794 -12.267  0.00  0.00     0.196 C 
HETATM    7  O           1     -32.332  -4.056 -12.067  0.00  0.00    -0.646 OA
HETATM    8  O           1     -33.919  -3.440 -13.405  0.00  0.00    -0.646 OA
ENDBRANCH   5   6
BRANCH   5   9
HETATM    9  C           1     -35.145  -5.297 -11.131  0.00  0.00     0.036 C 
BRANCH   9  10
HETATM   10  C           1     -34.342  -6.199 -10.203  0.00  0.00     0.004 C 
BRANCH  10  11
HETATM   11  C           1     -34.942  -7.599 -10.210  0.00  0.00     0.027 C 
BRANCH  11  12
HETATM   12  C           1     -33.983  -8.567  -9.528  0.00  0.00     0.229 C 
BRANCH  12  13
HETATM   13  N           1     -33.437  -9.528 -10.542  0.00  0.00    -0.079 N 
HETATM   14  H           1     -33.363 -10.480 -10.116  0.00  0.00     0.274 HD
HETATM   15  H           1     -34.078  -9.565 -11.367  0.00  0.00     0.274 HD
HETATM   16  H           1     -32.491  -9.210 -10.849  0.00  0.00     0.274 HD
ENDBRANCH  12  13
ENDBRANCH  11  12
ENDBRANCH  10  11
ENDBRANCH   9  10
ENDBRANCH   5   9
ENDBRANCH   1   5
BRANCH   2  17
HETATM   17  C           1     -36.596  -0.686 -10.867  0.00  0.00     0.275 C 
BRANCH  17  18
HETATM   18  C           1     -36.674  -0.293 -12.337  0.00  0.00     0.052 C 
BRANCH  18  19
HETATM   19  C           1     -35.360   0.349 -12.762  0.00  0.00     0.105 C 
BRANCH  19  20
HETATM   20  C           1     -35.215   0.254 -14.261  0.00  0.00     0.215 C 
HETATM   21  N           1     -35.048  -0.968 -14.856  0.00  0.00    -0.370 N 
HETATM   22  H           1     -34.951  -1.031 -15.863  0.00  0.00     0.159 HD
HETATM   23  H           1     -35.023  -1.806 -14.292  0.00  0.00     0.159 HD
HETATM   24  O           1     -35.247   1.255 -14.935  0.00  0.00    -0.274 OA
ENDBRANCH  19  20
ENDBRANCH  18  19
ENDBRANCH  17  18
BRANCH  17  25
HETATM   25  N           1     -36.290   0.528 -10.042  0.00  0.00    -0.066 N 
HETATM   26  H           1     -35.971   1.303 -10.666  0.00  0.00     0.275 HD
HETATM   27  H           1     -37.149   0.826  -9.529  0.00  0.00     0.275 HD
HETATM   28  H           1     -35.535   0.302  -9.356  0.00  0.00     0.275 HD
ENDBRANCH  17  25
ENDBRANCH   2  17
TORSDOF 12
ENDMDL
MODEL 5
REMARK VINA RESULT:      -6.1     10.459     13.003
REMARK  12 active torsions:
REMARK  status: ('A' for Active; 'I' for Inactive)
REMARK    1  A    between atoms: N_1  and  C_15 
REMARK    2  A    between atoms: C_2  and  C_14 
REMARK    3  A    between atoms: C_2  and  C_3 
REMARK    4  A    between atoms: C_2  and  N_8 
REMARK    5  A    between atoms: C_3  and  C_4 
REMARK    6  A    between atoms: C_4  and  C_5 
REMARK       I    between atoms: C_5  and  N_6 
REMARK    7  A    between atoms: N_10  and  C_22 
REMARK       I    between atoms: N_10  and  C_14 
REMARK    8  A    between atoms: C_15  and  C_16 
REMARK    9  A    between atoms: C_16  and  C_28 
REMARK   10  A    between atoms: C_17  and  C_22 
REMARK   11  A    between atoms: C_18  and  C_28 
REMARK   12  A    between atoms: C_18  and  C_22 
ROOT
HETATM    1  N           1     -35.968  -0.338 -12.480  0.00  0.00    -0.345 N 
HETATM    2  C           1     -36.783  -0.289 -13.578  0.00  0.00     0.249 C 
HETATM    3  H           1     -35.015  -0.000 -12.541  0.00  0.00     0.163 HD
HETATM    4  O           1     -37.919  -0.692 -13.504  0.00  0.00    -0.271 OA
ENDROOT
BRANCH   1   5
HETATM    5  C           1     -36.467  -0.874 -11.229  0.00  0.00     0.185 C 
BRANCH   5   6
HETATM    6  C           1     -36.943   0.257 -10.352  0.00  0.00     0.196 C 
HETATM    7  O           1     -36.206   0.695  -9.442  0.00  0.00    -0.646 OA
HETATM    8  O           1     -38.075   0.756 -10.535  0.00  0.00    -0.646 OA
ENDBRANCH   5   6
BRANCH   5   9
HETATM    9  C           1     -35.351  -1.632 -10.521  0.00  0.00     0.036 C 
BRANCH   9  10
HETATM   10  C           1     -34.372  -2.174 -11.555  0.00  0.00     0.004 C 
BRANCH  10  11
HETATM   11  C           1     -33.555  -3.303 -10.939  0.00  0.00     0.027 C 
BRANCH  11  12
HETATM   12  C           1     -32.793  -4.036 -12.035  0.00  0.00     0.229 C 
BRANCH  12  13
HETATM   13  N           1     -33.604  -4.033 -13.297  0.00  0.00    -0.079 N 
HETATM   14  H           1     -33.089  -3.512 -14.042  0.00  0.00     0.274 HD
HETATM   15  H           1     -33.767  -5.018 -13.608  0.00  0.00     0.274 HD
HETATM   16  H           1     -34.523  -3.568 -13.118  0.00  0.00     0.274 HD
ENDBRANCH  12  13
ENDBRANCH  11  12
ENDBRANCH  10  11
ENDBRANCH   9  10
ENDBRANCH   5   9
ENDBRANCH   1   5
BRANCH   2  17
HETATM   17  C           1     -36.263   0.270 -14.880  0.00  0.00     0.275 C 
BRANCH  17  18
HETATM   18  C           1     -36.616  -0.681 -16.017  0.00  0.00     0.052 C 
BRANCH  18  19
HETATM   19  C           1     -35.392  -0.899 -16.896  0.00  0.00     0.105 C 
BRANCH  19  20
HETATM   20  C           1     -34.730  -2.202 -16.522  0.00  0.00     0.215 C 
HETATM   21  N           1     -33.882  -2.817 -17.404  0.00  0.00    -0.370 N 
HETATM   22  H           1     -33.438  -3.692 -17.153  0.00  0.00     0.159 HD
HETATM   23  H           1     -33.700  -2.397 -18.306  0.00  0.00     0.159 HD
HETATM   24  O           1     -34.948  -2.703 -15.445  0.00  0.00    -0.274 OA
ENDBRANCH  19  20
ENDBRANCH  18  19
ENDBRANCH  17  18
BRANCH  17  25
HETATM   25  N           1     -34.774   0.420 -14.799  0.00  0.00    -0.066 N 
HETATM   26  H           1     -34.416  -0.095 -13.963  0.00  0.00     0.275 HD
HETATM   27  H           1     -34.337   0.025 -15.663  0.00  0.00     0.275 HD
HETATM   28  H           1     -34.529   1.432 -14.716  0.00  0.00     0.275 HD
ENDBRANCH  17  25
ENDBRANCH   2  17
TORSDOF 12
ENDMDL
MODEL 6
REMARK VINA RESULT:      -5.9     11.453     12.726
REMARK  12 active torsions:
REMARK  status: ('A' for Active; 'I' for Inactive)
REMARK    1  A    between atoms: N_1  and  C_15 
REMARK    2  A    between atoms: C_2  and  C_14 
REMARK    3  A    between atoms: C_2  and  C_3 
REMARK    4  A    between atoms: C_2  and  N_8 
REMARK    5  A    between atoms: C_3  and  C_4 
REMARK    6  A    between atoms: C_4  and  C_5 
REMARK       I    between atoms: C_5  and  N_6 
REMARK    7  A    between atoms: N_10  and  C_22 
REMARK       I    between atoms: N_10  and  C_14 
REMARK    8  A    between atoms: C_15  and  C_16 
REMARK    9  A    between atoms: C_16  and  C_28 
REMARK   10  A    between atoms: C_17  and  C_22 
REMARK   11  A    between atoms: C_18  and  C_28 
REMARK   12  A    between atoms: C_18  and  C_22 
ROOT
HETATM    1  N           1     -35.189  -1.841 -12.276  0.00  0.00    -0.345 N 
HETATM    2  C           1     -35.668  -0.610 -11.917  0.00  0.00     0.249 C 
HETATM    3  H           1     -35.110  -2.088 -13.255  0.00  0.00     0.163 HD
HETATM    4  O           1     -35.762  -0.315 -10.750  0.00  0.00    -0.271 OA
ENDROOT
BRANCH   1   5
HETATM    5  C           1     -34.795  -2.791 -11.255  0.00  0.00     0.185 C 
BRANCH   5   6
HETATM    6  C           1     -33.325  -2.628 -10.958  0.00  0.00     0.196 C 
HETATM    7  O           1     -32.491  -3.397 -11.484  0.00  0.00    -0.646 OA
HETATM    8  O           1     -32.940  -1.724 -10.184  0.00  0.00    -0.646 OA
ENDBRANCH   5   6
BRANCH   5   9
HETATM    9  C           1     -35.060  -4.207 -11.751  0.00  0.00     0.036 C 
BRANCH   9  10
HETATM   10  C           1     -35.031  -5.171 -10.573  0.00  0.00     0.004 C 
BRANCH  10  11
HETATM   11  C           1     -34.148  -6.365 -10.915  0.00  0.00     0.027 C 
BRANCH  11  12
HETATM   12  C           1     -34.663  -7.603 -10.191  0.00  0.00     0.229 C 
BRANCH  12  13
HETATM   13  N           1     -33.644  -8.699 -10.287  0.00  0.00    -0.079 N 
HETATM   14  H           1     -33.169  -8.653 -11.217  0.00  0.00     0.274 HD
HETATM   15  H           1     -32.936  -8.583  -9.527  0.00  0.00     0.274 HD
HETATM   16  H           1     -34.118  -9.625 -10.184  0.00  0.00     0.274 HD
ENDBRANCH  12  13
ENDBRANCH  11  12
ENDBRANCH  10  11
ENDBRANCH   9  10
ENDBRANCH   5   9
ENDBRANCH   1   5
BRANCH   2  17
HETATM   17  C           1     -36.079   0.380 -12.980  0.00  0.00     0.275 C 
BRANCH  17  18
HETATM   18  C           1     -36.749  -0.360 -14.131  0.00  0.00     0.052 C 
BRANCH  18  19
HETATM   19  C           1     -36.322   0.262 -15.453  0.00  0.00     0.105 C 
BRANCH  19  20
HETATM   20  C           1     -36.001  -0.830 -16.443  0.00  0.00     0.215 C 
HETATM   21  N           1     -34.834  -1.537 -16.328  0.00  0.00    -0.370 N 
HETATM   22  H           1     -34.619  -2.270 -16.992  0.00  0.00     0.159 HD
HETATM   23  H           1     -34.188  -1.327 -15.578  0.00  0.00     0.159 HD
HETATM   24  O           1     -36.773  -1.081 -17.338  0.00  0.00    -0.274 OA
ENDBRANCH  19  20
ENDBRANCH  18  19
ENDBRANCH  17  18
BRANCH  17  25
HETATM   25  N           1     -34.865   1.098 -13.489  0.00  0.00    -0.066 N 
HETATM   26  H           1     -35.118   2.084 -13.729  0.00  0.00     0.275 HD
HETATM   27  H           1     -34.127   1.100 -12.750  0.00  0.00     0.275 HD
HETATM   28  H           1     -34.505   0.614 -14.341  0.00  0.00     0.275 HD
ENDBRANCH  17  25
ENDBRANCH   2  17
TORSDOF 12
ENDMDL
MODEL 7
REMARK VINA RESULT:      -5.9     11.767     13.921
REMARK  12 active torsions:
REMARK  status: ('A' for Active; 'I' for Inactive)
REMARK    1  A    between atoms: N_1  and  C_15 
REMARK    2  A    between atoms: C_2  and  C_14 
REMARK    3  A    between atoms: C_2  and  C_3 
REMARK    4  A    between atoms: C_2  and  N_8 
REMARK    5  A    between atoms: C_3  and  C_4 
REMARK    6  A    between atoms: C_4  and  C_5 
REMARK       I    between atoms: C_5  and  N_6 
REMARK    7  A    between atoms: N_10  and  C_22 
REMARK       I    between atoms: N_10  and  C_14 
REMARK    8  A    between atoms: C_15  and  C_16 
REMARK    9  A    between atoms: C_16  and  C_28 
REMARK   10  A    between atoms: C_17  and  C_22 
REMARK   11  A    between atoms: C_18  and  C_28 
REMARK   12  A    between atoms: C_18  and  C_22 
ROOT
HETATM    1  N           1     -21.326  -6.303  -6.569  0.00  0.00    -0.345 N 
HETATM    2  C           1     -21.066  -5.048  -7.047  0.00  0.00     0.249 C 
HETATM    3  H           1     -21.865  -6.955  -7.125  0.00  0.00     0.163 HD
HETATM    4  O           1     -20.423  -4.270  -6.382  0.00  0.00    -0.271 OA
ENDROOT
BRANCH   1   5
HETATM    5  C           1     -20.830  -6.701  -5.265  0.00  0.00     0.185 C 
BRANCH   5   6
HETATM    6  C           1     -20.428  -8.154  -5.303  0.00  0.00     0.196 C 
HETATM    7  O           1     -21.232  -9.035  -4.927  0.00  0.00    -0.646 OA
HETATM    8  O           1     -19.291  -8.478  -5.710  0.00  0.00    -0.646 OA
ENDBRANCH   5   6
BRANCH   5   9
HETATM    9  C           1     -21.924  -6.501  -4.225  0.00  0.00     0.036 C 
BRANCH   9  10
HETATM   10  C           1     -21.294  -6.118  -2.893  0.00  0.00     0.004 C 
BRANCH  10  11
HETATM   11  C           1     -22.296  -6.353  -1.769  0.00  0.00     0.027 C 
BRANCH  11  12
HETATM   12  C           1     -21.954  -7.650  -1.047  0.00  0.00     0.229 C 
BRANCH  12  13
HETATM   13  N           1     -22.850  -7.809   0.146  0.00  0.00    -0.079 N 
HETATM   14  H           1     -22.352  -8.354   0.886  0.00  0.00     0.274 HD
HETATM   15  H           1     -23.103  -6.865   0.519  0.00  0.00     0.274 HD
HETATM   16  H           1     -23.718  -8.317  -0.136  0.00  0.00     0.274 HD
ENDBRANCH  12  13
ENDBRANCH  11  12
ENDBRANCH  10  11
ENDBRANCH   9  10
ENDBRANCH   5   9
ENDBRANCH   1   5
BRANCH   2  17
HETATM   17  C           1     -21.582  -4.634  -8.403  0.00  0.00     0.275 C 
BRANCH  17  18
HETATM   18  C           1     -20.473  -3.933  -9.177  0.00  0.00     0.052 C 
BRANCH  18  19
HETATM   19  C           1     -20.381  -4.521 -10.578  0.00  0.00     0.105 C 
BRANCH  19  20
HETATM   20  C           1     -21.465  -3.928 -11.445  0.00  0.00     0.215 C 
HETATM   21  N           1     -22.375  -4.748 -12.058  0.00  0.00    -0.370 N 
HETATM   22  H           1     -23.102  -4.350 -12.640  0.00  0.00     0.159 HD
HETATM   23  H           1     -22.320  -5.749 -11.930  0.00  0.00     0.159 HD
HETATM   24  O           1     -21.530  -2.732 -11.598  0.00  0.00    -0.274 OA
ENDBRANCH  19  20
ENDBRANCH  18  19
ENDBRANCH  17  18
BRANCH  17  25
HETATM   25  N           1     -22.740  -3.697  -8.232  0.00  0.00    -0.066 N 
HETATM   26  H           1     -23.424  -3.841  -9.009  0.00  0.00     0.275 HD
HETATM   27  H           1     -23.209  -3.887  -7.318  0.00  0.00     0.275 HD
HETATM   28  H           1     -22.397  -2.711  -8.249  0.00  0.00     0.275 HD
ENDBRANCH  17  25
ENDBRANCH   2  17
TORSDOF 12
ENDMDL
MODEL 8
REMARK VINA RESULT:      -5.9     12.045     14.508
REMARK  12 active torsions:
REMARK  status: ('A' for Active; 'I' for Inactive)
REMARK    1  A    between atoms: N_1  and  C_15 
REMARK    2  A    between atoms: C_2  and  C_14 
REMARK    3  A    between atoms: C_2  and  C_3 
REMARK    4  A    between atoms: C_2  and  N_8 
REMARK    5  A    between atoms: C_3  and  C_4 
REMARK    6  A    between atoms: C_4  and  C_5 
REMARK       I    between atoms: C_5  and  N_6 
REMARK    7  A    between atoms: N_10  and  C_22 
REMARK       I    between atoms: N_10  and  C_14 
REMARK    8  A    between atoms: C_15  and  C_16 
REMARK    9  A    between atoms: C_16  and  C_28 
REMARK   10  A    between atoms: C_17  and  C_22 
REMARK   11  A    between atoms: C_18  and  C_28 
REMARK   12  A    between atoms: C_18  and  C_22 
ROOT
HETATM    1  N           1     -21.439  -5.771  -5.800  0.00  0.00    -0.345 N 
HETATM    2  C           1     -20.678  -4.720  -6.237  0.00  0.00     0.249 C 
HETATM    3  H           1     -22.289  -6.018  -6.290  0.00  0.00     0.163 HD
HETATM    4  O           1     -19.664  -4.425  -5.651  0.00  0.00    -0.271 OA
ENDROOT
BRANCH   1   5
HETATM    5  C           1     -21.028  -6.529  -4.634  0.00  0.00     0.185 C 
BRANCH   5   6
HETATM    6  C           1     -20.614  -7.916  -5.058  0.00  0.00     0.196 C 
HETATM    7  O           1     -21.188  -8.474  -6.018  0.00  0.00    -0.646 OA
HETATM    8  O           1     -19.696  -8.508  -4.448  0.00  0.00    -0.646 OA
ENDBRANCH   5   6
BRANCH   5   9
HETATM    9  C           1     -22.191  -6.621  -3.655  0.00  0.00     0.036 C 
BRANCH   9  10
HETATM   10  C           1     -21.774  -6.031  -2.314  0.00  0.00     0.004 C 
BRANCH  10  11
HETATM   11  C           1     -22.234  -6.948  -1.189  0.00  0.00     0.027 C 
BRANCH  11  12
HETATM   12  C           1     -21.818  -8.380  -1.497  0.00  0.00     0.229 C 
BRANCH  12  13
HETATM   13  N           1     -20.325  -8.496  -1.413  0.00  0.00    -0.079 N 
HETATM   14  H           1     -19.954  -8.889  -2.308  0.00  0.00     0.274 HD
HETATM   15  H           1     -19.911  -7.550  -1.251  0.00  0.00     0.274 HD
HETATM   16  H           1     -20.069  -9.129  -0.622  0.00  0.00     0.274 HD
ENDBRANCH  12  13
ENDBRANCH  11  12
ENDBRANCH  10  11
ENDBRANCH   9  10
ENDBRANCH   5   9
ENDBRANCH   1   5
BRANCH   2  17
HETATM   17  C           1     -21.106  -3.931  -7.450  0.00  0.00     0.275 C 
BRANCH  17  18
HETATM   18  C           1     -22.519  -4.336  -7.847  0.00  0.00     0.052 C 
BRANCH  18  19
HETATM   19  C           1     -22.587  -4.533  -9.356  0.00  0.00     0.105 C 
BRANCH  19  20
HETATM   20  C           1     -23.826  -3.860  -9.895  0.00  0.00     0.215 C 
HETATM   21  N           1     -24.675  -3.206  -9.043  0.00  0.00    -0.370 N 
HETATM   22  H           1     -25.506  -2.755  -9.405  0.00  0.00     0.159 HD
HETATM   23  H           1     -24.471  -3.172  -8.053  0.00  0.00     0.159 HD
HETATM   24  O           1     -24.069  -3.900 -11.077  0.00  0.00    -0.274 OA
ENDBRANCH  19  20
ENDBRANCH  18  19
ENDBRANCH  17  18
BRANCH  17  25
HETATM   25  N           1     -20.168  -4.213  -8.585  0.00  0.00    -0.066 N 
HETATM   26  H           1     -20.211  -3.431  -9.276  0.00  0.00     0.275 HD
HETATM   27  H           1     -19.193  -4.299  -8.218  0.00  0.00     0.275 HD
HETATM   28  H           1     -20.444  -5.106  -9.052  0.00  0.00     0.275 HD
ENDBRANCH  17  25
ENDBRANCH   2  17
TORSDOF 12
ENDMDL
MODEL 9
REMARK VINA RESULT:      -5.7     12.891     15.840
REMARK  12 active torsions:
REMARK  status: ('A' for Active; 'I' for Inactive)
REMARK    1  A    between atoms: N_1  and  C_15 
REMARK    2  A    between atoms: C_2  and  C_14 
REMARK    3  A    between atoms: C_2  and  C_3 
REMARK    4  A    between atoms: C_2  and  N_8 
REMARK    5  A    between atoms: C_3  and  C_4 
REMARK    6  A    between atoms: C_4  and  C_5 
REMARK       I    between atoms: C_5  and  N_6 
REMARK    7  A    between atoms: N_10  and  C_22 
REMARK       I    between atoms: N_10  and  C_14 
REMARK    8  A    between atoms: C_15  and  C_16 
REMARK    9  A    between atoms: C_16  and  C_28 
REMARK   10  A    between atoms: C_17  and  C_22 
REMARK   11  A    between atoms: C_18  and  C_28 
REMARK   12  A    between atoms: C_18  and  C_22 
ROOT
HETATM    1  N           1     -21.024  -5.367  -4.949  0.00  0.00    -0.345 N 
HETATM    2  C           1     -21.399  -6.502  -4.282  0.00  0.00     0.249 C 
HETATM    3  H           1     -20.688  -4.564  -4.432  0.00  0.00     0.163 HD
HETATM    4  O           1     -21.800  -7.460  -4.900  0.00  0.00    -0.271 OA
ENDROOT
BRANCH   1   5
HETATM    5  C           1     -21.108  -5.314  -6.395  0.00  0.00     0.185 C 
BRANCH   5   6
HETATM    6  C           1     -19.749  -5.591  -6.988  0.00  0.00     0.196 C 
HETATM    7  O           1     -19.400  -6.768  -7.228  0.00  0.00    -0.646 OA
HETATM    8  O           1     -18.971  -4.645  -7.239  0.00  0.00    -0.646 OA
ENDBRANCH   5   6
BRANCH   5   9
HETATM    9  C           1     -21.578  -3.929  -6.824  0.00  0.00     0.036 C 
BRANCH   9  10
HETATM   10  C           1     -21.979  -3.962  -8.293  0.00  0.00     0.004 C 
BRANCH  10  11
HETATM   11  C           1     -23.482  -4.189  -8.404  0.00  0.00     0.027 C 
BRANCH  11  12
HETATM   12  C           1     -23.996  -3.563  -9.694  0.00  0.00     0.229 C 
BRANCH  12  13
HETATM   13  N           1     -25.496  -3.558  -9.685  0.00  0.00    -0.079 N 
HETATM   14  H           1     -25.852  -4.222 -10.410  0.00  0.00     0.274 HD
HETATM   15  H           1     -25.839  -3.856  -8.742  0.00  0.00     0.274 HD
HETATM   16  H           1     -25.843  -2.595  -9.894  0.00  0.00     0.274 HD
ENDBRANCH  12  13
ENDBRANCH  11  12
ENDBRANCH  10  11
ENDBRANCH   9  10
ENDBRANCH   5   9
ENDBRANCH   1   5
BRANCH   2  17
HETATM   17  C           1     -21.311  -6.558  -2.777  0.00  0.00     0.275 C 
BRANCH  17  18
HETATM   18  C           1     -21.461  -8.001  -2.313  0.00  0.00     0.052 C 
BRANCH  18  19
HETATM   19  C           1     -21.385  -8.057  -0.793  0.00  0.00     0.105 C 
BRANCH  19  20
HETATM   20  C           1     -22.618  -8.738  -0.252  0.00  0.00     0.215 C 
HETATM   21  N           1     -23.498  -8.039   0.530  0.00  0.00    -0.370 N 
HETATM   22  H           1     -24.326  -8.496   0.893  0.00  0.00     0.159 HD
HETATM   23  H           1     -23.322  -7.066   0.744  0.00  0.00     0.159 HD
HETATM   24  O           1     -22.828  -9.899  -0.508  0.00  0.00    -0.274 OA
ENDBRANCH  19  20
ENDBRANCH  18  19
ENDBRANCH  17  18
BRANCH  17  25
HETATM   25  N           1     -22.407  -5.726  -2.182  0.00  0.00    -0.066 N 
HETATM   26  H           1     -23.011  -6.326  -1.575  0.00  0.00     0.275 HD
HETATM   27  H           1     -21.989  -4.960  -1.607  0.00  0.00     0.275 HD
HETATM   28  H           1     -22.986  -5.312  -2.947  0.00  0.00     0.275 HD
ENDBRANCH  17  25
ENDBRANCH   2  17
TORSDOF 12
ENDMDL
