MODEL 1
REMARK VINA RESULT:      -9.5      0.000      0.000
REMARK  9 active torsions:
REMARK  status: ('A' for Active; 'I' for Inactive)
REMARK    1  A    between atoms: C_1  and  C_25 
REMARK    2  A    between atoms: C_5  and  C_11 
REMARK    3  A    between atoms: N_6  and  C_25 
REMARK       I    between atoms: N_6  and  C_23 
REMARK    4  A    between atoms: N_10  and  C_12 
REMARK    5  A    between atoms: C_11  and  C_12 
REMARK    6  A    between atoms: C_12  and  C_23 
REMARK    7  A    between atoms: C_25  and  C_26 
REMARK    8  A    between atoms: C_26  and  C_29 
REMARK    9  A    between atoms: C_32  and  O_33 
ROOT
HETATM    1  H           1     -20.885  -4.256  -4.726  0.00  0.00     0.163 HD
HETATM    2  N           1     -21.071  -5.141  -5.182  0.00  0.00    -0.344 N 
HETATM    3  O           1     -21.538  -7.314  -4.973  0.00  0.00    -0.271 OA
HETATM    4  C           1     -21.317  -6.258  -4.430  0.00  0.00     0.249 C 
ENDROOT
BRANCH   4   5
HETATM    5  C           1     -21.314  -6.170  -2.923  0.00  0.00     0.278 C 
BRANCH   5   6
HETATM    6  N           1     -22.721  -6.019  -2.429  0.00  0.00    -0.066 N 
HETATM    7  H           1     -23.035  -5.031  -2.566  0.00  0.00     0.275 HD
HETATM    8  H           1     -23.349  -6.660  -2.965  0.00  0.00     0.275 HD
HETATM    9  H           1     -22.763  -6.259  -1.413  0.00  0.00     0.275 HD
ENDBRANCH   5   6
BRANCH   5  10
HETATM   10  C           1     -20.706  -7.440  -2.341  0.00  0.00     0.083 C 
BRANCH  10  11
HETATM   11  C           1     -21.649  -8.032  -1.341  0.00  0.00    -0.028 A 
HETATM   12  C           1     -22.043  -7.454  -0.155  0.00  0.00     0.096 A 
HETATM   13  N           1     -22.907  -8.316   0.464  0.00  0.00    -0.365 N 
HETATM   14  C           1     -23.082  -9.447  -0.301  0.00  0.00     0.042 A 
HETATM   15  H           1     -23.370  -8.141   1.390  0.00  0.00     0.165 HD
HETATM   16  C           1     -22.299  -9.293  -1.445  0.00  0.00    -0.002 A 
HETATM   17  C           1     -23.866 -10.584  -0.070  0.00  0.00     0.030 A 
HETATM   18  C           1     -22.295 -10.320  -2.409  0.00  0.00     0.014 A 
HETATM   19  C           1     -23.073 -11.464  -2.193  0.00  0.00     0.001 A 
HETATM   20  C           1     -23.846 -11.591  -1.040  0.00  0.00     0.002 A 
ENDBRANCH  10  11
ENDBRANCH   5  10
ENDBRANCH   4   5
BRANCH   2  21
HETATM   21  C           1     -21.074  -5.225  -6.629  0.00  0.00     0.189 C 
BRANCH  21  22
HETATM   22  C           1     -19.677  -5.516  -7.119  0.00  0.00     0.197 C 
HETATM   23  O           1     -19.346  -6.687  -7.406  0.00  0.00    -0.646 OA
HETATM   24  O           1     -18.850  -4.586  -7.237  0.00  0.00    -0.646 OA
ENDBRANCH  21  22
BRANCH  21  25
HETATM   25  C           1     -21.551  -3.902  -7.214  0.00  0.00     0.074 C 
BRANCH  25  26
HETATM   26  C           1     -22.106  -4.133  -8.586  0.00  0.00    -0.056 A 
HETATM   27  C           1     -21.259  -4.103  -9.693  0.00  0.00     0.010 A 
HETATM   28  C           1     -21.775  -4.317 -10.971  0.00  0.00     0.037 A 
HETATM   29  C           1     -23.139  -4.561 -11.141  0.00  0.00     0.065 A 
HETATM   30  C           1     -23.985  -4.591 -10.032  0.00  0.00     0.037 A 
HETATM   31  C           1     -23.468  -4.376  -8.754  0.00  0.00     0.010 A 
BRANCH  29  32
HETATM   32  O           1     -23.640  -4.769 -12.382  0.00  0.00    -0.361 OA
HETATM   33  H           1     -23.346  -5.647 -12.681  0.00  0.00     0.217 HD
ENDBRANCH  29  32
ENDBRANCH  25  26
ENDBRANCH  21  25
ENDBRANCH   2  21
TORSDOF 9
ENDMDL
MODEL 2
REMARK VINA RESULT:      -9.2      2.438      8.613
REMARK  9 active torsions:
REMARK  status: ('A' for Active; 'I' for Inactive)
REMARK    1  A    between atoms: C_1  and  C_25 
REMARK    2  A    between atoms: C_5  and  C_11 
REMARK    3  A    between atoms: N_6  and  C_25 
REMARK       I    between atoms: N_6  and  C_23 
REMARK    4  A    between atoms: N_10  and  C_12 
REMARK    5  A    between atoms: C_11  and  C_12 
REMARK    6  A    between atoms: C_12  and  C_23 
REMARK    7  A    between atoms: C_25  and  C_26 
REMARK    8  A    between atoms: C_26  and  C_29 
REMARK    9  A    between atoms: C_32  and  O_33 
ROOT
HETATM    1  H           1     -21.686  -8.381  -3.692  0.00  0.00     0.163 HD
HETATM    2  N           1     -20.844  -8.437  -4.252  0.00  0.00    -0.344 N 
HETATM    3  O           1     -19.667  -7.656  -5.980  0.00  0.00    -0.271 OA
HETATM    4  C           1     -20.670  -7.589  -5.311  0.00  0.00     0.249 C 
ENDROOT
BRANCH   4   5
HETATM    5  C           1     -21.731  -6.567  -5.643  0.00  0.00     0.278 C 
BRANCH   5   6
HETATM    6  N           1     -22.479  -6.203  -4.396  0.00  0.00    -0.066 N 
HETATM    7  H           1     -22.075  -6.719  -3.582  0.00  0.00     0.275 HD
HETATM    8  H           1     -22.398  -5.174  -4.229  0.00  0.00     0.275 HD
HETATM    9  H           1     -23.486  -6.460  -4.505  0.00  0.00     0.275 HD
ENDBRANCH   5   6
BRANCH   5  10
HETATM   10  C           1     -21.073  -5.321  -6.222  0.00  0.00     0.083 C 
BRANCH  10  11
HETATM   11  C           1     -21.930  -4.768  -7.317  0.00  0.00    -0.028 A 
HETATM   12  C           1     -23.255  -4.411  -7.209  0.00  0.00     0.096 A 
HETATM   13  N           1     -23.666  -3.952  -8.433  0.00  0.00    -0.365 N 
HETATM   14  C           1     -22.627  -4.006  -9.335  0.00  0.00     0.042 A 
HETATM   15  H           1     -24.634  -3.609  -8.651  0.00  0.00     0.165 HD
HETATM   16  C           1     -21.521  -4.517  -8.656  0.00  0.00    -0.002 A 
HETATM   17  C           1     -22.584  -3.645 -10.687  0.00  0.00     0.030 A 
HETATM   18  C           1     -20.310  -4.676  -9.357  0.00  0.00     0.014 A 
HETATM   19  C           1     -20.249  -4.321 -10.709  0.00  0.00     0.001 A 
HETATM   20  C           1     -21.371  -3.812 -11.362  0.00  0.00     0.002 A 
ENDBRANCH  10  11
ENDBRANCH   5  10
ENDBRANCH   4   5
BRANCH   2  21
HETATM   21  C           1     -19.826  -9.418  -3.933  0.00  0.00     0.189 C 
BRANCH  21  22
HETATM   22  C           1     -20.382 -10.806  -4.137  0.00  0.00     0.197 C 
HETATM   23  O           1     -21.548 -10.955  -4.562  0.00  0.00    -0.646 OA
HETATM   24  O           1     -19.677 -11.806  -3.881  0.00  0.00    -0.646 OA
ENDBRANCH  21  22
BRANCH  21  25
HETATM   25  C           1     -19.398  -9.253  -2.480  0.00  0.00     0.074 C 
BRANCH  25  26
HETATM   26  C           1     -20.581  -8.860  -1.651  0.00  0.00    -0.056 A 
HETATM   27  C           1     -20.938  -7.516  -1.541  0.00  0.00     0.010 A 
HETATM   28  C           1     -22.040  -7.149  -0.769  0.00  0.00     0.037 A 
HETATM   29  C           1     -22.785  -8.126  -0.107  0.00  0.00     0.065 A 
HETATM   30  C           1     -22.427  -9.470  -0.218  0.00  0.00     0.037 A 
HETATM   31  C           1     -21.325  -9.836  -0.990  0.00  0.00     0.010 A 
BRANCH  29  32
HETATM   32  O           1     -23.855  -7.769   0.643  0.00  0.00    -0.361 OA
HETATM   33  H           1     -24.659  -7.969   0.133  0.00  0.00     0.217 HD
ENDBRANCH  29  32
ENDBRANCH  25  26
ENDBRANCH  21  25
ENDBRANCH   2  21
TORSDOF 9
ENDMDL
MODEL 3
REMARK VINA RESULT:      -9.2      1.945      2.852
REMARK  9 active torsions:
REMARK  status: ('A' for Active; 'I' for Inactive)
REMARK    1  A    between atoms: C_1  and  C_25 
REMARK    2  A    between atoms: C_5  and  C_11 
REMARK    3  A    between atoms: N_6  and  C_25 
REMARK       I    between atoms: N_6  and  C_23 
REMARK    4  A    between atoms: N_10  and  C_12 
REMARK    5  A    between atoms: C_11  and  C_12 
REMARK    6  A    between atoms: C_12  and  C_23 
REMARK    7  A    between atoms: C_25  and  C_26 
REMARK    8  A    between atoms: C_26  and  C_29 
REMARK    9  A    between atoms: C_32  and  O_33 
ROOT
HETATM    1  H           1     -22.029  -6.888  -5.737  0.00  0.00     0.163 HD
HETATM    2  N           1     -21.104  -6.852  -6.146  0.00  0.00    -0.344 N 
HETATM    3  O           1     -19.091  -7.795  -6.358  0.00  0.00    -0.271 OA
HETATM    4  C           1     -20.196  -7.838  -5.871  0.00  0.00     0.249 C 
ENDROOT
BRANCH   4   5
HETATM    5  C           1     -20.574  -8.980  -4.959  0.00  0.00     0.278 C 
BRANCH   5   6
HETATM    6  N           1     -20.746 -10.230  -5.770  0.00  0.00    -0.066 N 
HETATM    7  H           1     -20.481 -11.060  -5.192  0.00  0.00     0.275 HD
HETATM    8  H           1     -21.744 -10.318  -6.065  0.00  0.00     0.275 HD
HETATM    9  H           1     -20.134 -10.185  -6.615  0.00  0.00     0.275 HD
ENDBRANCH   5   6
BRANCH   5  10
HETATM   10  C           1     -19.474  -9.192  -3.927  0.00  0.00     0.083 C 
BRANCH  10  11
HETATM   11  C           1     -20.091  -9.468  -2.591  0.00  0.00    -0.028 A 
HETATM   12  C           1     -19.923 -10.608  -1.838  0.00  0.00     0.096 A 
HETATM   13  N           1     -20.653 -10.462  -0.688  0.00  0.00    -0.365 N 
HETATM   14  C           1     -21.293  -9.244  -0.682  0.00  0.00     0.042 A 
HETATM   15  H           1     -20.715 -11.177   0.077  0.00  0.00     0.165 HD
HETATM   16  C           1     -20.955  -8.597  -1.871  0.00  0.00    -0.002 A 
HETATM   17  C           1     -22.138  -8.671   0.276  0.00  0.00     0.030 A 
HETATM   18  C           1     -21.483  -7.315  -2.120  0.00  0.00     0.014 A 
HETATM   19  C           1     -22.330  -6.728  -1.172  0.00  0.00     0.001 A 
HETATM   20  C           1     -22.650  -7.398   0.007  0.00  0.00     0.002 A 
ENDBRANCH  10  11
ENDBRANCH   5  10
ENDBRANCH   4   5
BRANCH   2  21
HETATM   21  C           1     -20.741  -5.755  -7.022  0.00  0.00     0.189 C 
BRANCH  21  22
HETATM   22  C           1     -19.814  -4.815  -6.293  0.00  0.00     0.197 C 
HETATM   23  O           1     -18.752  -4.439  -6.834  0.00  0.00    -0.646 OA
HETATM   24  O           1     -20.107  -4.412  -5.146  0.00  0.00    -0.646 OA
ENDBRANCH  21  22
BRANCH  21  25
HETATM   25  C           1     -21.996  -5.004  -7.443  0.00  0.00     0.074 C 
BRANCH  25  26
HETATM   26  C           1     -21.921  -4.681  -8.903  0.00  0.00    -0.056 A 
HETATM   27  C           1     -23.092  -4.551  -9.649  0.00  0.00     0.010 A 
HETATM   28  C           1     -23.022  -4.251 -11.010  0.00  0.00     0.037 A 
HETATM   29  C           1     -21.780  -4.082 -11.624  0.00  0.00     0.065 A 
HETATM   30  C           1     -20.610  -4.212 -10.877  0.00  0.00     0.037 A 
HETATM   31  C           1     -20.680  -4.513  -9.517  0.00  0.00     0.010 A 
BRANCH  29  32
HETATM   32  O           1     -21.712  -3.791 -12.945  0.00  0.00    -0.361 OA
HETATM   33  H           1     -22.372  -4.336 -13.407  0.00  0.00     0.217 HD
ENDBRANCH  29  32
ENDBRANCH  25  26
ENDBRANCH  21  25
ENDBRANCH   2  21
TORSDOF 9
ENDMDL
MODEL 4
REMARK VINA RESULT:      -8.8      3.819      8.708
REMARK  9 active torsions:
REMARK  status: ('A' for Active; 'I' for Inactive)
REMARK    1  A    between atoms: C_1  and  C_25 
REMARK    2  A    between atoms: C_5  and  C_11 
REMARK    3  A    between atoms: N_6  and  C_25 
REMARK       I    between atoms: N_6  and  C_23 
REMARK    4  A    between atoms: N_10  and  C_12 
REMARK    5  A    between atoms: C_11  and  C_12 
REMARK    6  A    between atoms: C_12  and  C_23 
REMARK    7  A    between atoms: C_25  and  C_26 
REMARK    8  A    between atoms: C_26  and  C_29 
REMARK    9  A    between atoms: C_32  and  O_33 
ROOT
HETATM    1  H           1     -20.169  -7.490  -3.368  0.00  0.00     0.163 HD
HETATM    2  N           1     -20.253  -8.169  -4.114  0.00  0.00    -0.344 N 
HETATM    3  O           1     -21.158  -8.716  -6.080  0.00  0.00    -0.271 OA
HETATM    4  C           1     -21.057  -7.906  -5.190  0.00  0.00     0.249 C 
ENDROOT
BRANCH   4   5
HETATM    5  C           1     -21.818  -6.605  -5.264  0.00  0.00     0.278 C 
BRANCH   5   6
HETATM    6  N           1     -22.051  -6.083  -3.877  0.00  0.00    -0.066 N 
HETATM    7  H           1     -22.061  -6.881  -3.202  0.00  0.00     0.275 HD
HETATM    8  H           1     -21.283  -5.422  -3.621  0.00  0.00     0.275 HD
HETATM    9  H           1     -22.968  -5.585  -3.841  0.00  0.00     0.275 HD
ENDBRANCH   5   6
BRANCH   5  10
HETATM   10  C           1     -21.009  -5.588  -6.059  0.00  0.00     0.083 C 
BRANCH  10  11
HETATM   11  C           1     -21.882  -4.958  -7.099  0.00  0.00    -0.028 A 
HETATM   12  C           1     -23.202  -4.599  -6.941  0.00  0.00     0.096 A 
HETATM   13  N           1     -23.633  -4.059  -8.124  0.00  0.00    -0.365 N 
HETATM   14  C           1     -22.613  -4.062  -9.048  0.00  0.00     0.042 A 
HETATM   15  H           1     -24.602  -3.696  -8.300  0.00  0.00     0.165 HD
HETATM   16  C           1     -21.498  -4.624  -8.427  0.00  0.00    -0.002 A 
HETATM   17  C           1     -22.592  -3.614 -10.375  0.00  0.00     0.030 A 
HETATM   18  C           1     -20.302  -4.747  -9.160  0.00  0.00     0.014 A 
HETATM   19  C           1     -20.264  -4.304 -10.488  0.00  0.00     0.001 A 
HETATM   20  C           1     -21.394  -3.746 -11.083  0.00  0.00     0.002 A 
ENDBRANCH  10  11
ENDBRANCH   5  10
ENDBRANCH   4   5
BRANCH   2  21
HETATM   21  C           1     -19.521  -9.418  -4.043  0.00  0.00     0.189 C 
BRANCH  21  22
HETATM   22  C           1     -20.383 -10.468  -3.386  0.00  0.00     0.197 C 
HETATM   23  O           1     -20.668 -11.518  -4.002  0.00  0.00    -0.646 OA
HETATM   24  O           1     -20.813 -10.288  -2.226  0.00  0.00    -0.646 OA
ENDBRANCH  21  22
BRANCH  21  25
HETATM   25  C           1     -18.253  -9.219  -3.224  0.00  0.00     0.074 C 
BRANCH  25  26
HETATM   26  C           1     -17.120  -9.958  -3.868  0.00  0.00    -0.056 A 
HETATM   27  C           1     -16.256 -10.724  -3.087  0.00  0.00     0.010 A 
HETATM   28  C           1     -15.201 -11.412  -3.687  0.00  0.00     0.037 A 
HETATM   29  C           1     -15.010 -11.332  -5.067  0.00  0.00     0.065 A 
HETATM   30  C           1     -15.876 -10.565  -5.847  0.00  0.00     0.037 A 
HETATM   31  C           1     -16.931  -9.877  -5.247  0.00  0.00     0.010 A 
BRANCH  29  32
HETATM   32  O           1     -13.986 -12.000  -5.649  0.00  0.00    -0.361 OA
HETATM   33  H           1     -14.364 -12.675  -6.240  0.00  0.00     0.217 HD
ENDBRANCH  29  32
ENDBRANCH  25  26
ENDBRANCH  21  25
ENDBRANCH   2  21
TORSDOF 9
ENDMDL
MODEL 5
REMARK VINA RESULT:      -8.5      1.499      2.185
REMARK  9 active torsions:
REMARK  status: ('A' for Active; 'I' for Inactive)
REMARK    1  A    between atoms: C_1  and  C_25 
REMARK    2  A    between atoms: C_5  and  C_11 
REMARK    3  A    between atoms: N_6  and  C_25 
REMARK       I    between atoms: N_6  and  C_23 
REMARK    4  A    between atoms: N_10  and  C_12 
REMARK    5  A    between atoms: C_11  and  C_12 
REMARK    6  A    between atoms: C_12  and  C_23 
REMARK    7  A    between atoms: C_25  and  C_26 
REMARK    8  A    between atoms: C_26  and  C_29 
REMARK    9  A    between atoms: C_32  and  O_33 
ROOT
HETATM    1  H           1     -21.642  -5.038  -4.999  0.00  0.00     0.163 HD
HETATM    2  N           1     -21.403  -5.819  -5.598  0.00  0.00    -0.344 N 
HETATM    3  O           1     -20.997  -8.007  -5.781  0.00  0.00    -0.271 OA
HETATM    4  C           1     -21.282  -7.075  -5.068  0.00  0.00     0.249 C 
ENDROOT
BRANCH   4   5
HETATM    5  C           1     -21.506  -7.296  -3.592  0.00  0.00     0.278 C 
BRANCH   5   6
HETATM    6  N           1     -22.286  -6.147  -3.027  0.00  0.00    -0.066 N 
HETATM    7  H           1     -22.081  -6.054  -2.006  0.00  0.00     0.275 HD
HETATM    8  H           1     -22.010  -5.266  -3.517  0.00  0.00     0.275 HD
HETATM    9  H           1     -23.307  -6.317  -3.164  0.00  0.00     0.275 HD
ENDBRANCH   5   6
BRANCH   5  10
HETATM   10  C           1     -22.285  -8.589  -3.383  0.00  0.00     0.083 C 
BRANCH  10  11
HETATM   11  C           1     -21.560  -9.456  -2.403  0.00  0.00    -0.028 A 
HETATM   12  C           1     -20.908 -10.635  -2.688  0.00  0.00     0.096 A 
HETATM   13  N           1     -20.379 -11.113  -1.519  0.00  0.00    -0.365 N 
HETATM   14  C           1     -20.676 -10.264  -0.478  0.00  0.00     0.042 A 
HETATM   15  H           1     -19.826 -12.001  -1.430  0.00  0.00     0.165 HD
HETATM   16  C           1     -21.421  -9.210  -1.009  0.00  0.00    -0.002 A 
HETATM   17  C           1     -20.347 -10.346   0.881  0.00  0.00     0.030 A 
HETATM   18  C           1     -21.859  -8.187  -0.146  0.00  0.00     0.014 A 
HETATM   19  C           1     -21.539  -8.255   1.215  0.00  0.00     0.001 A 
HETATM   20  C           1     -20.793  -9.320   1.718  0.00  0.00     0.002 A 
ENDBRANCH  10  11
ENDBRANCH   5  10
ENDBRANCH   4   5
BRANCH   2  21
HETATM   21  C           1     -21.189  -5.606  -7.016  0.00  0.00     0.189 C 
BRANCH  21  22
HETATM   22  C           1     -19.709  -5.504  -7.291  0.00  0.00     0.197 C 
HETATM   23  O           1     -19.074  -6.510  -7.674  0.00  0.00    -0.646 OA
HETATM   24  O           1     -19.119  -4.414  -7.136  0.00  0.00    -0.646 OA
ENDBRANCH  21  22
BRANCH  21  25
HETATM   25  C           1     -21.875  -4.316  -7.446  0.00  0.00     0.074 C 
BRANCH  25  26
HETATM   26  C           1     -22.330  -4.441  -8.867  0.00  0.00    -0.056 A 
HETATM   27  C           1     -21.412  -4.302  -9.907  0.00  0.00     0.010 A 
HETATM   28  C           1     -21.836  -4.418 -11.231  0.00  0.00     0.037 A 
HETATM   29  C           1     -23.178  -4.672 -11.514  0.00  0.00     0.065 A 
HETATM   30  C           1     -24.096  -4.811 -10.473  0.00  0.00     0.037 A 
HETATM   31  C           1     -23.672  -4.695  -9.149  0.00  0.00     0.010 A 
BRANCH  29  32
HETATM   32  O           1     -23.590  -4.785 -12.800  0.00  0.00    -0.361 OA
HETATM   33  H           1     -23.023  -4.214 -13.347  0.00  0.00     0.217 HD
ENDBRANCH  29  32
ENDBRANCH  25  26
ENDBRANCH  21  25
ENDBRANCH   2  21
TORSDOF 9
ENDMDL
MODEL 6
REMARK VINA RESULT:      -8.3      2.508      9.122
REMARK  9 active torsions:
REMARK  status: ('A' for Active; 'I' for Inactive)
REMARK    1  A    between atoms: C_1  and  C_25 
REMARK    2  A    between atoms: C_5  and  C_11 
REMARK    3  A    between atoms: N_6  and  C_25 
REMARK       I    between atoms: N_6  and  C_23 
REMARK    4  A    between atoms: N_10  and  C_12 
REMARK    5  A    between atoms: C_11  and  C_12 
REMARK    6  A    between atoms: C_12  and  C_23 
REMARK    7  A    between atoms: C_25  and  C_26 
REMARK    8  A    between atoms: C_26  and  C_29 
REMARK    9  A    between atoms: C_32  and  O_33 
ROOT
HETATM    1  H           1     -19.792  -7.191  -2.944  0.00  0.00     0.163 HD
HETATM    2  N           1     -20.776  -7.343  -3.126  0.00  0.00    -0.344 N 
HETATM    3  O           1     -22.476  -7.210  -4.568  0.00  0.00    -0.271 OA
HETATM    4  C           1     -21.301  -7.030  -4.351  0.00  0.00     0.249 C 
ENDROOT
BRANCH   4   5
HETATM    5  C           1     -20.413  -6.460  -5.429  0.00  0.00     0.278 C 
BRANCH   5   6
HETATM    6  N           1     -20.684  -7.166  -6.724  0.00  0.00    -0.066 N 
HETATM    7  H           1     -20.310  -8.141  -6.674  0.00  0.00     0.275 HD
HETATM    8  H           1     -21.714  -7.198  -6.894  0.00  0.00     0.275 HD
HETATM    9  H           1     -20.216  -6.654  -7.506  0.00  0.00     0.275 HD
ENDBRANCH   5   6
BRANCH   5  10
HETATM   10  C           1     -20.703  -4.973  -5.593  0.00  0.00     0.083 C 
BRANCH  10  11
HETATM   11  C           1     -20.559  -4.592  -7.033  0.00  0.00    -0.028 A 
HETATM   12  C           1     -19.375  -4.432  -7.717  0.00  0.00     0.096 A 
HETATM   13  N           1     -19.679  -4.083  -9.006  0.00  0.00    -0.365 N 
HETATM   14  C           1     -21.044  -4.013  -9.171  0.00  0.00     0.042 A 
HETATM   15  H           1     -18.973  -3.895  -9.759  0.00  0.00     0.165 HD
HETATM   16  C           1     -21.622  -4.330  -7.941  0.00  0.00    -0.002 A 
HETATM   17  C           1     -21.804  -3.697 -10.304  0.00  0.00     0.030 A 
HETATM   18  C           1     -23.027  -4.333  -7.832  0.00  0.00     0.014 A 
HETATM   19  C           1     -23.801  -4.018  -8.955  0.00  0.00     0.001 A 
HETATM   20  C           1     -23.196  -3.706 -10.172  0.00  0.00     0.002 A 
ENDBRANCH  10  11
ENDBRANCH   5  10
ENDBRANCH   4   5
BRANCH   2  21
HETATM   21  C           1     -21.629  -7.891  -2.090  0.00  0.00     0.189 C 
BRANCH  21  22
HETATM   22  C           1     -22.276  -6.765  -1.323  0.00  0.00     0.197 C 
HETATM   23  O           1     -22.985  -7.015  -0.324  0.00  0.00    -0.646 OA
HETATM   24  O           1     -22.104  -5.582  -1.687  0.00  0.00    -0.646 OA
ENDBRANCH  21  22
BRANCH  21  25
HETATM   25  C           1     -20.793  -8.737  -1.138  0.00  0.00     0.074 C 
BRANCH  25  26
HETATM   26  C           1     -21.539  -9.990  -0.796  0.00  0.00    -0.056 A 
HETATM   27  C           1     -22.630 -10.384  -1.570  0.00  0.00     0.010 A 
HETATM   28  C           1     -23.325 -11.551  -1.251  0.00  0.00     0.037 A 
HETATM   29  C           1     -22.929 -12.323  -0.158  0.00  0.00     0.065 A 
HETATM   30  C           1     -21.837 -11.928   0.615  0.00  0.00     0.037 A 
HETATM   31  C           1     -21.143 -10.761   0.296  0.00  0.00     0.010 A 
BRANCH  29  32
HETATM   32  O           1     -23.604 -13.456   0.152  0.00  0.00    -0.361 OA
HETATM   33  H           1     -23.785 -13.446   1.107  0.00  0.00     0.217 HD
ENDBRANCH  29  32
ENDBRANCH  25  26
ENDBRANCH  21  25
ENDBRANCH   2  21
TORSDOF 9
ENDMDL
MODEL 7
REMARK VINA RESULT:      -8.3      2.348      3.921
REMARK  9 active torsions:
REMARK  status: ('A' for Active; 'I' for Inactive)
REMARK    1  A    between atoms: C_1  and  C_25 
REMARK    2  A    between atoms: C_5  and  C_11 
REMARK    3  A    between atoms: N_6  and  C_25 
REMARK       I    between atoms: N_6  and  C_23 
REMARK    4  A    between atoms: N_10  and  C_12 
REMARK    5  A    between atoms: C_11  and  C_12 
REMARK    6  A    between atoms: C_12  and  C_23 
REMARK    7  A    between atoms: C_25  and  C_26 
REMARK    8  A    between atoms: C_26  and  C_29 
REMARK    9  A    between atoms: C_32  and  O_33 
ROOT
HETATM    1  H           1     -22.641  -8.919  -4.013  0.00  0.00     0.163 HD
HETATM    2  N           1     -21.763  -8.572  -4.380  0.00  0.00    -0.344 N 
HETATM    3  O           1     -19.854  -9.013  -5.451  0.00  0.00    -0.271 OA
HETATM    4  C           1     -20.902  -9.426  -5.014  0.00  0.00     0.249 C 
ENDROOT
BRANCH   4   5
HETATM    5  C           1     -21.262 -10.883  -5.170  0.00  0.00     0.278 C 
BRANCH   5   6
HETATM    6  N           1     -20.992 -11.317  -6.579  0.00  0.00    -0.066 N 
HETATM    7  H           1     -20.074 -11.815  -6.621  0.00  0.00     0.275 HD
HETATM    8  H           1     -21.751 -11.960  -6.897  0.00  0.00     0.275 HD
HETATM    9  H           1     -20.961 -10.479  -7.202  0.00  0.00     0.275 HD
ENDBRANCH   5   6
BRANCH   5  10
HETATM   10  C           1     -20.421 -11.719  -4.212  0.00  0.00     0.083 C 
BRANCH  10  11
HETATM   11  C           1     -20.596 -11.205  -2.817  0.00  0.00    -0.028 A 
HETATM   12  C           1     -19.619 -10.632  -2.035  0.00  0.00     0.096 A 
HETATM   13  N           1     -20.186 -10.300  -0.833  0.00  0.00    -0.365 N 
HETATM   14  C           1     -21.517 -10.650  -0.822  0.00  0.00     0.042 A 
HETATM   15  H           1     -19.678  -9.845  -0.035  0.00  0.00     0.165 HD
HETATM   16  C           1     -21.801 -11.223  -2.062  0.00  0.00    -0.002 A 
HETATM   17  C           1     -22.483 -10.504   0.182  0.00  0.00     0.030 A 
HETATM   18  C           1     -23.111 -11.673  -2.317  0.00  0.00     0.014 A 
HETATM   19  C           1     -24.088 -11.535  -1.325  0.00  0.00     0.001 A 
HETATM   20  C           1     -23.776 -10.958  -0.095  0.00  0.00     0.002 A 
ENDBRANCH  10  11
ENDBRANCH   5  10
ENDBRANCH   4   5
BRANCH   2  21
HETATM   21  C           1     -21.418  -7.172  -4.231  0.00  0.00     0.189 C 
BRANCH  21  22
HETATM   22  C           1     -21.452  -6.798  -2.770  0.00  0.00     0.197 C 
HETATM   23  O           1     -20.703  -7.383  -1.957  0.00  0.00    -0.646 OA
HETATM   24  O           1     -22.229  -5.904  -2.371  0.00  0.00    -0.646 OA
ENDBRANCH  21  22
BRANCH  21  25
HETATM   25  C           1     -22.420  -6.317  -4.995  0.00  0.00     0.074 C 
BRANCH  25  26
HETATM   26  C           1     -21.722  -5.605  -6.112  0.00  0.00    -0.056 A 
HETATM   27  C           1     -22.450  -4.806  -6.992  0.00  0.00     0.010 A 
HETATM   28  C           1     -21.800  -4.143  -8.033  0.00  0.00     0.037 A 
HETATM   29  C           1     -20.420  -4.279  -8.192  0.00  0.00     0.065 A 
HETATM   30  C           1     -19.692  -5.078  -7.311  0.00  0.00     0.037 A 
HETATM   31  C           1     -20.343  -5.741  -6.271  0.00  0.00     0.010 A 
BRANCH  29  32
HETATM   32  O           1     -19.788  -3.635  -9.203  0.00  0.00    -0.361 OA
HETATM   33  H           1     -20.460  -3.162  -9.724  0.00  0.00     0.217 HD
ENDBRANCH  29  32
ENDBRANCH  25  26
ENDBRANCH  21  25
ENDBRANCH   2  21
TORSDOF 9
ENDMDL
MODEL 8
REMARK VINA RESULT:      -8.3      5.119      7.705
REMARK  9 active torsions:
REMARK  status: ('A' for Active; 'I' for Inactive)
REMARK    1  A    between atoms: C_1  and  C_25 
REMARK    2  A    between atoms: C_5  and  C_11 
REMARK    3  A    between atoms: N_6  and  C_25 
REMARK       I    between atoms: N_6  and  C_23 
REMARK    4  A    between atoms: N_10  and  C_12 
REMARK    5  A    between atoms: C_11  and  C_12 
REMARK    6  A    between atoms: C_12  and  C_23 
REMARK    7  A    between atoms: C_25  and  C_26 
REMARK    8  A    between atoms: C_26  and  C_29 
REMARK    9  A    between atoms: C_32  and  O_33 
ROOT
HETATM    1  H           1     -18.724  -8.814  -2.933  0.00  0.00     0.163 HD
HETATM    2  N           1     -18.518  -9.343  -3.771  0.00  0.00    -0.344 N 
HETATM    3  O           1     -18.791  -9.576  -5.975  0.00  0.00    -0.271 OA
HETATM    4  C           1     -19.035  -8.945  -4.974  0.00  0.00     0.249 C 
ENDROOT
BRANCH   4   5
HETATM    5  C           1     -19.909  -7.717  -5.052  0.00  0.00     0.278 C 
BRANCH   5   6
HETATM    6  N           1     -19.881  -7.171  -6.448  0.00  0.00    -0.066 N 
HETATM    7  H           1     -19.759  -6.133  -6.414  0.00  0.00     0.275 HD
HETATM    8  H           1     -19.083  -7.597  -6.972  0.00  0.00     0.275 HD
HETATM    9  H           1     -20.778  -7.400  -6.931  0.00  0.00     0.275 HD
ENDBRANCH   5   6
BRANCH   5  10
HETATM   10  C           1     -21.340  -8.087  -4.681  0.00  0.00     0.083 C 
BRANCH  10  11
HETATM   11  C           1     -21.696  -7.455  -3.372  0.00  0.00    -0.028 A 
HETATM   12  C           1     -22.068  -6.144  -3.178  0.00  0.00     0.096 A 
HETATM   13  N           1     -22.308  -5.970  -1.841  0.00  0.00    -0.365 N 
HETATM   14  C           1     -22.097  -7.149  -1.162  0.00  0.00     0.042 A 
HETATM   15  H           1     -22.609  -5.067  -1.398  0.00  0.00     0.165 HD
HETATM   16  C           1     -21.710  -8.101  -2.105  0.00  0.00    -0.002 A 
HETATM   17  C           1     -22.218  -7.442   0.202  0.00  0.00     0.030 A 
HETATM   18  C           1     -21.430  -9.411  -1.670  0.00  0.00     0.014 A 
HETATM   19  C           1     -21.546  -9.721  -0.310  0.00  0.00     0.001 A 
HETATM   20  C           1     -21.935  -8.748   0.610  0.00  0.00     0.002 A 
ENDBRANCH  10  11
ENDBRANCH   5  10
ENDBRANCH   4   5
BRANCH   2  21
HETATM   21  C           1     -17.679 -10.522  -3.696  0.00  0.00     0.189 C 
BRANCH  21  22
HETATM   22  C           1     -18.060 -11.335  -2.484  0.00  0.00     0.197 C 
HETATM   23  O           1     -19.071 -12.070  -2.518  0.00  0.00    -0.646 OA
HETATM   24  O           1     -17.366 -11.274  -1.447  0.00  0.00    -0.646 OA
ENDBRANCH  21  22
BRANCH  21  25
HETATM   25  C           1     -16.219 -10.101  -3.585  0.00  0.00     0.074 C 
BRANCH  25  26
HETATM   26  C           1     -15.364 -11.048  -4.368  0.00  0.00    -0.056 A 
HETATM   27  C           1     -15.442 -11.068  -5.760  0.00  0.00     0.010 A 
HETATM   28  C           1     -14.645 -11.951  -6.490  0.00  0.00     0.037 A 
HETATM   29  C           1     -13.771 -12.813  -5.827  0.00  0.00     0.065 A 
HETATM   30  C           1     -13.693 -12.791  -4.434  0.00  0.00     0.037 A 
HETATM   31  C           1     -14.490 -11.909  -3.705  0.00  0.00     0.010 A 
BRANCH  29  32
HETATM   32  O           1     -12.997 -13.670  -6.535  0.00  0.00    -0.361 OA
HETATM   33  H           1     -12.292 -13.154  -6.963  0.00  0.00     0.217 HD
ENDBRANCH  29  32
ENDBRANCH  25  26
ENDBRANCH  21  25
ENDBRANCH   2  21
TORSDOF 9
ENDMDL
MODEL 9
REMARK VINA RESULT:      -8.2      3.472      9.156
REMARK  9 active torsions:
REMARK  status: ('A' for Active; 'I' for Inactive)
REMARK    1  A    between atoms: C_1  and  C_25 
REMARK    2  A    between atoms: C_5  and  C_11 
REMARK    3  A    between atoms: N_6  and  C_25 
REMARK       I    between atoms: N_6  and  C_23 
REMARK    4  A    between atoms: N_10  and  C_12 
REMARK    5  A    between atoms: C_11  and  C_12 
REMARK    6  A    between atoms: C_12  and  C_23 
REMARK    7  A    between atoms: C_25  and  C_26 
REMARK    8  A    between atoms: C_26  and  C_29 
REMARK    9  A    between atoms: C_32  and  O_33 
ROOT
HETATM    1  H           1     -20.426  -7.515  -1.499  0.00  0.00     0.163 HD
HETATM    2  N           1     -20.917  -8.373  -1.719  0.00  0.00    -0.344 N 
HETATM    3  O           1     -21.196 -10.086  -3.124  0.00  0.00    -0.271 OA
HETATM    4  C           1     -20.610  -9.063  -2.860  0.00  0.00     0.249 C 
ENDROOT
BRANCH   4   5
HETATM    5  C           1     -19.539  -8.546  -3.790  0.00  0.00     0.278 C 
BRANCH   5   6
HETATM    6  N           1     -18.327  -9.423  -3.692  0.00  0.00    -0.066 N 
HETATM    7  H           1     -17.958  -9.617  -4.650  0.00  0.00     0.275 HD
HETATM    8  H           1     -17.592  -8.939  -3.129  0.00  0.00     0.275 HD
HETATM    9  H           1     -18.585 -10.324  -3.230  0.00  0.00     0.275 HD
ENDBRANCH   5   6
BRANCH   5  10
HETATM   10  C           1     -20.059  -8.558  -5.222  0.00  0.00     0.083 C 
BRANCH  10  11
HETATM   11  C           1     -20.921  -7.355  -5.449  0.00  0.00    -0.028 A 
HETATM   12  C           1     -22.165  -7.132  -4.904  0.00  0.00     0.096 A 
HETATM   13  N           1     -22.611  -5.921  -5.361  0.00  0.00    -0.365 N 
HETATM   14  C           1     -21.676  -5.353  -6.197  0.00  0.00     0.042 A 
HETATM   15  H           1     -23.534  -5.488  -5.111  0.00  0.00     0.165 HD
HETATM   16  C           1     -20.600  -6.238  -6.269  0.00  0.00    -0.002 A 
HETATM   17  C           1     -21.700  -4.134  -6.887  0.00  0.00     0.030 A 
HETATM   18  C           1     -19.491  -5.894  -7.067  0.00  0.00     0.014 A 
HETATM   19  C           1     -19.500  -4.680  -7.764  0.00  0.00     0.001 A 
HETATM   20  C           1     -20.589  -3.815  -7.673  0.00  0.00     0.002 A 
ENDBRANCH  10  11
ENDBRANCH   5  10
ENDBRANCH   4   5
BRANCH   2  21
HETATM   21  C           1     -21.945  -8.869  -0.826  0.00  0.00     0.189 C 
BRANCH  21  22
HETATM   22  C           1     -22.710  -7.706  -0.245  0.00  0.00     0.197 C 
HETATM   23  O           1     -22.715  -6.604  -0.834  0.00  0.00    -0.646 OA
HETATM   24  O           1     -23.340  -7.845   0.826  0.00  0.00    -0.646 OA
ENDBRANCH  21  22
BRANCH  21  25
HETATM   25  C           1     -21.300  -9.664   0.302  0.00  0.00     0.074 C 
BRANCH  25  26
HETATM   26  C           1     -21.866 -11.050   0.324  0.00  0.00    -0.056 A 
HETATM   27  C           1     -23.167 -11.278  -0.122  0.00  0.00     0.010 A 
HETATM   28  C           1     -23.695 -12.570  -0.101  0.00  0.00     0.037 A 
HETATM   29  C           1     -22.921 -13.632   0.368  0.00  0.00     0.065 A 
HETATM   30  C           1     -21.620 -13.403   0.814  0.00  0.00     0.037 A 
HETATM   31  C           1     -21.092 -12.112   0.793  0.00  0.00     0.010 A 
BRANCH  29  32
HETATM   32  O           1     -23.434 -14.886   0.389  0.00  0.00    -0.361 OA
HETATM   33  H           1     -24.083 -14.932   1.111  0.00  0.00     0.217 HD
ENDBRANCH  29  32
ENDBRANCH  25  26
ENDBRANCH  21  25
ENDBRANCH   2  21
TORSDOF 9
ENDMDL
