MODEL 1
REMARK VINA RESULT:      -5.7      0.000      0.000
REMARK  8 active torsions:
REMARK  status: ('A' for Active; 'I' for Inactive)
REMARK    1  A    between atoms: N_4  and  C_23 
REMARK       I    between atoms: N_4  and  C_5 
REMARK    2  A    between atoms: C_5  and  C_6 
REMARK    3  A    between atoms: C_6  and  C_7 
REMARK    4  A    between atoms: C_6  and  N_9 
REMARK    5  A    between atoms: C_7  and  O_8 
REMARK    6  A    between atoms: C_11  and  C_20 
REMARK    7  A    between atoms: C_17  and  C_23 
REMARK    8  A    between atoms: C_20  and  C_23 
ROOT
HETATM    1  H           1     -19.575  -7.581  -3.922  0.00  0.00     0.163 HD
HETATM    2  N           1     -20.479  -8.012  -4.072  0.00  0.00    -0.344 N 
HETATM    3  C           1     -20.711  -8.738  -5.209  0.00  0.00     0.251 C 
HETATM    4  O           1     -21.146  -8.194  -6.194  0.00  0.00    -0.271 OA
ENDROOT
BRANCH   2   5
HETATM    5  C           1     -21.527  -7.860  -3.081  0.00  0.00     0.189 C 
BRANCH   5   6
HETATM    6  C           1     -21.774  -6.392  -2.832  0.00  0.00     0.197 C 
HETATM    7  O           1     -21.216  -5.534  -3.550  0.00  0.00    -0.646 OA
HETATM    8  O           1     -22.535  -6.035  -1.907  0.00  0.00    -0.646 OA
ENDBRANCH   5   6
BRANCH   5   9
HETATM    9  C           1     -21.099  -8.532  -1.783  0.00  0.00     0.074 C 
BRANCH   9  10
HETATM   10  C           1     -22.131  -9.537  -1.378  0.00  0.00    -0.056 A 
HETATM   11  C           1     -22.891  -9.330  -0.226  0.00  0.00     0.007 A 
HETATM   12  C           1     -23.852 -10.267   0.153  0.00  0.00     0.001 A 
HETATM   13  C           1     -24.054 -11.411  -0.620  0.00  0.00     0.000 A 
HETATM   14  C           1     -23.293 -11.618  -1.770  0.00  0.00     0.001 A 
HETATM   15  C           1     -22.332 -10.681  -2.149  0.00  0.00     0.007 A 
ENDBRANCH   9  10
ENDBRANCH   5   9
ENDBRANCH   2   5
BRANCH   3  16
HETATM   16  C           1     -20.423 -10.219  -5.229  0.00  0.00     0.297 C 
BRANCH  16  17
HETATM   17  C           1     -18.921 -10.444  -5.334  0.00  0.00     0.206 C 
BRANCH  17  18
HETATM   18  O           1     -18.343  -9.407  -6.080  0.00  0.00    -0.398 OA
HETATM   19  H           1     -17.413  -9.452  -5.939  0.00  0.00     0.209 HD
ENDBRANCH  17  18
ENDBRANCH  16  17
BRANCH  16  20
HETATM   20  N           1     -21.105 -10.845  -6.410  0.00  0.00    -0.064 N 
HETATM   21  H           1     -21.854 -11.493  -6.076  0.00  0.00     0.275 HD
HETATM   22  H           1     -21.531 -10.098  -7.003  0.00  0.00     0.275 HD
HETATM   23  H           1     -20.406 -11.380  -6.972  0.00  0.00     0.275 HD
ENDBRANCH  16  20
ENDBRANCH   3  16
TORSDOF 8
ENDMDL
MODEL 2
REMARK VINA RESULT:      -5.6      4.886      7.799
REMARK  8 active torsions:
REMARK  status: ('A' for Active; 'I' for Inactive)
REMARK    1  A    between atoms: N_4  and  C_23 
REMARK       I    between atoms: N_4  and  C_5 
REMARK    2  A    between atoms: C_5  and  C_6 
REMARK    3  A    between atoms: C_6  and  C_7 
REMARK    4  A    between atoms: C_6  and  N_9 
REMARK    5  A    between atoms: C_7  and  O_8 
REMARK    6  A    between atoms: C_11  and  C_20 
REMARK    7  A    between atoms: C_17  and  C_23 
REMARK    8  A    between atoms: C_20  and  C_23 
ROOT
HETATM    1  H           1     -22.515  -4.237  -5.604  0.00  0.00     0.163 HD
HETATM    2  N           1     -21.794  -4.918  -5.807  0.00  0.00    -0.344 N 
HETATM    3  C           1     -21.233  -5.644  -4.791  0.00  0.00     0.251 C 
HETATM    4  O           1     -20.254  -5.227  -4.220  0.00  0.00    -0.271 OA
ENDROOT
BRANCH   2   5
HETATM    5  C           1     -21.356  -5.125  -7.174  0.00  0.00     0.189 C 
BRANCH   5   6
HETATM    6  C           1     -19.901  -5.524  -7.181  0.00  0.00     0.197 C 
HETATM    7  O           1     -19.012  -4.646  -7.211  0.00  0.00    -0.646 OA
HETATM    8  O           1     -19.585  -6.734  -7.156  0.00  0.00    -0.646 OA
ENDBRANCH   5   6
BRANCH   5   9
HETATM    9  C           1     -21.533  -3.834  -7.963  0.00  0.00     0.074 C 
BRANCH   9  10
HETATM   10  C           1     -22.044  -4.153  -9.333  0.00  0.00    -0.056 A 
HETATM   11  C           1     -21.201  -4.030 -10.438  0.00  0.00     0.007 A 
HETATM   12  C           1     -21.677  -4.326 -11.715  0.00  0.00     0.001 A 
HETATM   13  C           1     -22.997  -4.745 -11.888  0.00  0.00     0.000 A 
HETATM   14  C           1     -23.840  -4.866 -10.783  0.00  0.00     0.001 A 
HETATM   15  C           1     -23.363  -4.570  -9.506  0.00  0.00     0.007 A 
ENDBRANCH   9  10
ENDBRANCH   5   9
ENDBRANCH   2   5
BRANCH   3  16
HETATM   16  C           1     -21.838  -6.965  -4.385  0.00  0.00     0.297 C 
BRANCH  16  17
HETATM   17  C           1     -21.881  -7.060  -2.865  0.00  0.00     0.206 C 
BRANCH  17  18
HETATM   18  O           1     -22.470  -5.901  -2.341  0.00  0.00    -0.398 OA
HETATM   19  H           1     -23.235  -5.723  -2.860  0.00  0.00     0.209 HD
ENDBRANCH  17  18
ENDBRANCH  16  17
BRANCH  16  20
HETATM   20  N           1     -21.003  -8.086  -4.931  0.00  0.00    -0.064 N 
HETATM   21  H           1     -21.463  -8.480  -5.782  0.00  0.00     0.275 HD
HETATM   22  H           1     -20.055  -7.725  -5.183  0.00  0.00     0.275 HD
HETATM   23  H           1     -20.910  -8.834  -4.207  0.00  0.00     0.275 HD
ENDBRANCH  16  20
ENDBRANCH   3  16
TORSDOF 8
ENDMDL
MODEL 3
REMARK VINA RESULT:      -5.6      2.308      4.365
REMARK  8 active torsions:
REMARK  status: ('A' for Active; 'I' for Inactive)
REMARK    1  A    between atoms: N_4  and  C_23 
REMARK       I    between atoms: N_4  and  C_5 
REMARK    2  A    between atoms: C_5  and  C_6 
REMARK    3  A    between atoms: C_6  and  C_7 
REMARK    4  A    between atoms: C_6  and  N_9 
REMARK    5  A    between atoms: C_7  and  O_8 
REMARK    6  A    between atoms: C_11  and  C_20 
REMARK    7  A    between atoms: C_17  and  C_23 
REMARK    8  A    between atoms: C_20  and  C_23 
ROOT
HETATM    1  H           1     -21.633  -8.474  -6.284  0.00  0.00     0.163 HD
HETATM    2  N           1     -20.931  -7.895  -5.842  0.00  0.00    -0.344 N 
HETATM    3  C           1     -20.613  -6.676  -6.377  0.00  0.00     0.251 C 
HETATM    4  O           1     -19.733  -6.587  -7.198  0.00  0.00    -0.271 OA
ENDROOT
BRANCH   2   5
HETATM    5  C           1     -20.261  -8.358  -4.642  0.00  0.00     0.189 C 
BRANCH   5   6
HETATM    6  C           1     -19.038  -9.155  -5.025  0.00  0.00     0.197 C 
HETATM    7  O           1     -18.988  -9.728  -6.135  0.00  0.00    -0.646 OA
HETATM    8  O           1     -18.076  -9.243  -4.231  0.00  0.00    -0.646 OA
ENDBRANCH   5   6
BRANCH   5   9
HETATM    9  C           1     -21.210  -9.236  -3.838  0.00  0.00     0.074 C 
BRANCH   9  10
HETATM   10  C           1     -21.638  -8.509  -2.602  0.00  0.00    -0.056 A 
HETATM   11  C           1     -21.932  -9.223  -1.440  0.00  0.00     0.007 A 
HETATM   12  C           1     -22.331  -8.546  -0.288  0.00  0.00     0.001 A 
HETATM   13  C           1     -22.435  -7.155  -0.297  0.00  0.00     0.000 A 
HETATM   14  C           1     -22.142  -6.441  -1.459  0.00  0.00     0.001 A 
HETATM   15  C           1     -21.743  -7.119  -2.611  0.00  0.00     0.007 A 
ENDBRANCH   9  10
ENDBRANCH   5   9
ENDBRANCH   2   5
BRANCH   3  16
HETATM   16  C           1     -21.363  -5.442  -5.938  0.00  0.00     0.297 C 
BRANCH  16  17
HETATM   17  C           1     -22.103  -4.846  -7.129  0.00  0.00     0.206 C 
BRANCH  17  18
HETATM   18  O           1     -23.413  -4.518  -6.750  0.00  0.00    -0.398 OA
HETATM   19  H           1     -23.989  -4.939  -7.363  0.00  0.00     0.209 HD
ENDBRANCH  17  18
ENDBRANCH  16  17
BRANCH  16  20
HETATM   20  N           1     -20.394  -4.433  -5.397  0.00  0.00    -0.064 N 
HETATM   21  H           1     -19.982  -3.888  -6.188  0.00  0.00     0.275 HD
HETATM   22  H           1     -20.892  -3.782  -4.749  0.00  0.00     0.275 HD
HETATM   23  H           1     -19.632  -4.925  -4.879  0.00  0.00     0.275 HD
ENDBRANCH  16  20
ENDBRANCH   3  16
TORSDOF 8
ENDMDL
MODEL 4
REMARK VINA RESULT:      -5.5      2.026      2.180
REMARK  8 active torsions:
REMARK  status: ('A' for Active; 'I' for Inactive)
REMARK    1  A    between atoms: N_4  and  C_23 
REMARK       I    between atoms: N_4  and  C_5 
REMARK    2  A    between atoms: C_5  and  C_6 
REMARK    3  A    between atoms: C_6  and  C_7 
REMARK    4  A    between atoms: C_6  and  N_9 
REMARK    5  A    between atoms: C_7  and  O_8 
REMARK    6  A    between atoms: C_11  and  C_20 
REMARK    7  A    between atoms: C_17  and  C_23 
REMARK    8  A    between atoms: C_20  and  C_23 
ROOT
HETATM    1  H           1     -19.423  -7.614  -1.536  0.00  0.00     0.163 HD
HETATM    2  N           1     -20.103  -8.158  -2.052  0.00  0.00    -0.344 N 
HETATM    3  C           1     -19.695  -8.971  -3.074  0.00  0.00     0.251 C 
HETATM    4  O           1     -19.632  -8.542  -4.201  0.00  0.00    -0.271 OA
ENDROOT
BRANCH   2   5
HETATM    5  C           1     -21.509  -8.073  -1.710  0.00  0.00     0.189 C 
BRANCH   5   6
HETATM    6  C           1     -22.032  -6.703  -2.063  0.00  0.00     0.197 C 
HETATM    7  O           1     -22.080  -6.342  -3.259  0.00  0.00    -0.646 OA
HETATM    8  O           1     -22.416  -5.928  -1.160  0.00  0.00    -0.646 OA
ENDBRANCH   5   6
BRANCH   5   9
HETATM    9  C           1     -21.682  -8.313  -0.215  0.00  0.00     0.074 C 
BRANCH   9  10
HETATM   10  C           1     -22.138  -9.720   0.015  0.00  0.00    -0.056 A 
HETATM   11  C           1     -23.462 -10.075  -0.246  0.00  0.00     0.007 A 
HETATM   12  C           1     -23.889 -11.385  -0.031  0.00  0.00     0.001 A 
HETATM   13  C           1     -22.991 -12.341   0.445  0.00  0.00     0.000 A 
HETATM   14  C           1     -21.668 -11.986   0.707  0.00  0.00     0.001 A 
HETATM   15  C           1     -21.242 -10.676   0.492  0.00  0.00     0.007 A 
ENDBRANCH   9  10
ENDBRANCH   5   9
ENDBRANCH   2   5
BRANCH   3  16
HETATM   16  C           1     -19.323 -10.407  -2.792  0.00  0.00     0.297 C 
BRANCH  16  17
HETATM   17  C           1     -17.837 -10.493  -2.469  0.00  0.00     0.206 C 
BRANCH  17  18
HETATM   18  O           1     -17.231  -9.254  -2.719  0.00  0.00    -0.398 OA
HETATM   19  H           1     -17.253  -8.770  -1.912  0.00  0.00     0.209 HD
ENDBRANCH  17  18
ENDBRANCH  16  17
BRANCH  16  20
HETATM   20  N           1     -19.621 -11.247  -3.999  0.00  0.00    -0.064 N 
HETATM   21  H           1     -19.969 -10.636  -4.771  0.00  0.00     0.275 HD
HETATM   22  H           1     -18.750 -11.735  -4.308  0.00  0.00     0.275 HD
HETATM   23  H           1     -20.351 -11.955  -3.758  0.00  0.00     0.275 HD
ENDBRANCH  16  20
ENDBRANCH   3  16
TORSDOF 8
ENDMDL
MODEL 5
REMARK VINA RESULT:      -5.4      1.628      2.239
REMARK  8 active torsions:
REMARK  status: ('A' for Active; 'I' for Inactive)
REMARK    1  A    between atoms: N_4  and  C_23 
REMARK       I    between atoms: N_4  and  C_5 
REMARK    2  A    between atoms: C_5  and  C_6 
REMARK    3  A    between atoms: C_6  and  C_7 
REMARK    4  A    between atoms: C_6  and  N_9 
REMARK    5  A    between atoms: C_7  and  O_8 
REMARK    6  A    between atoms: C_11  and  C_20 
REMARK    7  A    between atoms: C_17  and  C_23 
REMARK    8  A    between atoms: C_20  and  C_23 
ROOT
HETATM    1  H           1     -18.992  -7.699  -4.495  0.00  0.00     0.163 HD
HETATM    2  N           1     -19.744  -8.374  -4.447  0.00  0.00    -0.344 N 
HETATM    3  C           1     -19.504  -9.688  -4.745  0.00  0.00     0.251 C 
HETATM    4  O           1     -19.629 -10.083  -5.879  0.00  0.00    -0.271 OA
ENDROOT
BRANCH   2   5
HETATM    5  C           1     -21.076  -7.949  -4.063  0.00  0.00     0.189 C 
BRANCH   5   6
HETATM    6  C           1     -21.660  -7.080  -5.150  0.00  0.00     0.197 C 
HETATM    7  O           1     -21.195  -7.132  -6.309  0.00  0.00    -0.646 OA
HETATM    8  O           1     -22.608  -6.308  -4.890  0.00  0.00    -0.646 OA
ENDBRANCH   5   6
BRANCH   5   9
HETATM    9  C           1     -21.000  -7.156  -2.764  0.00  0.00     0.074 C 
BRANCH   9  10
HETATM   10  C           1     -21.776  -7.867  -1.699  0.00  0.00    -0.056 A 
HETATM   11  C           1     -22.325  -7.146  -0.639  0.00  0.00     0.007 A 
HETATM   12  C           1     -23.048  -7.808   0.354  0.00  0.00     0.001 A 
HETATM   13  C           1     -23.221  -9.190   0.286  0.00  0.00     0.000 A 
HETATM   14  C           1     -22.671  -9.911  -0.774  0.00  0.00     0.001 A 
HETATM   15  C           1     -21.948  -9.249  -1.766  0.00  0.00     0.007 A 
ENDBRANCH   9  10
ENDBRANCH   5   9
ENDBRANCH   2   5
BRANCH   3  16
HETATM   16  C           1     -19.084 -10.643  -3.655  0.00  0.00     0.297 C 
BRANCH  16  17
HETATM   17  C           1     -17.566 -10.776  -3.653  0.00  0.00     0.206 C 
BRANCH  17  18
HETATM   18  O           1     -16.999  -9.683  -4.323  0.00  0.00    -0.398 OA
HETATM   19  H           1     -16.131  -9.569  -3.976  0.00  0.00     0.209 HD
ENDBRANCH  17  18
ENDBRANCH  16  17
BRANCH  16  20
HETATM   20  N           1     -19.701 -11.988  -3.903  0.00  0.00    -0.064 N 
HETATM   21  H           1     -20.316 -11.938  -4.747  0.00  0.00     0.275 HD
HETATM   22  H           1     -18.948 -12.694  -4.063  0.00  0.00     0.275 HD
HETATM   23  H           1     -20.271 -12.268  -3.073  0.00  0.00     0.275 HD
ENDBRANCH  16  20
ENDBRANCH   3  16
TORSDOF 8
ENDMDL
MODEL 6
REMARK VINA RESULT:      -5.4     24.556     26.206
REMARK  8 active torsions:
REMARK  status: ('A' for Active; 'I' for Inactive)
REMARK    1  A    between atoms: N_4  and  C_23 
REMARK       I    between atoms: N_4  and  C_5 
REMARK    2  A    between atoms: C_5  and  C_6 
REMARK    3  A    between atoms: C_6  and  C_7 
REMARK    4  A    between atoms: C_6  and  N_9 
REMARK    5  A    between atoms: C_7  and  O_8 
REMARK    6  A    between atoms: C_11  and  C_20 
REMARK    7  A    between atoms: C_17  and  C_23 
REMARK    8  A    between atoms: C_20  and  C_23 
ROOT
HETATM    1  H           1     -11.958   7.943 -21.816  0.00  0.00     0.163 HD
HETATM    2  N           1     -12.005   7.941 -20.805  0.00  0.00    -0.344 N 
HETATM    3  C           1     -12.278   6.779 -20.136  0.00  0.00     0.251 C 
HETATM    4  O           1     -13.421   6.479 -19.888  0.00  0.00    -0.271 OA
ENDROOT
BRANCH   2   5
HETATM    5  C           1     -11.785   9.169 -20.067  0.00  0.00     0.189 C 
BRANCH   5   6
HETATM    6  C           1     -10.325   9.282 -19.704  0.00  0.00     0.197 C 
HETATM    7  O           1      -9.493   9.644 -20.564  0.00  0.00    -0.646 OA
HETATM    8  O           1      -9.947   9.015 -18.542  0.00  0.00    -0.646 OA
ENDBRANCH   5   6
BRANCH   5   9
HETATM    9  C           1     -12.625   9.154 -18.796  0.00  0.00     0.074 C 
BRANCH   9  10
HETATM   10  C           1     -13.583  10.305 -18.818  0.00  0.00    -0.056 A 
HETATM   11  C           1     -13.594  11.181 -19.903  0.00  0.00     0.007 A 
HETATM   12  C           1     -14.486  12.254 -19.923  0.00  0.00     0.001 A 
HETATM   13  C           1     -15.366  12.449 -18.858  0.00  0.00     0.000 A 
HETATM   14  C           1     -15.353  11.573 -17.774  0.00  0.00     0.001 A 
HETATM   15  C           1     -14.462  10.501 -17.754  0.00  0.00     0.007 A 
ENDBRANCH   9  10
ENDBRANCH   5   9
ENDBRANCH   2   5
BRANCH   3  16
HETATM   16  C           1     -11.150   5.873 -19.707  0.00  0.00     0.297 C 
BRANCH  16  17
HETATM   17  C           1     -10.077   5.850 -20.788  0.00  0.00     0.206 C 
BRANCH  17  18
HETATM   18  O           1      -8.947   6.550 -20.342  0.00  0.00    -0.398 OA
HETATM   19  H           1      -8.343   5.910 -20.008  0.00  0.00     0.209 HD
ENDBRANCH  17  18
ENDBRANCH  16  17
BRANCH  16  20
HETATM   20  N           1     -11.676   4.484 -19.497  0.00  0.00    -0.064 N 
HETATM   21  H           1     -12.575   4.370 -20.017  0.00  0.00     0.275 HD
HETATM   22  H           1     -10.979   3.790 -19.849  0.00  0.00     0.275 HD
HETATM   23  H           1     -11.841   4.325 -18.477  0.00  0.00     0.275 HD
ENDBRANCH  16  20
ENDBRANCH   3  16
TORSDOF 8
ENDMDL
MODEL 7
REMARK VINA RESULT:      -5.4      2.365      3.456
REMARK  8 active torsions:
REMARK  status: ('A' for Active; 'I' for Inactive)
REMARK    1  A    between atoms: N_4  and  C_23 
REMARK       I    between atoms: N_4  and  C_5 
REMARK    2  A    between atoms: C_5  and  C_6 
REMARK    3  A    between atoms: C_6  and  C_7 
REMARK    4  A    between atoms: C_6  and  N_9 
REMARK    5  A    between atoms: C_7  and  O_8 
REMARK    6  A    between atoms: C_11  and  C_20 
REMARK    7  A    between atoms: C_17  and  C_23 
REMARK    8  A    between atoms: C_20  and  C_23 
ROOT
HETATM    1  H           1     -20.312  -7.101  -0.924  0.00  0.00     0.163 HD
HETATM    2  N           1     -21.158  -7.389  -1.398  0.00  0.00    -0.344 N 
HETATM    3  C           1     -21.564  -6.737  -2.530  0.00  0.00     0.251 C 
HETATM    4  O           1     -22.297  -5.781  -2.448  0.00  0.00    -0.271 OA
ENDROOT
BRANCH   2   5
HETATM    5  C           1     -21.941  -8.492  -0.875  0.00  0.00     0.189 C 
BRANCH   5   6
HETATM    6  C           1     -22.370  -8.180   0.537  0.00  0.00     0.197 C 
HETATM    7  O           1     -21.515  -8.101   1.446  0.00  0.00    -0.646 OA
HETATM    8  O           1     -23.579  -8.001   0.799  0.00  0.00    -0.646 OA
ENDBRANCH   5   6
BRANCH   5   9
HETATM    9  C           1     -21.098  -9.760  -0.883  0.00  0.00     0.074 C 
BRANCH   9  10
HETATM   10  C           1     -21.934 -10.918  -0.434  0.00  0.00    -0.056 A 
HETATM   11  C           1     -21.491 -11.734   0.607  0.00  0.00     0.007 A 
HETATM   12  C           1     -22.269 -12.814   1.026  0.00  0.00     0.001 A 
HETATM   13  C           1     -23.489 -13.077   0.403  0.00  0.00     0.000 A 
HETATM   14  C           1     -23.931 -12.261  -0.639  0.00  0.00     0.001 A 
HETATM   15  C           1     -23.153 -11.182  -1.057  0.00  0.00     0.007 A 
ENDBRANCH   9  10
ENDBRANCH   5   9
ENDBRANCH   2   5
BRANCH   3  16
HETATM   16  C           1     -21.096  -7.214  -3.883  0.00  0.00     0.297 C 
BRANCH  16  17
HETATM   17  C           1     -21.325  -6.118  -4.917  0.00  0.00     0.206 C 
BRANCH  17  18
HETATM   18  O           1     -22.694  -6.027  -5.206  0.00  0.00    -0.398 OA
HETATM   19  H           1     -22.770  -5.894  -6.135  0.00  0.00     0.209 HD
ENDBRANCH  17  18
ENDBRANCH  16  17
BRANCH  16  20
HETATM   20  N           1     -21.868  -8.439  -4.276  0.00  0.00    -0.064 N 
HETATM   21  H           1     -22.293  -8.295  -5.220  0.00  0.00     0.275 HD
HETATM   22  H           1     -21.225  -9.262  -4.307  0.00  0.00     0.275 HD
HETATM   23  H           1     -22.624  -8.613  -3.577  0.00  0.00     0.275 HD
ENDBRANCH  16  20
ENDBRANCH   3  16
TORSDOF 8
ENDMDL
MODEL 8
REMARK VINA RESULT:      -5.3      1.993      3.658
REMARK  8 active torsions:
REMARK  status: ('A' for Active; 'I' for Inactive)
REMARK    1  A    between atoms: N_4  and  C_23 
REMARK       I    between atoms: N_4  and  C_5 
REMARK    2  A    between atoms: C_5  and  C_6 
REMARK    3  A    between atoms: C_6  and  C_7 
REMARK    4  A    between atoms: C_6  and  N_9 
REMARK    5  A    between atoms: C_7  and  O_8 
REMARK    6  A    between atoms: C_11  and  C_20 
REMARK    7  A    between atoms: C_17  and  C_23 
REMARK    8  A    between atoms: C_20  and  C_23 
ROOT
HETATM    1  H           1     -21.435  -9.613  -5.347  0.00  0.00     0.163 HD
HETATM    2  N           1     -20.963  -8.881  -4.830  0.00  0.00    -0.344 N 
HETATM    3  C           1     -20.809  -7.641  -5.388  0.00  0.00     0.251 C 
HETATM    4  O           1     -19.827  -7.392  -6.045  0.00  0.00    -0.271 OA
ENDROOT
BRANCH   2   5
HETATM    5  C           1     -20.451  -9.147  -3.500  0.00  0.00     0.189 C 
BRANCH   5   6
HETATM    6  C           1     -19.068  -9.742  -3.604  0.00  0.00     0.197 C 
HETATM    7  O           1     -18.092  -9.144  -3.103  0.00  0.00    -0.646 OA
HETATM    8  O           1     -18.900 -10.833  -4.190  0.00  0.00    -0.646 OA
ENDBRANCH   5   6
BRANCH   5   9
HETATM    9  C           1     -21.374 -10.127  -2.788  0.00  0.00     0.074 C 
BRANCH   9  10
HETATM   10  C           1     -22.005  -9.453  -1.610  0.00  0.00    -0.056 A 
HETATM   11  C           1     -21.649  -8.144  -1.283  0.00  0.00     0.007 A 
HETATM   12  C           1     -22.235  -7.515  -0.184  0.00  0.00     0.001 A 
HETATM   13  C           1     -23.179  -8.195   0.586  0.00  0.00     0.000 A 
HETATM   14  C           1     -23.534  -9.504   0.259  0.00  0.00     0.001 A 
HETATM   15  C           1     -22.947 -10.132  -0.839  0.00  0.00     0.007 A 
ENDBRANCH   9  10
ENDBRANCH   5   9
ENDBRANCH   2   5
BRANCH   3  16
HETATM   16  C           1     -21.866  -6.584  -5.181  0.00  0.00     0.297 C 
BRANCH  16  17
HETATM   17  C           1     -21.726  -5.507  -6.249  0.00  0.00     0.206 C 
BRANCH  17  18
HETATM   18  O           1     -20.680  -4.639  -5.904  0.00  0.00    -0.398 OA
HETATM   19  H           1     -20.818  -4.386  -5.007  0.00  0.00     0.209 HD
ENDBRANCH  17  18
ENDBRANCH  16  17
BRANCH  16  20
HETATM   20  N           1     -21.697  -5.966  -3.824  0.00  0.00    -0.064 N 
HETATM   21  H           1     -21.680  -4.925  -3.916  0.00  0.00     0.275 HD
HETATM   22  H           1     -22.493  -6.248  -3.210  0.00  0.00     0.275 HD
HETATM   23  H           1     -20.798  -6.294  -3.403  0.00  0.00     0.275 HD
ENDBRANCH  16  20
ENDBRANCH   3  16
TORSDOF 8
ENDMDL
MODEL 9
REMARK VINA RESULT:      -5.2      3.282      6.669
REMARK  8 active torsions:
REMARK  status: ('A' for Active; 'I' for Inactive)
REMARK    1  A    between atoms: N_4  and  C_23 
REMARK       I    between atoms: N_4  and  C_5 
REMARK    2  A    between atoms: C_5  and  C_6 
REMARK    3  A    between atoms: C_6  and  C_7 
REMARK    4  A    between atoms: C_6  and  N_9 
REMARK    5  A    between atoms: C_7  and  O_8 
REMARK    6  A    between atoms: C_11  and  C_20 
REMARK    7  A    between atoms: C_17  and  C_23 
REMARK    8  A    between atoms: C_20  and  C_23 
ROOT
HETATM    1  H           1     -23.521  -7.368  -4.217  0.00  0.00     0.163 HD
HETATM    2  N           1     -22.543  -7.153  -4.072  0.00  0.00    -0.344 N 
HETATM    3  C           1     -22.058  -6.990  -2.803  0.00  0.00     0.251 C 
HETATM    4  O           1     -22.061  -5.897  -2.290  0.00  0.00    -0.271 OA
ENDROOT
BRANCH   2   5
HETATM    5  C           1     -21.655  -7.018  -5.210  0.00  0.00     0.189 C 
BRANCH   5   6
HETATM    6  C           1     -20.711  -8.194  -5.255  0.00  0.00     0.197 C 
HETATM    7  O           1     -21.106  -9.296  -5.695  0.00  0.00    -0.646 OA
HETATM    8  O           1     -19.535  -8.067  -4.852  0.00  0.00    -0.646 OA
ENDBRANCH   5   6
BRANCH   5   9
HETATM    9  C           1     -20.855  -5.729  -5.078  0.00  0.00     0.074 C 
BRANCH   9  10
HETATM   10  C           1     -20.735  -5.075  -6.420  0.00  0.00    -0.056 A 
HETATM   11  C           1     -21.883  -4.773  -7.152  0.00  0.00     0.007 A 
HETATM   12  C           1     -21.773  -4.165  -8.403  0.00  0.00     0.001 A 
HETATM   13  C           1     -20.514  -3.860  -8.921  0.00  0.00     0.000 A 
HETATM   14  C           1     -19.367  -4.163  -8.189  0.00  0.00     0.001 A 
HETATM   15  C           1     -19.478  -4.771  -6.938  0.00  0.00     0.007 A 
ENDBRANCH   9  10
ENDBRANCH   5   9
ENDBRANCH   2   5
BRANCH   3  16
HETATM   16  C           1     -21.520  -8.178  -2.043  0.00  0.00     0.297 C 
BRANCH  16  17
HETATM   17  C           1     -22.330  -8.377  -0.768  0.00  0.00     0.206 C 
BRANCH  17  18
HETATM   18  O           1     -21.970  -7.400   0.171  0.00  0.00    -0.398 OA
HETATM   19  H           1     -21.282  -7.767   0.699  0.00  0.00     0.209 HD
ENDBRANCH  17  18
ENDBRANCH  16  17
BRANCH  16  20
HETATM   20  N           1     -20.083  -7.935  -1.688  0.00  0.00    -0.064 N 
HETATM   21  H           1     -19.992  -7.836  -0.652  0.00  0.00     0.275 HD
HETATM   22  H           1     -19.502  -8.741  -2.012  0.00  0.00     0.275 HD
HETATM   23  H           1     -19.753  -7.059  -2.152  0.00  0.00     0.275 HD
ENDBRANCH  16  20
ENDBRANCH   3  16
TORSDOF 8
ENDMDL
