MODEL 1
REMARK VINA RESULT:      -6.3      0.000      0.000
REMARK  8 active torsions:
REMARK  status: ('A' for Active; 'I' for Inactive)
REMARK    1  A    between atoms: N_4  and  C_12 
REMARK    2  A    between atoms: C_7  and  C_8 
REMARK    3  A    between atoms: C_8  and  C_12 
REMARK    4  A    between atoms: S_10  and  C_14 
REMARK    5  A    between atoms: N_11  and  C_15 
REMARK       I    between atoms: N_11  and  C_19 
REMARK    6  A    between atoms: C_12  and  C_19 
REMARK    7  A    between atoms: C_14  and  C_15 
REMARK    8  A    between atoms: C_15  and  C_18 
ROOT
HETATM    1  H           1     -34.004  -1.300 -14.363  0.00  0.00     0.163 HD
HETATM    2  O           1     -36.525  -1.454 -12.503  0.00  0.00    -0.271 OA
HETATM    3  N           1     -34.968  -1.179 -14.080  0.00  0.00    -0.344 N 
HETATM    4  C           1     -35.375  -1.597 -12.841  0.00  0.00     0.249 C 
ENDROOT
BRANCH   4   5
HETATM    5  C           1     -34.386  -2.238 -11.899  0.00  0.00     0.275 C 
BRANCH   5   6
HETATM    6  N           1     -34.292  -1.424 -10.643  0.00  0.00    -0.066 N 
HETATM    7  H           1     -33.809  -1.980  -9.902  0.00  0.00     0.275 HD
HETATM    8  H           1     -33.748  -0.552 -10.834  0.00  0.00     0.275 HD
HETATM    9  H           1     -35.253  -1.172 -10.319  0.00  0.00     0.275 HD
ENDBRANCH   5   6
BRANCH   5  10
HETATM   10  C           1     -34.850  -3.647 -11.556  0.00  0.00     0.046 C 
BRANCH  10  11
HETATM   11  C           1     -33.688  -4.437 -10.969  0.00  0.00    -0.020 C 
HETATM   12  C           1     -32.543  -4.474 -11.972  0.00  0.00     0.009 C 
HETATM   13  C           1     -34.142  -5.858 -10.666  0.00  0.00     0.009 C 
ENDBRANCH  10  11
ENDBRANCH   5  10
ENDBRANCH   4   5
BRANCH   3  14
HETATM   14  C           1     -35.918  -0.564 -14.986  0.00  0.00     0.194 C 
BRANCH  14  15
HETATM   15  C           1     -35.687   0.941 -15.017  0.00  0.00     0.106 C 
BRANCH  15  16
HETATM   16  S           1     -34.550   1.409 -13.683  0.00  0.00    -0.180 SA
HETATM   17  H           1     -33.638   0.453 -13.934  0.00  0.00     0.101 HD
ENDBRANCH  15  16
ENDBRANCH  14  15
BRANCH  14  18
HETATM   18  C           1     -35.730  -1.131 -16.371  0.00  0.00     0.197 C 
HETATM   19  O           1     -36.550  -0.860 -17.274  0.00  0.00    -0.646 OA
HETATM   20  O           1     -34.754  -1.873 -16.616  0.00  0.00    -0.646 OA
ENDBRANCH  14  18
ENDBRANCH   3  14
TORSDOF 8
ENDMDL
MODEL 2
REMARK VINA RESULT:      -6.3      2.002      2.250
REMARK  8 active torsions:
REMARK  status: ('A' for Active; 'I' for Inactive)
REMARK    1  A    between atoms: N_4  and  C_12 
REMARK    2  A    between atoms: C_7  and  C_8 
REMARK    3  A    between atoms: C_8  and  C_12 
REMARK    4  A    between atoms: S_10  and  C_14 
REMARK    5  A    between atoms: N_11  and  C_15 
REMARK       I    between atoms: N_11  and  C_19 
REMARK    6  A    between atoms: C_12  and  C_19 
REMARK    7  A    between atoms: C_14  and  C_15 
REMARK    8  A    between atoms: C_15  and  C_18 
ROOT
HETATM    1  H           1     -35.414  -0.548 -11.653  0.00  0.00     0.163 HD
HETATM    2  O           1     -34.708  -2.752 -13.769  0.00  0.00    -0.271 OA
HETATM    3  N           1     -35.417  -1.025 -12.545  0.00  0.00    -0.344 N 
HETATM    4  C           1     -34.706  -2.183 -12.705  0.00  0.00     0.249 C 
ENDROOT
BRANCH   4   5
HETATM    5  C           1     -33.918  -2.749 -11.549  0.00  0.00     0.275 C 
BRANCH   5   6
HETATM    6  N           1     -33.630  -1.659 -10.559  0.00  0.00    -0.066 N 
HETATM    7  H           1     -33.822  -0.730 -10.997  0.00  0.00     0.275 HD
HETATM    8  H           1     -34.242  -1.782  -9.720  0.00  0.00     0.275 HD
HETATM    9  H           1     -32.627  -1.708 -10.269  0.00  0.00     0.275 HD
ENDBRANCH   5   6
BRANCH   5  10
HETATM   10  C           1     -34.727  -3.847 -10.871  0.00  0.00     0.046 C 
BRANCH  10  11
HETATM   11  C           1     -33.812  -5.015 -10.529  0.00  0.00    -0.020 C 
HETATM   12  C           1     -32.766  -5.178 -11.623  0.00  0.00     0.009 C 
HETATM   13  C           1     -34.636  -6.291 -10.421  0.00  0.00     0.009 C 
ENDBRANCH  10  11
ENDBRANCH   5  10
ENDBRANCH   4   5
BRANCH   3  14
HETATM   14  C           1     -36.175  -0.481 -13.655  0.00  0.00     0.194 C 
BRANCH  14  15
HETATM   15  C           1     -37.551  -0.048 -13.168  0.00  0.00     0.106 C 
BRANCH  15  16
HETATM   16  S           1     -37.616  -0.159 -11.357  0.00  0.00    -0.180 SA
HETATM   17  H           1     -36.287  -0.072 -11.164  0.00  0.00     0.101 HD
ENDBRANCH  15  16
ENDBRANCH  14  15
BRANCH  14  18
HETATM   18  C           1     -35.445   0.711 -14.224  0.00  0.00     0.197 C 
HETATM   19  O           1     -35.741   1.142 -15.359  0.00  0.00    -0.646 OA
HETATM   20  O           1     -34.542   1.267 -13.562  0.00  0.00    -0.646 OA
ENDBRANCH  14  18
ENDBRANCH   3  14
TORSDOF 8
ENDMDL
MODEL 3
REMARK VINA RESULT:      -6.0     12.852     14.425
REMARK  8 active torsions:
REMARK  status: ('A' for Active; 'I' for Inactive)
REMARK    1  A    between atoms: N_4  and  C_12 
REMARK    2  A    between atoms: C_7  and  C_8 
REMARK    3  A    between atoms: C_8  and  C_12 
REMARK    4  A    between atoms: S_10  and  C_14 
REMARK    5  A    between atoms: N_11  and  C_15 
REMARK       I    between atoms: N_11  and  C_19 
REMARK    6  A    between atoms: C_12  and  C_19 
REMARK    7  A    between atoms: C_14  and  C_15 
REMARK    8  A    between atoms: C_15  and  C_18 
ROOT
HETATM    1  H           1     -22.129  -5.628  -9.529  0.00  0.00     0.163 HD
HETATM    2  O           1     -21.893  -3.549  -7.193  0.00  0.00    -0.271 OA
HETATM    3  N           1     -22.219  -4.740  -9.053  0.00  0.00    -0.344 N 
HETATM    4  C           1     -21.785  -4.608  -7.761  0.00  0.00     0.249 C 
ENDROOT
BRANCH   4   5
HETATM    5  C           1     -21.172  -5.788  -7.048  0.00  0.00     0.275 C 
BRANCH   5   6
HETATM    6  N           1     -19.845  -6.112  -7.667  0.00  0.00    -0.066 N 
HETATM    7  H           1     -19.668  -7.140  -7.597  0.00  0.00     0.275 HD
HETATM    8  H           1     -19.852  -5.828  -8.673  0.00  0.00     0.275 HD
HETATM    9  H           1     -19.090  -5.594  -7.164  0.00  0.00     0.275 HD
ENDBRANCH   5   6
BRANCH   5  10
HETATM   10  C           1     -20.976  -5.447  -5.577  0.00  0.00     0.046 C 
BRANCH  10  11
HETATM   11  C           1     -21.812  -6.387  -4.721  0.00  0.00    -0.020 C 
HETATM   12  C           1     -21.456  -6.190  -3.254  0.00  0.00     0.009 C 
HETATM   13  C           1     -21.528  -7.829  -5.122  0.00  0.00     0.009 C 
ENDBRANCH  10  11
ENDBRANCH   5  10
ENDBRANCH   4   5
BRANCH   3  14
HETATM   14  C           1     -22.807  -3.606  -9.739  0.00  0.00     0.194 C 
BRANCH  14  15
HETATM   15  C           1     -21.986  -3.279 -10.978  0.00  0.00     0.106 C 
BRANCH  15  16
HETATM   16  S           1     -20.454  -4.254 -10.965  0.00  0.00    -0.180 SA
HETATM   17  H           1     -20.650  -4.838 -12.161  0.00  0.00     0.101 HD
ENDBRANCH  15  16
ENDBRANCH  14  15
BRANCH  14  18
HETATM   18  C           1     -24.220  -3.945 -10.147  0.00  0.00     0.197 C 
HETATM   19  O           1     -24.695  -5.069  -9.880  0.00  0.00    -0.646 OA
HETATM   20  O           1     -24.916  -3.101 -10.753  0.00  0.00    -0.646 OA
ENDBRANCH  14  18
ENDBRANCH   3  14
TORSDOF 8
ENDMDL
MODEL 4
REMARK VINA RESULT:      -5.9      2.208      2.711
REMARK  8 active torsions:
REMARK  status: ('A' for Active; 'I' for Inactive)
REMARK    1  A    between atoms: N_4  and  C_12 
REMARK    2  A    between atoms: C_7  and  C_8 
REMARK    3  A    between atoms: C_8  and  C_12 
REMARK    4  A    between atoms: S_10  and  C_14 
REMARK    5  A    between atoms: N_11  and  C_15 
REMARK       I    between atoms: N_11  and  C_19 
REMARK    6  A    between atoms: C_12  and  C_19 
REMARK    7  A    between atoms: C_14  and  C_15 
REMARK    8  A    between atoms: C_15  and  C_18 
ROOT
HETATM    1  H           1     -35.426  -2.284 -14.709  0.00  0.00     0.163 HD
HETATM    2  O           1     -34.524  -1.499 -11.809  0.00  0.00    -0.271 OA
HETATM    3  N           1     -35.285  -1.694 -13.899  0.00  0.00    -0.344 N 
HETATM    4  C           1     -34.690  -2.202 -12.775  0.00  0.00     0.249 C 
ENDROOT
BRANCH   4   5
HETATM    5  C           1     -34.244  -3.644 -12.746  0.00  0.00     0.275 C 
BRANCH   5   6
HETATM    6  N           1     -33.549  -3.978 -14.032  0.00  0.00    -0.066 N 
HETATM    7  H           1     -33.466  -5.016 -14.125  0.00  0.00     0.275 HD
HETATM    8  H           1     -34.102  -3.600 -14.834  0.00  0.00     0.275 HD
HETATM    9  H           1     -32.595  -3.551 -14.034  0.00  0.00     0.275 HD
ENDBRANCH   5   6
BRANCH   5  10
HETATM   10  C           1     -33.285  -3.855 -11.582  0.00  0.00     0.046 C 
BRANCH  10  11
HETATM   11  C           1     -33.913  -4.806 -10.572  0.00  0.00    -0.020 C 
HETATM   12  C           1     -33.524  -6.237 -10.913  0.00  0.00     0.009 C 
HETATM   13  C           1     -35.429  -4.668 -10.619  0.00  0.00     0.009 C 
ENDBRANCH  10  11
ENDBRANCH   5  10
ENDBRANCH   4   5
BRANCH   3  14
HETATM   14  C           1     -35.714  -0.309 -13.928  0.00  0.00     0.194 C 
BRANCH  14  15
HETATM   15  C           1     -35.670   0.206 -15.360  0.00  0.00     0.106 C 
BRANCH  15  16
HETATM   16  S           1     -35.534  -1.195 -16.505  0.00  0.00    -0.180 SA
HETATM   17  H           1     -34.259  -0.960 -16.863  0.00  0.00     0.101 HD
ENDBRANCH  15  16
ENDBRANCH  14  15
BRANCH  14  18
HETATM   18  C           1     -37.124  -0.209 -13.400  0.00  0.00     0.197 C 
HETATM   19  O           1     -38.075  -0.671 -14.066  0.00  0.00    -0.646 OA
HETATM   20  O           1     -37.342   0.336 -12.296  0.00  0.00    -0.646 OA
ENDBRANCH  14  18
ENDBRANCH   3  14
TORSDOF 8
ENDMDL
MODEL 5
REMARK VINA RESULT:      -5.5      9.625     10.924
REMARK  8 active torsions:
REMARK  status: ('A' for Active; 'I' for Inactive)
REMARK    1  A    between atoms: N_4  and  C_12 
REMARK    2  A    between atoms: C_7  and  C_8 
REMARK    3  A    between atoms: C_8  and  C_12 
REMARK    4  A    between atoms: S_10  and  C_14 
REMARK    5  A    between atoms: N_11  and  C_15 
REMARK       I    between atoms: N_11  and  C_19 
REMARK    6  A    between atoms: C_12  and  C_19 
REMARK    7  A    between atoms: C_14  and  C_15 
REMARK    8  A    between atoms: C_15  and  C_18 
ROOT
HETATM    1  H           1     -26.627  -7.780 -18.577  0.00  0.00     0.163 HD
HETATM    2  O           1     -28.383  -5.313 -19.392  0.00  0.00    -0.271 OA
HETATM    3  N           1     -26.974  -7.029 -19.159  0.00  0.00    -0.344 N 
HETATM    4  C           1     -27.968  -6.209 -18.698  0.00  0.00     0.249 C 
ENDROOT
BRANCH   4   5
HETATM    5  C           1     -28.546  -6.426 -17.321  0.00  0.00     0.275 C 
BRANCH   5   6
HETATM    6  N           1     -27.506  -7.043 -16.433  0.00  0.00    -0.066 N 
HETATM    7  H           1     -27.682  -6.762 -15.442  0.00  0.00     0.275 HD
HETATM    8  H           1     -27.555  -8.084 -16.514  0.00  0.00     0.275 HD
HETATM    9  H           1     -26.559  -6.714 -16.727  0.00  0.00     0.275 HD
ENDBRANCH   5   6
BRANCH   5  10
HETATM   10  C           1     -28.983  -5.089 -16.736  0.00  0.00     0.046 C 
BRANCH  10  11
HETATM   11  C           1     -30.500  -5.054 -16.626  0.00  0.00    -0.020 C 
HETATM   12  C           1     -31.081  -6.343 -17.191  0.00  0.00     0.009 C 
HETATM   13  C           1     -31.040  -3.868 -17.414  0.00  0.00     0.009 C 
ENDBRANCH  10  11
ENDBRANCH   5  10
ENDBRANCH   4   5
BRANCH   3  14
HETATM   14  C           1     -26.418  -6.820 -20.482  0.00  0.00     0.194 C 
BRANCH  14  15
HETATM   15  C           1     -24.972  -6.358 -20.358  0.00  0.00     0.106 C 
BRANCH  15  16
HETATM   16  S           1     -24.249  -7.030 -18.835  0.00  0.00    -0.180 SA
HETATM   17  H           1     -24.657  -6.031 -18.033  0.00  0.00     0.101 HD
ENDBRANCH  15  16
ENDBRANCH  14  15
BRANCH  14  18
HETATM   18  C           1     -26.468  -8.114 -21.256  0.00  0.00     0.197 C 
HETATM   19  O           1     -27.540  -8.752 -21.340  0.00  0.00    -0.646 OA
HETATM   20  O           1     -25.438  -8.550 -21.815  0.00  0.00    -0.646 OA
ENDBRANCH  14  18
ENDBRANCH   3  14
TORSDOF 8
ENDMDL
MODEL 6
REMARK VINA RESULT:      -5.4     10.045     11.439
REMARK  8 active torsions:
REMARK  status: ('A' for Active; 'I' for Inactive)
REMARK    1  A    between atoms: N_4  and  C_12 
REMARK    2  A    between atoms: C_7  and  C_8 
REMARK    3  A    between atoms: C_8  and  C_12 
REMARK    4  A    between atoms: S_10  and  C_14 
REMARK    5  A    between atoms: N_11  and  C_15 
REMARK       I    between atoms: N_11  and  C_19 
REMARK    6  A    between atoms: C_12  and  C_19 
REMARK    7  A    between atoms: C_14  and  C_15 
REMARK    8  A    between atoms: C_15  and  C_18 
ROOT
HETATM    1  H           1     -27.596  -6.448 -19.659  0.00  0.00     0.163 HD
HETATM    2  O           1     -26.103  -6.241 -16.908  0.00  0.00    -0.271 OA
HETATM    3  N           1     -27.486  -6.358 -18.657  0.00  0.00    -0.344 N 
HETATM    4  C           1     -26.235  -6.347 -18.103  0.00  0.00     0.249 C 
ENDROOT
BRANCH   4   5
HETATM    5  C           1     -25.018  -6.468 -18.989  0.00  0.00     0.275 C 
BRANCH   5   6
HETATM    6  N           1     -24.276  -7.726 -18.649  0.00  0.00    -0.066 N 
HETATM    7  H           1     -24.950  -8.521 -18.574  0.00  0.00     0.275 HD
HETATM    8  H           1     -23.578  -7.931 -19.400  0.00  0.00     0.275 HD
HETATM    9  H           1     -23.780  -7.603 -17.737  0.00  0.00     0.275 HD
ENDBRANCH   5   6
BRANCH   5  10
HETATM   10  C           1     -25.454  -6.515 -20.447  0.00  0.00     0.046 C 
BRANCH  10  11
HETATM   11  C           1     -25.242  -7.919 -20.995  0.00  0.00    -0.020 C 
HETATM   12  C           1     -24.336  -7.855 -22.218  0.00  0.00     0.009 C 
HETATM   13  C           1     -26.584  -8.519 -21.390  0.00  0.00     0.009 C 
ENDBRANCH  10  11
ENDBRANCH   5  10
ENDBRANCH   4   5
BRANCH   3  14
HETATM   14  C           1     -28.656  -6.242 -17.807  0.00  0.00     0.194 C 
BRANCH  14  15
HETATM   15  C           1     -29.521  -5.085 -18.289  0.00  0.00     0.106 C 
BRANCH  15  16
HETATM   16  S           1     -30.787  -4.714 -17.043  0.00  0.00    -0.180 SA
HETATM   17  H           1     -30.053  -5.093 -15.981  0.00  0.00     0.101 HD
ENDBRANCH  15  16
ENDBRANCH  14  15
BRANCH  14  18
HETATM   18  C           1     -29.449  -7.524 -17.868  0.00  0.00     0.197 C 
HETATM   19  O           1     -29.426  -8.320 -16.905  0.00  0.00    -0.646 OA
HETATM   20  O           1     -30.130  -7.791 -18.882  0.00  0.00    -0.646 OA
ENDBRANCH  14  18
ENDBRANCH   3  14
TORSDOF 8
ENDMDL
MODEL 7
REMARK VINA RESULT:      -5.4     10.601     12.168
REMARK  8 active torsions:
REMARK  status: ('A' for Active; 'I' for Inactive)
REMARK    1  A    between atoms: N_4  and  C_12 
REMARK    2  A    between atoms: C_7  and  C_8 
REMARK    3  A    between atoms: C_8  and  C_12 
REMARK    4  A    between atoms: S_10  and  C_14 
REMARK    5  A    between atoms: N_11  and  C_15 
REMARK       I    between atoms: N_11  and  C_19 
REMARK    6  A    between atoms: C_12  and  C_19 
REMARK    7  A    between atoms: C_14  and  C_15 
REMARK    8  A    between atoms: C_15  and  C_18 
ROOT
HETATM    1  H           1     -26.046  -6.646 -17.528  0.00  0.00     0.163 HD
HETATM    2  O           1     -27.075  -6.109 -20.443  0.00  0.00    -0.271 OA
HETATM    3  N           1     -26.683  -6.350 -18.258  0.00  0.00    -0.344 N 
HETATM    4  C           1     -26.317  -6.462 -19.572  0.00  0.00     0.249 C 
ENDROOT
BRANCH   4   5
HETATM    5  C           1     -24.965  -7.026 -19.933  0.00  0.00     0.275 C 
BRANCH   5   6
HETATM    6  N           1     -24.272  -7.499 -18.689  0.00  0.00    -0.066 N 
HETATM    7  H           1     -24.138  -8.534 -18.735  0.00  0.00     0.275 HD
HETATM    8  H           1     -23.341  -7.031 -18.611  0.00  0.00     0.275 HD
HETATM    9  H           1     -24.854  -7.260 -17.854  0.00  0.00     0.275 HD
ENDBRANCH   5   6
BRANCH   5  10
HETATM   10  C           1     -25.141  -8.197 -20.890  0.00  0.00     0.046 C 
BRANCH  10  11
HETATM   11  C           1     -24.197  -8.034 -22.072  0.00  0.00    -0.020 C 
HETATM   12  C           1     -22.803  -8.504 -21.677  0.00  0.00     0.009 C 
HETATM   13  C           1     -24.140  -6.568 -22.480  0.00  0.00     0.009 C 
ENDBRANCH  10  11
ENDBRANCH   5  10
ENDBRANCH   4   5
BRANCH   3  14
HETATM   14  C           1     -27.982  -5.809 -17.911  0.00  0.00     0.194 C 
BRANCH  14  15
HETATM   15  C           1     -28.942  -6.949 -17.601  0.00  0.00     0.106 C 
BRANCH  15  16
HETATM   16  S           1     -30.592  -6.277 -17.258  0.00  0.00    -0.180 SA
HETATM   17  H           1     -30.410  -5.117 -17.914  0.00  0.00     0.101 HD
ENDBRANCH  15  16
ENDBRANCH  14  15
BRANCH  14  18
HETATM   18  C           1     -27.847  -4.920 -16.699  0.00  0.00     0.197 C 
HETATM   19  O           1     -27.505  -5.409 -15.600  0.00  0.00    -0.646 OA
HETATM   20  O           1     -28.079  -3.695 -16.791  0.00  0.00    -0.646 OA
ENDBRANCH  14  18
ENDBRANCH   3  14
TORSDOF 8
ENDMDL
MODEL 8
REMARK VINA RESULT:      -5.2     14.963     17.264
REMARK  8 active torsions:
REMARK  status: ('A' for Active; 'I' for Inactive)
REMARK    1  A    between atoms: N_4  and  C_12 
REMARK    2  A    between atoms: C_7  and  C_8 
REMARK    3  A    between atoms: C_8  and  C_12 
REMARK    4  A    between atoms: S_10  and  C_14 
REMARK    5  A    between atoms: N_11  and  C_15 
REMARK       I    between atoms: N_11  and  C_19 
REMARK    6  A    between atoms: C_12  and  C_19 
REMARK    7  A    between atoms: C_14  and  C_15 
REMARK    8  A    between atoms: C_15  and  C_18 
ROOT
HETATM    1  H           1     -19.893  -6.987  -4.838  0.00  0.00     0.163 HD
HETATM    2  O           1     -22.516  -5.510  -5.719  0.00  0.00    -0.271 OA
HETATM    3  N           1     -20.877  -6.751  -4.848  0.00  0.00    -0.344 N 
HETATM    4  C           1     -21.342  -5.793  -5.708  0.00  0.00     0.249 C 
ENDROOT
BRANCH   4   5
HETATM    5  C           1     -20.387  -5.089  -6.640  0.00  0.00     0.275 C 
BRANCH   5   6
HETATM    6  N           1     -19.734  -6.096  -7.540  0.00  0.00    -0.066 N 
HETATM    7  H           1     -18.851  -5.695  -7.930  0.00  0.00     0.275 HD
HETATM    8  H           1     -19.513  -6.958  -6.993  0.00  0.00     0.275 HD
HETATM    9  H           1     -20.383  -6.336  -8.323  0.00  0.00     0.275 HD
ENDBRANCH   5   6
BRANCH   5  10
HETATM   10  C           1     -21.153  -4.078  -7.483  0.00  0.00     0.046 C 
BRANCH  10  11
HETATM   11  C           1     -21.387  -4.649  -8.874  0.00  0.00    -0.020 C 
HETATM   12  C           1     -20.559  -3.870  -9.888  0.00  0.00     0.009 C 
HETATM   13  C           1     -22.863  -4.534  -9.230  0.00  0.00     0.009 C 
ENDBRANCH  10  11
ENDBRANCH   5  10
ENDBRANCH   4   5
BRANCH   3  14
HETATM   14  C           1     -21.794  -7.428  -3.952  0.00  0.00     0.194 C 
BRANCH  14  15
HETATM   15  C           1     -21.474  -8.917  -3.926  0.00  0.00     0.106 C 
BRANCH  15  16
HETATM   16  S           1     -19.910  -9.216  -4.799  0.00  0.00    -0.180 SA
HETATM   17  H           1     -20.391 -10.159  -5.629  0.00  0.00     0.101 HD
ENDBRANCH  15  16
ENDBRANCH  14  15
BRANCH  14  18
HETATM   18  C           1     -21.649  -6.859  -2.562  0.00  0.00     0.197 C 
HETATM   19  O           1     -22.324  -5.864  -2.221  0.00  0.00    -0.646 OA
HETATM   20  O           1     -20.853  -7.380  -1.751  0.00  0.00    -0.646 OA
ENDBRANCH  14  18
ENDBRANCH   3  14
TORSDOF 8
ENDMDL
MODEL 9
REMARK VINA RESULT:      -5.0      9.007     10.683
REMARK  8 active torsions:
REMARK  status: ('A' for Active; 'I' for Inactive)
REMARK    1  A    between atoms: N_4  and  C_12 
REMARK    2  A    between atoms: C_7  and  C_8 
REMARK    3  A    between atoms: C_8  and  C_12 
REMARK    4  A    between atoms: S_10  and  C_14 
REMARK    5  A    between atoms: N_11  and  C_15 
REMARK       I    between atoms: N_11  and  C_19 
REMARK    6  A    between atoms: C_12  and  C_19 
REMARK    7  A    between atoms: C_14  and  C_15 
REMARK    8  A    between atoms: C_15  and  C_18 
ROOT
HETATM    1  H           1     -26.160  -5.108 -16.643  0.00  0.00     0.163 HD
HETATM    2  O           1     -28.149  -6.790 -18.391  0.00  0.00    -0.271 OA
HETATM    3  N           1     -26.487  -5.881 -17.210  0.00  0.00    -0.344 N 
HETATM    4  C           1     -27.758  -5.869 -17.717  0.00  0.00     0.249 C 
ENDROOT
BRANCH   4   5
HETATM    5  C           1     -28.672  -4.703 -17.431  0.00  0.00     0.275 C 
BRANCH   5   6
HETATM    6  N           1     -29.274  -4.213 -18.715  0.00  0.00    -0.066 N 
HETATM    7  H           1     -28.520  -3.837 -19.333  0.00  0.00     0.275 HD
HETATM    8  H           1     -29.756  -5.006 -19.197  0.00  0.00     0.275 HD
HETATM    9  H           1     -29.966  -3.457 -18.510  0.00  0.00     0.275 HD
ENDBRANCH   5   6
BRANCH   5  10
HETATM   10  C           1     -29.783  -5.147 -16.489  0.00  0.00     0.046 C 
BRANCH  10  11
HETATM   11  C           1     -31.075  -5.326 -17.274  0.00  0.00    -0.020 C 
HETATM   12  C           1     -32.199  -4.567 -16.581  0.00  0.00     0.009 C 
HETATM   13  C           1     -31.429  -6.805 -17.340  0.00  0.00     0.009 C 
ENDBRANCH  10  11
ENDBRANCH   5  10
ENDBRANCH   4   5
BRANCH   3  14
HETATM   14  C           1     -25.608  -7.001 -17.483  0.00  0.00     0.194 C 
BRANCH  14  15
HETATM   15  C           1     -24.553  -6.583 -18.498  0.00  0.00     0.106 C 
BRANCH  15  16
HETATM   16  S           1     -25.042  -7.152 -20.151  0.00  0.00    -0.180 SA
HETATM   17  H           1     -25.681  -6.022 -20.505  0.00  0.00     0.101 HD
ENDBRANCH  15  16
ENDBRANCH  14  15
BRANCH  14  18
HETATM   18  C           1     -24.933  -7.433 -16.205  0.00  0.00     0.197 C 
HETATM   19  O           1     -25.352  -7.015 -15.104  0.00  0.00    -0.646 OA
HETATM   20  O           1     -23.953  -8.208 -16.246  0.00  0.00    -0.646 OA
ENDBRANCH  14  18
ENDBRANCH   3  14
TORSDOF 8
ENDMDL
