MODEL 1
REMARK VINA RESULT:      -7.8      0.000      0.000
REMARK  10 active torsions:
REMARK  status: ('A' for Active; 'I' for Inactive)
REMARK    1  A    between atoms: C_2  and  C_16 
REMARK    2  A    between atoms: C_2  and  C_9 
REMARK    3  A    between atoms: C_6  and  C_7 
REMARK    4  A    between atoms: C_7  and  C_8 
REMARK    5  A    between atoms: C_8  and  C_10 
REMARK    6  A    between atoms: C_8  and  N_23 
REMARK    7  A    between atoms: C_9  and  C_20 
REMARK       I    between atoms: C_10  and  N_15 
REMARK    8  A    between atoms: N_15  and  C_20 
REMARK    9  A    between atoms: C_16  and  N_17 
REMARK   10  A    between atoms: C_20  and  C_28 
ROOT
HETATM    1  C           1     -21.164  -5.764  -6.923  0.00  0.00     0.278 C 
ENDROOT
BRANCH   1   2
HETATM    2  C           1     -21.044  -5.522  -5.424  0.00  0.00     0.083 C 
BRANCH   2   3
HETATM    3  C           1     -21.113  -6.831  -4.700  0.00  0.00    -0.028 A 
HETATM    4  C           1     -20.805  -8.066  -5.225  0.00  0.00     0.096 A 
HETATM    5  N           1     -20.999  -8.999  -4.241  0.00  0.00    -0.365 N 
HETATM    6  C           1     -21.428  -8.388  -3.084  0.00  0.00     0.042 A 
HETATM    7  H           1     -20.842 -10.030  -4.353  0.00  0.00     0.165 HD
HETATM    8  C           1     -21.749  -8.938  -1.836  0.00  0.00     0.030 A 
HETATM    9  C           1     -21.508  -7.021  -3.347  0.00  0.00    -0.002 A 
HETATM   10  C           1     -22.163  -8.060  -0.831  0.00  0.00     0.002 A 
HETATM   11  C           1     -22.253  -6.688  -1.065  0.00  0.00     0.001 A 
HETATM   12  C           1     -21.929  -6.156  -2.319  0.00  0.00     0.014 A 
ENDBRANCH   2   3
ENDBRANCH   1   2
BRANCH   1  13
HETATM   13  C           1     -21.817  -4.570  -7.574  0.00  0.00     0.249 C 
HETATM   14  N           1     -22.666  -4.746  -8.634  0.00  0.00    -0.345 N 
HETATM   15  H           1     -22.853  -5.678  -8.981  0.00  0.00     0.163 HD
HETATM   16  O           1     -21.593  -3.458  -7.159  0.00  0.00    -0.271 OA
BRANCH  14  17
HETATM   17  C           1     -23.294  -3.599  -9.260  0.00  0.00     0.185 C 
BRANCH  17  18
HETATM   18  C           1     -22.512  -3.209 -10.508  0.00  0.00     0.038 C 
BRANCH  18  19
HETATM   19  C           1     -21.920  -4.459 -11.148  0.00  0.00     0.030 C 
BRANCH  19  20
HETATM   20  C           1     -20.425  -4.262 -11.359  0.00  0.00     0.230 C 
BRANCH  20  21
HETATM   21  N           1     -20.129  -2.798 -11.498  0.00  0.00    -0.079 N 
HETATM   22  H           1     -19.252  -2.570 -10.976  0.00  0.00     0.274 HD
HETATM   23  H           1     -20.922  -2.241 -11.105  0.00  0.00     0.274 HD
HETATM   24  H           1     -20.004  -2.562 -12.508  0.00  0.00     0.274 HD
ENDBRANCH  20  21
ENDBRANCH  19  20
ENDBRANCH  18  19
ENDBRANCH  17  18
BRANCH  17  25
HETATM   25  C           1     -24.710  -3.948  -9.644  0.00  0.00     0.196 C 
HETATM   26  O           1     -25.047  -5.146  -9.766  0.00  0.00    -0.646 OA
HETATM   27  O           1     -25.547  -3.041  -9.842  0.00  0.00    -0.646 OA
ENDBRANCH  17  25
ENDBRANCH  14  17
ENDBRANCH   1  13
BRANCH   1  28
HETATM   28  N           1     -19.797  -5.966  -7.508  0.00  0.00    -0.066 N 
HETATM   29  H           1     -19.734  -6.924  -7.919  0.00  0.00     0.275 HD
HETATM   30  H           1     -19.079  -5.861  -6.758  0.00  0.00     0.275 HD
HETATM   31  H           1     -19.629  -5.254  -8.254  0.00  0.00     0.275 HD
ENDBRANCH   1  28
TORSDOF 10
ENDMDL
MODEL 2
REMARK VINA RESULT:      -7.4      3.133      8.071
REMARK  10 active torsions:
REMARK  status: ('A' for Active; 'I' for Inactive)
REMARK    1  A    between atoms: C_2  and  C_16 
REMARK    2  A    between atoms: C_2  and  C_9 
REMARK    3  A    between atoms: C_6  and  C_7 
REMARK    4  A    between atoms: C_7  and  C_8 
REMARK    5  A    between atoms: C_8  and  C_10 
REMARK    6  A    between atoms: C_8  and  N_23 
REMARK    7  A    between atoms: C_9  and  C_20 
REMARK       I    between atoms: C_10  and  N_15 
REMARK    8  A    between atoms: N_15  and  C_20 
REMARK    9  A    between atoms: C_16  and  N_17 
REMARK   10  A    between atoms: C_20  and  C_28 
ROOT
HETATM    1  C           1     -21.439  -6.281  -5.479  0.00  0.00     0.278 C 
ENDROOT
BRANCH   1   2
HETATM    2  C           1     -20.938  -5.008  -6.150  0.00  0.00     0.083 C 
BRANCH   2   3
HETATM    3  C           1     -21.862  -4.636  -7.267  0.00  0.00    -0.028 A 
HETATM    4  C           1     -23.214  -4.401  -7.158  0.00  0.00     0.096 A 
HETATM    5  N           1     -23.687  -4.091  -8.406  0.00  0.00    -0.365 N 
HETATM    6  C           1     -22.662  -4.120  -9.325  0.00  0.00     0.042 A 
HETATM    7  H           1     -24.687  -3.863  -8.629  0.00  0.00     0.165 HD
HETATM    8  C           1     -22.675  -3.873 -10.703  0.00  0.00     0.030 A 
HETATM    9  C           1     -21.500  -4.461  -8.632  0.00  0.00    -0.002 A 
HETATM   10  C           1     -21.462  -3.979 -11.390  0.00  0.00     0.002 A 
HETATM   11  C           1     -20.286  -4.319 -10.724  0.00  0.00     0.001 A 
HETATM   12  C           1     -20.290  -4.563  -9.345  0.00  0.00     0.014 A 
ENDBRANCH   2   3
ENDBRANCH   1   2
BRANCH   1  13
HETATM   13  C           1     -20.367  -7.341  -5.547  0.00  0.00     0.249 C 
HETATM   14  N           1     -20.356  -8.363  -4.636  0.00  0.00    -0.345 N 
HETATM   15  H           1     -21.067  -8.406  -3.917  0.00  0.00     0.163 HD
HETATM   16  O           1     -19.519  -7.288  -6.406  0.00  0.00    -0.271 OA
BRANCH  14  17
HETATM   17  C           1     -19.327  -9.382  -4.701  0.00  0.00     0.185 C 
BRANCH  17  18
HETATM   18  C           1     -18.817  -9.679  -3.297  0.00  0.00     0.038 C 
BRANCH  18  19
HETATM   19  C           1     -19.645  -8.902  -2.280  0.00  0.00     0.030 C 
BRANCH  19  20
HETATM   20  C           1     -20.336  -9.878  -1.338  0.00  0.00     0.230 C 
BRANCH  20  21
HETATM   21  N           1     -21.616 -10.352  -1.959  0.00  0.00    -0.079 N 
HETATM   22  H           1     -22.320  -9.579  -1.938  0.00  0.00     0.274 HD
HETATM   23  H           1     -21.983 -11.171  -1.422  0.00  0.00     0.274 HD
HETATM   24  H           1     -21.439 -10.636  -2.949  0.00  0.00     0.274 HD
ENDBRANCH  20  21
ENDBRANCH  19  20
ENDBRANCH  18  19
ENDBRANCH  17  18
BRANCH  17  25
HETATM   25  C           1     -19.902 -10.640  -5.302  0.00  0.00     0.196 C 
HETATM   26  O           1     -20.587 -11.413  -4.598  0.00  0.00    -0.646 OA
HETATM   27  O           1     -19.693 -10.911  -6.505  0.00  0.00    -0.646 OA
ENDBRANCH  17  25
ENDBRANCH  14  17
ENDBRANCH   1  13
BRANCH   1  28
HETATM   28  N           1     -21.766  -5.993  -4.043  0.00  0.00    -0.066 N 
HETATM   29  H           1     -22.097  -5.006  -3.954  0.00  0.00     0.275 HD
HETATM   30  H           1     -20.912  -6.128  -3.458  0.00  0.00     0.275 HD
HETATM   31  H           1     -22.517  -6.644  -3.721  0.00  0.00     0.275 HD
ENDBRANCH   1  28
TORSDOF 10
ENDMDL
MODEL 3
REMARK VINA RESULT:      -7.4      3.453      8.207
REMARK  10 active torsions:
REMARK  status: ('A' for Active; 'I' for Inactive)
REMARK    1  A    between atoms: C_2  and  C_16 
REMARK    2  A    between atoms: C_2  and  C_9 
REMARK    3  A    between atoms: C_6  and  C_7 
REMARK    4  A    between atoms: C_7  and  C_8 
REMARK    5  A    between atoms: C_8  and  C_10 
REMARK    6  A    between atoms: C_8  and  N_23 
REMARK    7  A    between atoms: C_9  and  C_20 
REMARK       I    between atoms: C_10  and  N_15 
REMARK    8  A    between atoms: N_15  and  C_20 
REMARK    9  A    between atoms: C_16  and  N_17 
REMARK   10  A    between atoms: C_20  and  C_28 
ROOT
HETATM    1  C           1     -21.331  -6.272  -5.418  0.00  0.00     0.278 C 
ENDROOT
BRANCH   1   2
HETATM    2  C           1     -20.859  -4.997  -6.106  0.00  0.00     0.083 C 
BRANCH   2   3
HETATM    3  C           1     -21.807  -4.646  -7.210  0.00  0.00    -0.028 A 
HETATM    4  C           1     -23.160  -4.427  -7.081  0.00  0.00     0.096 A 
HETATM    5  N           1     -23.657  -4.134  -8.323  0.00  0.00    -0.365 N 
HETATM    6  C           1     -22.647  -4.159  -9.259  0.00  0.00     0.042 A 
HETATM    7  H           1     -24.663  -3.919  -8.531  0.00  0.00     0.165 HD
HETATM    8  C           1     -22.687  -3.925 -10.639  0.00  0.00     0.030 A 
HETATM    9  C           1     -21.470  -4.480  -8.583  0.00  0.00    -0.002 A 
HETATM   10  C           1     -21.484  -4.022 -11.345  0.00  0.00     0.002 A 
HETATM   11  C           1     -20.293  -4.342 -10.696  0.00  0.00     0.001 A 
HETATM   12  C           1     -20.271  -4.573  -9.315  0.00  0.00     0.014 A 
ENDBRANCH   2   3
ENDBRANCH   1   2
BRANCH   1  13
HETATM   13  C           1     -20.228  -7.302  -5.458  0.00  0.00     0.249 C 
HETATM   14  N           1     -20.108  -8.215  -4.445  0.00  0.00    -0.345 N 
HETATM   15  H           1     -20.759  -8.199  -3.670  0.00  0.00     0.163 HD
HETATM   16  O           1     -19.452  -7.320  -6.383  0.00  0.00    -0.271 OA
BRANCH  14  17
HETATM   17  C           1     -19.049  -9.205  -4.483  0.00  0.00     0.185 C 
BRANCH  17  18
HETATM   18  C           1     -18.463  -9.375  -3.087  0.00  0.00     0.038 C 
BRANCH  18  19
HETATM   19  C           1     -16.944  -9.449  -3.180  0.00  0.00     0.030 C 
BRANCH  19  20
HETATM   20  C           1     -16.448 -10.671  -2.417  0.00  0.00     0.230 C 
BRANCH  20  21
HETATM   21  N           1     -17.610 -11.356  -1.761  0.00  0.00    -0.079 N 
HETATM   22  H           1     -17.402 -12.376  -1.664  0.00  0.00     0.274 HD
HETATM   23  H           1     -18.467 -11.231  -2.347  0.00  0.00     0.274 HD
HETATM   24  H           1     -17.771 -10.942  -0.816  0.00  0.00     0.274 HD
ENDBRANCH  20  21
ENDBRANCH  19  20
ENDBRANCH  18  19
ENDBRANCH  17  18
BRANCH  17  25
HETATM   25  C           1     -19.610 -10.523  -4.956  0.00  0.00     0.196 C 
HETATM   26  O           1     -19.446 -11.555  -4.269  0.00  0.00    -0.646 OA
HETATM   27  O           1     -20.237 -10.585  -6.036  0.00  0.00    -0.646 OA
ENDBRANCH  17  25
ENDBRANCH  14  17
ENDBRANCH   1  13
BRANCH   1  28
HETATM   28  N           1     -21.680  -5.970  -3.991  0.00  0.00    -0.066 N 
HETATM   29  H           1     -22.122  -6.810  -3.556  0.00  0.00     0.275 HD
HETATM   30  H           1     -22.350  -5.169  -3.958  0.00  0.00     0.275 HD
HETATM   31  H           1     -20.812  -5.720  -3.465  0.00  0.00     0.275 HD
ENDBRANCH   1  28
TORSDOF 10
ENDMDL
MODEL 4
REMARK VINA RESULT:      -7.3      3.361      7.772
REMARK  10 active torsions:
REMARK  status: ('A' for Active; 'I' for Inactive)
REMARK    1  A    between atoms: C_2  and  C_16 
REMARK    2  A    between atoms: C_2  and  C_9 
REMARK    3  A    between atoms: C_6  and  C_7 
REMARK    4  A    between atoms: C_7  and  C_8 
REMARK    5  A    between atoms: C_8  and  C_10 
REMARK    6  A    between atoms: C_8  and  N_23 
REMARK    7  A    between atoms: C_9  and  C_20 
REMARK       I    between atoms: C_10  and  N_15 
REMARK    8  A    between atoms: N_15  and  C_20 
REMARK    9  A    between atoms: C_16  and  N_17 
REMARK   10  A    between atoms: C_20  and  C_28 
ROOT
HETATM    1  C           1     -21.883  -6.506  -5.128  0.00  0.00     0.278 C 
ENDROOT
BRANCH   1   2
HETATM    2  C           1     -21.008  -5.678  -6.060  0.00  0.00     0.083 C 
BRANCH   2   3
HETATM    3  C           1     -21.865  -5.017  -7.094  0.00  0.00    -0.028 A 
HETATM    4  C           1     -23.176  -4.629  -6.935  0.00  0.00     0.096 A 
HETATM    5  N           1     -23.592  -4.067  -8.112  0.00  0.00    -0.365 N 
HETATM    6  C           1     -22.570  -4.083  -9.035  0.00  0.00     0.042 A 
HETATM    7  H           1     -24.551  -3.678  -8.286  0.00  0.00     0.165 HD
HETATM    8  C           1     -22.537  -3.623 -10.357  0.00  0.00     0.030 A 
HETATM    9  C           1     -21.469  -4.678  -8.418  0.00  0.00    -0.002 A 
HETATM   10  C           1     -21.342  -3.776 -11.065  0.00  0.00     0.002 A 
HETATM   11  C           1     -20.226  -4.366 -10.474  0.00  0.00     0.001 A 
HETATM   12  C           1     -20.276  -4.822  -9.151  0.00  0.00     0.014 A 
ENDBRANCH   2   3
ENDBRANCH   1   2
BRANCH   1  13
HETATM   13  C           1     -21.369  -7.924  -5.083  0.00  0.00     0.249 C 
HETATM   14  N           1     -21.148  -8.534  -3.878  0.00  0.00    -0.345 N 
HETATM   15  H           1     -21.329  -8.033  -3.017  0.00  0.00     0.163 HD
HETATM   16  O           1     -21.154  -8.521  -6.111  0.00  0.00    -0.271 OA
BRANCH  14  17
HETATM   17  C           1     -20.655  -9.897  -3.834  0.00  0.00     0.185 C 
BRANCH  17  18
HETATM   18  C           1     -19.356  -9.942  -3.038  0.00  0.00     0.038 C 
BRANCH  18  19
HETATM   19  C           1     -18.216  -9.406  -3.894  0.00  0.00     0.030 C 
BRANCH  19  20
HETATM   20  C           1     -18.124 -10.216  -5.181  0.00  0.00     0.230 C 
BRANCH  20  21
HETATM   21  N           1     -18.155  -9.289  -6.359  0.00  0.00    -0.079 N 
HETATM   22  H           1     -17.806  -9.792  -7.207  0.00  0.00     0.274 HD
HETATM   23  H           1     -17.544  -8.462  -6.170  0.00  0.00     0.274 HD
HETATM   24  H           1     -19.135  -8.968  -6.524  0.00  0.00     0.274 HD
ENDBRANCH  20  21
ENDBRANCH  19  20
ENDBRANCH  18  19
ENDBRANCH  17  18
BRANCH  17  25
HETATM   25  C           1     -21.681 -10.782  -3.171  0.00  0.00     0.196 C 
HETATM   26  O           1     -21.389 -11.403  -2.125  0.00  0.00    -0.646 OA
HETATM   27  O           1     -22.822 -10.897  -3.668  0.00  0.00    -0.646 OA
ENDBRANCH  17  25
ENDBRANCH  14  17
ENDBRANCH   1  13
BRANCH   1  28
HETATM   28  N           1     -21.843  -5.916  -3.749  0.00  0.00    -0.066 N 
HETATM   29  H           1     -20.977  -6.234  -3.260  0.00  0.00     0.275 HD
HETATM   30  H           1     -22.681  -6.231  -3.211  0.00  0.00     0.275 HD
HETATM   31  H           1     -21.844  -4.874  -3.817  0.00  0.00     0.275 HD
ENDBRANCH   1  28
TORSDOF 10
ENDMDL
MODEL 5
REMARK VINA RESULT:      -7.2      2.027      3.223
REMARK  10 active torsions:
REMARK  status: ('A' for Active; 'I' for Inactive)
REMARK    1  A    between atoms: C_2  and  C_16 
REMARK    2  A    between atoms: C_2  and  C_9 
REMARK    3  A    between atoms: C_6  and  C_7 
REMARK    4  A    between atoms: C_7  and  C_8 
REMARK    5  A    between atoms: C_8  and  C_10 
REMARK    6  A    between atoms: C_8  and  N_23 
REMARK    7  A    between atoms: C_9  and  C_20 
REMARK       I    between atoms: C_10  and  N_15 
REMARK    8  A    between atoms: N_15  and  C_20 
REMARK    9  A    between atoms: C_16  and  N_17 
REMARK   10  A    between atoms: C_20  and  C_28 
ROOT
HETATM    1  C           1     -21.207  -7.808  -5.420  0.00  0.00     0.278 C 
ENDROOT
BRANCH   1   2
HETATM    2  C           1     -20.290  -7.615  -4.218  0.00  0.00     0.083 C 
BRANCH   2   3
HETATM    3  C           1     -21.101  -7.182  -3.037  0.00  0.00    -0.028 A 
HETATM    4  C           1     -21.762  -5.981  -2.901  0.00  0.00     0.096 A 
HETATM    5  N           1     -22.380  -5.979  -1.680  0.00  0.00    -0.365 N 
HETATM    6  C           1     -22.133  -7.161  -1.018  0.00  0.00     0.042 A 
HETATM    7  H           1     -22.961  -5.191  -1.302  0.00  0.00     0.165 HD
HETATM    8  C           1     -22.555  -7.598   0.244  0.00  0.00     0.030 A 
HETATM    9  C           1     -21.328  -7.937  -1.853  0.00  0.00    -0.002 A 
HETATM   10  C           1     -22.141  -8.866   0.660  0.00  0.00     0.002 A 
HETATM   11  C           1     -21.337  -9.664  -0.153  0.00  0.00     0.001 A 
HETATM   12  C           1     -20.923  -9.211  -1.411  0.00  0.00     0.014 A 
ENDBRANCH   2   3
ENDBRANCH   1   2
BRANCH   1  13
HETATM   13  C           1     -20.767  -6.896  -6.539  0.00  0.00     0.249 C 
HETATM   14  N           1     -21.668  -6.049  -7.126  0.00  0.00    -0.345 N 
HETATM   15  H           1     -22.629  -6.035  -6.809  0.00  0.00     0.163 HD
HETATM   16  O           1     -19.620  -6.913  -6.916  0.00  0.00    -0.271 OA
BRANCH  14  17
HETATM   17  C           1     -21.246  -5.173  -8.201  0.00  0.00     0.185 C 
BRANCH  17  18
HETATM   18  C           1     -22.460  -4.754  -9.021  0.00  0.00     0.038 C 
BRANCH  18  19
HETATM   19  C           1     -22.020  -3.810 -10.134  0.00  0.00     0.030 C 
BRANCH  19  20
HETATM   20  C           1     -22.234  -4.483 -11.483  0.00  0.00     0.230 C 
BRANCH  20  21
HETATM   21  N           1     -21.390  -3.803 -12.520  0.00  0.00    -0.079 N 
HETATM   22  H           1     -21.167  -2.831 -12.205  0.00  0.00     0.274 HD
HETATM   23  H           1     -21.912  -3.763 -13.425  0.00  0.00     0.274 HD
HETATM   24  H           1     -20.502  -4.338 -12.653  0.00  0.00     0.274 HD
ENDBRANCH  20  21
ENDBRANCH  19  20
ENDBRANCH  18  19
ENDBRANCH  17  18
BRANCH  17  25
HETATM   25  C           1     -20.585  -3.947  -7.621  0.00  0.00     0.196 C 
HETATM   26  O           1     -21.217  -3.209  -6.834  0.00  0.00    -0.646 OA
HETATM   27  O           1     -19.406  -3.667  -7.928  0.00  0.00    -0.646 OA
ENDBRANCH  17  25
ENDBRANCH  14  17
ENDBRANCH   1  13
BRANCH   1  28
HETATM   28  N           1     -21.134  -9.234  -5.880  0.00  0.00    -0.066 N 
HETATM   29  H           1     -20.208  -9.637  -5.615  0.00  0.00     0.275 HD
HETATM   30  H           1     -21.247  -9.272  -6.917  0.00  0.00     0.275 HD
HETATM   31  H           1     -21.897  -9.785  -5.426  0.00  0.00     0.275 HD
ENDBRANCH   1  28
TORSDOF 10
ENDMDL
MODEL 6
REMARK VINA RESULT:      -6.9      2.508      7.453
REMARK  10 active torsions:
REMARK  status: ('A' for Active; 'I' for Inactive)
REMARK    1  A    between atoms: C_2  and  C_16 
REMARK    2  A    between atoms: C_2  and  C_9 
REMARK    3  A    between atoms: C_6  and  C_7 
REMARK    4  A    between atoms: C_7  and  C_8 
REMARK    5  A    between atoms: C_8  and  C_10 
REMARK    6  A    between atoms: C_8  and  N_23 
REMARK    7  A    between atoms: C_9  and  C_20 
REMARK       I    between atoms: C_10  and  N_15 
REMARK    8  A    between atoms: N_15  and  C_20 
REMARK    9  A    between atoms: C_16  and  N_17 
REMARK   10  A    between atoms: C_20  and  C_28 
ROOT
HETATM    1  C           1     -20.271  -5.561  -5.960  0.00  0.00     0.278 C 
ENDROOT
BRANCH   1   2
HETATM    2  C           1     -20.850  -4.250  -6.478  0.00  0.00     0.083 C 
BRANCH   2   3
HETATM    3  C           1     -20.860  -4.267  -7.975  0.00  0.00    -0.028 A 
HETATM    4  C           1     -19.756  -4.226  -8.795  0.00  0.00     0.096 A 
HETATM    5  N           1     -20.196  -4.260 -10.092  0.00  0.00    -0.365 N 
HETATM    6  C           1     -21.571  -4.324 -10.127  0.00  0.00     0.042 A 
HETATM    7  H           1     -19.575  -4.241 -10.937  0.00  0.00     0.165 HD
HETATM    8  C           1     -22.447  -4.376 -11.218  0.00  0.00     0.030 A 
HETATM    9  C           1     -22.015  -4.330  -8.804  0.00  0.00    -0.002 A 
HETATM   10  C           1     -23.817  -4.435 -10.944  0.00  0.00     0.002 A 
HETATM   11  C           1     -24.289  -4.442  -9.633  0.00  0.00     0.001 A 
HETATM   12  C           1     -23.399  -4.390  -8.553  0.00  0.00     0.014 A 
ENDBRANCH   2   3
ENDBRANCH   1   2
BRANCH   1  13
HETATM   13  C           1     -21.272  -6.226  -5.047  0.00  0.00     0.249 C 
HETATM   14  N           1     -20.839  -7.022  -4.021  0.00  0.00    -0.345 N 
HETATM   15  H           1     -19.847  -7.164  -3.875  0.00  0.00     0.163 HD
HETATM   16  O           1     -22.455  -6.056  -5.221  0.00  0.00    -0.271 OA
BRANCH  14  17
HETATM   17  C           1     -21.799  -7.662  -3.143  0.00  0.00     0.185 C 
BRANCH  17  18
HETATM   18  C           1     -21.344  -9.084  -2.841  0.00  0.00     0.038 C 
BRANCH  18  19
HETATM   19  C           1     -22.044 -10.053  -3.785  0.00  0.00     0.030 C 
BRANCH  19  20
HETATM   20  C           1     -21.015 -10.704  -4.699  0.00  0.00     0.230 C 
BRANCH  20  21
HETATM   21  N           1     -20.962  -9.962  -6.001  0.00  0.00    -0.079 N 
HETATM   22  H           1     -21.263  -8.972  -5.850  0.00  0.00     0.274 HD
HETATM   23  H           1     -21.603 -10.418  -6.690  0.00  0.00     0.274 HD
HETATM   24  H           1     -19.986  -9.976  -6.372  0.00  0.00     0.274 HD
ENDBRANCH  20  21
ENDBRANCH  19  20
ENDBRANCH  18  19
ENDBRANCH  17  18
BRANCH  17  25
HETATM   25  C           1     -21.900  -6.883  -1.855  0.00  0.00     0.196 C 
HETATM   26  O           1     -21.662  -7.445  -0.764  0.00  0.00    -0.646 OA
HETATM   27  O           1     -22.223  -5.675  -1.878  0.00  0.00    -0.646 OA
ENDBRANCH  17  25
ENDBRANCH  14  17
ENDBRANCH   1  13
BRANCH   1  28
HETATM   28  N           1     -19.971  -6.467  -7.117  0.00  0.00    -0.066 N 
HETATM   29  H           1     -19.813  -7.438  -6.767  0.00  0.00     0.275 HD
HETATM   30  H           1     -19.114  -6.131  -7.610  0.00  0.00     0.275 HD
HETATM   31  H           1     -20.779  -6.463  -7.781  0.00  0.00     0.275 HD
ENDBRANCH   1  28
TORSDOF 10
ENDMDL
MODEL 7
REMARK VINA RESULT:      -6.8      3.083      8.149
REMARK  10 active torsions:
REMARK  status: ('A' for Active; 'I' for Inactive)
REMARK    1  A    between atoms: C_2  and  C_16 
REMARK    2  A    between atoms: C_2  and  C_9 
REMARK    3  A    between atoms: C_6  and  C_7 
REMARK    4  A    between atoms: C_7  and  C_8 
REMARK    5  A    between atoms: C_8  and  C_10 
REMARK    6  A    between atoms: C_8  and  N_23 
REMARK    7  A    between atoms: C_9  and  C_20 
REMARK       I    between atoms: C_10  and  N_15 
REMARK    8  A    between atoms: N_15  and  C_20 
REMARK    9  A    between atoms: C_16  and  N_17 
REMARK   10  A    between atoms: C_20  and  C_28 
ROOT
HETATM    1  C           1     -21.711  -6.224  -5.426  0.00  0.00     0.278 C 
ENDROOT
BRANCH   1   2
HETATM    2  C           1     -21.098  -4.867  -5.753  0.00  0.00     0.083 C 
BRANCH   2   3
HETATM    3  C           1     -20.896  -4.755  -7.232  0.00  0.00    -0.028 A 
HETATM    4  C           1     -19.715  -4.963  -7.908  0.00  0.00     0.096 A 
HETATM    5  N           1     -19.955  -4.761  -9.241  0.00  0.00    -0.365 N 
HETATM    6  C           1     -21.275  -4.426  -9.443  0.00  0.00     0.042 A 
HETATM    7  H           1     -19.236  -4.851 -10.001  0.00  0.00     0.165 HD
HETATM    8  C           1     -21.964  -4.133 -10.626  0.00  0.00     0.030 A 
HETATM    9  C           1     -21.891  -4.415  -8.191  0.00  0.00    -0.002 A 
HETATM   10  C           1     -23.323  -3.820 -10.522  0.00  0.00     0.002 A 
HETATM   11  C           1     -23.964  -3.802  -9.285  0.00  0.00     0.001 A 
HETATM   12  C           1     -23.260  -4.096  -8.111  0.00  0.00     0.014 A 
ENDBRANCH   2   3
ENDBRANCH   1   2
BRANCH   1  13
HETATM   13  C           1     -21.051  -6.789  -4.193  0.00  0.00     0.249 C 
HETATM   14  N           1     -20.467  -8.027  -4.235  0.00  0.00    -0.345 N 
HETATM   15  H           1     -20.479  -8.562  -5.095  0.00  0.00     0.163 HD
HETATM   16  O           1     -21.037  -6.150  -3.168  0.00  0.00    -0.271 OA
BRANCH  14  17
HETATM   17  C           1     -19.832  -8.571  -3.051  0.00  0.00     0.185 C 
BRANCH  17  18
HETATM   18  C           1     -20.793  -9.525  -2.352  0.00  0.00     0.038 C 
BRANCH  18  19
HETATM   19  C           1     -20.968  -9.097  -0.901  0.00  0.00     0.030 C 
BRANCH  19  20
HETATM   20  C           1     -22.386  -8.581  -0.692  0.00  0.00     0.230 C 
BRANCH  20  21
HETATM   21  N           1     -22.377  -7.081  -0.689  0.00  0.00    -0.079 N 
HETATM   22  H           1     -22.802  -6.730  -1.577  0.00  0.00     0.274 HD
HETATM   23  H           1     -21.392  -6.737  -0.616  0.00  0.00     0.274 HD
HETATM   24  H           1     -22.930  -6.731   0.125  0.00  0.00     0.274 HD
ENDBRANCH  20  21
ENDBRANCH  19  20
ENDBRANCH  18  19
ENDBRANCH  17  18
BRANCH  17  25
HETATM   25  C           1     -18.583  -9.318  -3.448  0.00  0.00     0.196 C 
HETATM   26  O           1     -17.718  -9.592  -2.587  0.00  0.00    -0.646 OA
HETATM   27  O           1     -18.411  -9.662  -4.637  0.00  0.00    -0.646 OA
ENDBRANCH  17  25
ENDBRANCH  14  17
ENDBRANCH   1  13
BRANCH   1  28
HETATM   28  N           1     -23.181  -6.060  -5.175  0.00  0.00    -0.066 N 
HETATM   29  H           1     -23.717  -6.479  -5.967  0.00  0.00     0.275 HD
HETATM   30  H           1     -23.411  -5.044  -5.099  0.00  0.00     0.275 HD
HETATM   31  H           1     -23.438  -6.544  -4.285  0.00  0.00     0.275 HD
ENDBRANCH   1  28
TORSDOF 10
ENDMDL
MODEL 8
REMARK VINA RESULT:      -6.8      2.709      8.237
REMARK  10 active torsions:
REMARK  status: ('A' for Active; 'I' for Inactive)
REMARK    1  A    between atoms: C_2  and  C_16 
REMARK    2  A    between atoms: C_2  and  C_9 
REMARK    3  A    between atoms: C_6  and  C_7 
REMARK    4  A    between atoms: C_7  and  C_8 
REMARK    5  A    between atoms: C_8  and  C_10 
REMARK    6  A    between atoms: C_8  and  N_23 
REMARK    7  A    between atoms: C_9  and  C_20 
REMARK       I    between atoms: C_10  and  N_15 
REMARK    8  A    between atoms: N_15  and  C_20 
REMARK    9  A    between atoms: C_16  and  N_17 
REMARK   10  A    between atoms: C_20  and  C_28 
ROOT
HETATM    1  C           1     -20.412  -5.914  -5.891  0.00  0.00     0.278 C 
ENDROOT
BRANCH   1   2
HETATM    2  C           1     -20.792  -4.451  -6.086  0.00  0.00     0.083 C 
BRANCH   2   3
HETATM    3  C           1     -21.777  -4.337  -7.208  0.00  0.00    -0.028 A 
HETATM    4  C           1     -23.148  -4.370  -7.091  0.00  0.00     0.096 A 
HETATM    5  N           1     -23.678  -4.234  -8.346  0.00  0.00    -0.365 N 
HETATM    6  C           1     -22.672  -4.112  -9.278  0.00  0.00     0.042 A 
HETATM    7  H           1     -24.704  -4.224  -8.566  0.00  0.00     0.165 HD
HETATM    8  C           1     -22.740  -3.955 -10.668  0.00  0.00     0.030 A 
HETATM    9  C           1     -21.463  -4.174  -8.586  0.00  0.00    -0.002 A 
HETATM   10  C           1     -21.533  -3.857 -11.367  0.00  0.00     0.002 A 
HETATM   11  C           1     -20.310  -3.916 -10.702  0.00  0.00     0.001 A 
HETATM   12  C           1     -20.260  -4.074  -9.311  0.00  0.00     0.014 A 
ENDBRANCH   2   3
ENDBRANCH   1   2
BRANCH   1  13
HETATM   13  C           1     -21.221  -6.497  -4.759  0.00  0.00     0.249 C 
HETATM   14  N           1     -20.866  -7.701  -4.212  0.00  0.00    -0.345 N 
HETATM   15  H           1     -20.060  -8.199  -4.569  0.00  0.00     0.163 HD
HETATM   16  O           1     -22.182  -5.901  -4.334  0.00  0.00    -0.271 OA
BRANCH  14  17
HETATM   17  C           1     -21.642  -8.261  -3.124  0.00  0.00     0.185 C 
BRANCH  17  18
HETATM   18  C           1     -21.469  -9.775  -3.103  0.00  0.00     0.038 C 
BRANCH  18  19
HETATM   19  C           1     -22.366 -10.374  -2.028  0.00  0.00     0.030 C 
BRANCH  19  20
HETATM   20  C           1     -21.567 -11.369  -1.197  0.00  0.00     0.230 C 
BRANCH  20  21
HETATM   21  N           1     -20.906 -10.652  -0.057  0.00  0.00    -0.079 N 
HETATM   22  H           1     -21.583  -9.977   0.368  0.00  0.00     0.274 HD
HETATM   23  H           1     -20.071 -10.130  -0.409  0.00  0.00     0.274 HD
HETATM   24  H           1     -20.606 -11.345   0.664  0.00  0.00     0.274 HD
ENDBRANCH  20  21
ENDBRANCH  19  20
ENDBRANCH  18  19
ENDBRANCH  17  18
BRANCH  17  25
HETATM   25  C           1     -21.165  -7.683  -1.816  0.00  0.00     0.196 C 
HETATM   26  O           1     -21.928  -6.966  -1.133  0.00  0.00    -0.646 OA
HETATM   27  O           1     -20.005  -7.920  -1.413  0.00  0.00    -0.646 OA
ENDBRANCH  17  25
ENDBRANCH  14  17
ENDBRANCH   1  13
BRANCH   1  28
HETATM   28  N           1     -20.695  -6.676  -7.152  0.00  0.00    -0.066 N 
HETATM   29  H           1     -21.273  -6.087  -7.792  0.00  0.00     0.275 HD
HETATM   30  H           1     -21.215  -7.551  -6.920  0.00  0.00     0.275 HD
HETATM   31  H           1     -19.793  -6.920  -7.620  0.00  0.00     0.275 HD
ENDBRANCH   1  28
TORSDOF 10
ENDMDL
MODEL 9
REMARK VINA RESULT:      -6.8      4.245      8.466
REMARK  10 active torsions:
REMARK  status: ('A' for Active; 'I' for Inactive)
REMARK    1  A    between atoms: C_2  and  C_16 
REMARK    2  A    between atoms: C_2  and  C_9 
REMARK    3  A    between atoms: C_6  and  C_7 
REMARK    4  A    between atoms: C_7  and  C_8 
REMARK    5  A    between atoms: C_8  and  C_10 
REMARK    6  A    between atoms: C_8  and  N_23 
REMARK    7  A    between atoms: C_9  and  C_20 
REMARK       I    between atoms: C_10  and  N_15 
REMARK    8  A    between atoms: N_15  and  C_20 
REMARK    9  A    between atoms: C_16  and  N_17 
REMARK   10  A    between atoms: C_20  and  C_28 
ROOT
HETATM    1  C           1     -19.565  -8.500  -3.707  0.00  0.00     0.278 C 
ENDROOT
BRANCH   1   2
HETATM    2  C           1     -20.154  -8.586  -5.109  0.00  0.00     0.083 C 
BRANCH   2   3
HETATM    3  C           1     -20.990  -7.373  -5.375  0.00  0.00    -0.028 A 
HETATM    4  C           1     -22.241  -7.121  -4.859  0.00  0.00     0.096 A 
HETATM    5  N           1     -22.658  -5.911  -5.346  0.00  0.00    -0.365 N 
HETATM    6  C           1     -21.696  -5.371  -6.169  0.00  0.00     0.042 A 
HETATM    7  H           1     -23.578  -5.459  -5.122  0.00  0.00     0.165 HD
HETATM    8  C           1     -21.686  -4.164  -6.880  0.00  0.00     0.030 A 
HETATM    9  C           1     -20.633  -6.274  -6.205  0.00  0.00    -0.002 A 
HETATM   10  C           1     -20.554  -3.876  -7.648  0.00  0.00     0.002 A 
HETATM   11  C           1     -19.477  -4.760  -7.702  0.00  0.00     0.001 A 
HETATM   12  C           1     -19.504  -5.963  -6.986  0.00  0.00     0.014 A 
ENDBRANCH   2   3
ENDBRANCH   1   2
BRANCH   1  13
HETATM   13  C           1     -20.556  -9.047  -2.710  0.00  0.00     0.249 C 
HETATM   14  N           1     -20.772  -8.391  -1.528  0.00  0.00    -0.345 N 
HETATM   15  H           1     -20.266  -7.538  -1.324  0.00  0.00     0.163 HD
HETATM   16  O           1     -21.160 -10.064  -2.955  0.00  0.00    -0.271 OA
BRANCH  14  17
HETATM   17  C           1     -21.725  -8.916  -0.570  0.00  0.00     0.185 C 
BRANCH  17  18
HETATM   18  C           1     -20.985  -9.400   0.670  0.00  0.00     0.038 C 
BRANCH  18  19
HETATM   19  C           1     -21.041 -10.921   0.735  0.00  0.00     0.030 C 
BRANCH  19  20
HETATM   20  C           1     -19.762 -11.501   0.147  0.00  0.00     0.230 C 
BRANCH  20  21
HETATM   21  N           1     -20.085 -12.253  -1.110  0.00  0.00    -0.079 N 
HETATM   22  H           1     -19.258 -12.828  -1.393  0.00  0.00     0.274 HD
HETATM   23  H           1     -20.316 -11.578  -1.873  0.00  0.00     0.274 HD
HETATM   24  H           1     -20.903 -12.881  -0.940  0.00  0.00     0.274 HD
ENDBRANCH  20  21
ENDBRANCH  19  20
ENDBRANCH  18  19
ENDBRANCH  17  18
BRANCH  17  25
HETATM   25  C           1     -22.698  -7.831  -0.182  0.00  0.00     0.196 C 
HETATM   26  O           1     -23.481  -8.006   0.778  0.00  0.00    -0.646 OA
HETATM   27  O           1     -22.725  -6.756  -0.821  0.00  0.00    -0.646 OA
ENDBRANCH  17  25
ENDBRANCH  14  17
ENDBRANCH   1  13
BRANCH   1  28
HETATM   28  N           1     -18.299  -9.304  -3.646  0.00  0.00    -0.066 N 
HETATM   29  H           1     -18.462 -10.240  -4.079  0.00  0.00     0.275 HD
HETATM   30  H           1     -18.013  -9.427  -2.649  0.00  0.00     0.275 HD
HETATM   31  H           1     -17.544  -8.804  -4.167  0.00  0.00     0.275 HD
ENDBRANCH   1  28
TORSDOF 10
ENDMDL
