MODEL 1
REMARK VINA RESULT:      -7.0      0.000      0.000
REMARK  8 active torsions:
REMARK  status: ('A' for Active; 'I' for Inactive)
REMARK    1  A    between atoms: C_1  and  O_8 
REMARK    2  A    between atoms: C_1  and  C_9 
REMARK    3  A    between atoms: N_4  and  C_21 
REMARK    4  A    between atoms: C_7  and  C_12 
REMARK    5  A    between atoms: C_9  and  C_14 
REMARK    6  A    between atoms: C_9  and  N_19 
REMARK    7  A    between atoms: C_12  and  C_21 
REMARK       I    between atoms: N_19  and  C_20 
REMARK    8  A    between atoms: C_20  and  C_21 
ROOT
HETATM    1  O           1     -36.490  -1.522 -12.299  0.00  0.00    -0.271 OA
HETATM    2  H           1     -34.117  -1.289 -14.336  0.00  0.00     0.163 HD
HETATM    3  N           1     -35.057  -1.182 -13.976  0.00  0.00    -0.343 N 
HETATM    4  C           1     -35.369  -1.650 -12.729  0.00  0.00     0.249 C 
ENDROOT
BRANCH   4   5
HETATM    5  C           1     -34.312  -2.326 -11.890  0.00  0.00     0.275 C 
BRANCH   5   6
HETATM    6  N           1     -34.012  -1.479 -10.689  0.00  0.00    -0.066 N 
HETATM    7  H           1     -34.332  -0.500 -10.863  0.00  0.00     0.275 HD
HETATM    8  H           1     -34.513  -1.865  -9.857  0.00  0.00     0.275 HD
HETATM    9  H           1     -32.983  -1.482 -10.509  0.00  0.00     0.275 HD
ENDBRANCH   5   6
BRANCH   5  10
HETATM   10  C           1     -34.817  -3.689 -11.437  0.00  0.00     0.046 C 
BRANCH  10  11
HETATM   11  C           1     -33.645  -4.524 -10.936  0.00  0.00    -0.020 C 
HETATM   12  C           1     -32.526  -4.499 -11.968  0.00  0.00     0.009 C 
HETATM   13  C           1     -34.102  -5.961 -10.718  0.00  0.00     0.009 C 
ENDBRANCH  10  11
ENDBRANCH   5  10
ENDBRANCH   4   5
BRANCH   3  14
HETATM   14  C           1     -36.072  -0.532 -14.782  0.00  0.00     0.214 C 
BRANCH  14  15
HETATM   15  C           1     -35.930   0.979 -14.657  0.00  0.00     0.147 C 
HETATM   16  C           1     -34.570   1.312 -14.055  0.00  0.00     0.042 C 
BRANCH  15  17
HETATM   17  O           1     -36.035   1.564 -15.927  0.00  0.00    -0.393 OA
HETATM   18  H           1     -36.806   1.204 -16.331  0.00  0.00     0.210 HD
ENDBRANCH  15  17
ENDBRANCH  14  15
BRANCH  14  19
HETATM   19  C           1     -35.903  -0.936 -16.226  0.00  0.00     0.199 C 
HETATM   20  O           1     -34.809  -1.395 -16.622  0.00  0.00    -0.646 OA
HETATM   21  O           1     -36.855  -0.810 -17.027  0.00  0.00    -0.646 OA
ENDBRANCH  14  19
ENDBRANCH   3  14
TORSDOF 8
ENDMDL
MODEL 2
REMARK VINA RESULT:      -6.7     12.749     14.600
REMARK  8 active torsions:
REMARK  status: ('A' for Active; 'I' for Inactive)
REMARK    1  A    between atoms: C_1  and  O_8 
REMARK    2  A    between atoms: C_1  and  C_9 
REMARK    3  A    between atoms: N_4  and  C_21 
REMARK    4  A    between atoms: C_7  and  C_12 
REMARK    5  A    between atoms: C_9  and  C_14 
REMARK    6  A    between atoms: C_9  and  N_19 
REMARK    7  A    between atoms: C_12  and  C_21 
REMARK       I    between atoms: N_19  and  C_20 
REMARK    8  A    between atoms: C_20  and  C_21 
ROOT
HETATM    1  O           1     -21.915  -3.615  -7.279  0.00  0.00    -0.271 OA
HETATM    2  H           1     -21.675  -5.672  -9.636  0.00  0.00     0.163 HD
HETATM    3  N           1     -21.885  -4.796  -9.174  0.00  0.00    -0.343 N 
HETATM    4  C           1     -21.665  -4.660  -7.831  0.00  0.00     0.249 C 
ENDROOT
BRANCH   4   5
HETATM    5  C           1     -21.108  -5.817  -7.037  0.00  0.00     0.275 C 
BRANCH   5   6
HETATM    6  N           1     -19.752  -6.179  -7.567  0.00  0.00    -0.066 N 
HETATM    7  H           1     -19.802  -6.290  -8.605  0.00  0.00     0.275 HD
HETATM    8  H           1     -19.073  -5.422  -7.330  0.00  0.00     0.275 HD
HETATM    9  H           1     -19.439  -7.077  -7.136  0.00  0.00     0.275 HD
ENDBRANCH   5   6
BRANCH   5  10
HETATM   10  C           1     -20.991  -5.419  -5.572  0.00  0.00     0.046 C 
BRANCH  10  11
HETATM   11  C           1     -21.827  -6.366  -4.719  0.00  0.00    -0.020 C 
HETATM   12  C           1     -21.464  -6.182  -3.252  0.00  0.00     0.009 C 
HETATM   13  C           1     -21.547  -7.804  -5.135  0.00  0.00     0.009 C 
ENDBRANCH  10  11
ENDBRANCH   5  10
ENDBRANCH   4   5
BRANCH   3  14
HETATM   14  C           1     -22.420  -3.684  -9.937  0.00  0.00     0.214 C 
BRANCH  14  15
HETATM   15  C           1     -21.641  -3.539 -11.238  0.00  0.00     0.147 C 
HETATM   16  C           1     -20.251  -4.139 -11.065  0.00  0.00     0.042 C 
BRANCH  15  17
HETATM   17  O           1     -22.317  -4.214 -12.264  0.00  0.00    -0.393 OA
HETATM   18  H           1     -22.079  -5.123 -12.198  0.00  0.00     0.210 HD
ENDBRANCH  15  17
ENDBRANCH  14  15
BRANCH  14  19
HETATM   19  C           1     -23.874  -3.941 -10.247  0.00  0.00     0.199 C 
HETATM   20  O           1     -24.606  -3.003 -10.633  0.00  0.00    -0.646 OA
HETATM   21  O           1     -24.347  -5.092 -10.119  0.00  0.00    -0.646 OA
ENDBRANCH  14  19
ENDBRANCH   3  14
TORSDOF 8
ENDMDL
MODEL 3
REMARK VINA RESULT:      -5.9      4.033      6.041
REMARK  8 active torsions:
REMARK  status: ('A' for Active; 'I' for Inactive)
REMARK    1  A    between atoms: C_1  and  O_8 
REMARK    2  A    between atoms: C_1  and  C_9 
REMARK    3  A    between atoms: N_4  and  C_21 
REMARK    4  A    between atoms: C_7  and  C_12 
REMARK    5  A    between atoms: C_9  and  C_14 
REMARK    6  A    between atoms: C_9  and  N_19 
REMARK    7  A    between atoms: C_12  and  C_21 
REMARK       I    between atoms: N_19  and  C_20 
REMARK    8  A    between atoms: C_20  and  C_21 
ROOT
HETATM    1  O           1     -34.980  -4.874 -15.478  0.00  0.00    -0.271 OA
HETATM    2  H           1     -32.354  -3.704 -14.225  0.00  0.00     0.163 HD
HETATM    3  N           1     -33.311  -4.032 -14.258  0.00  0.00    -0.343 N 
HETATM    4  C           1     -33.839  -4.482 -15.438  0.00  0.00     0.249 C 
ENDROOT
BRANCH   4   5
HETATM    5  C           1     -32.995  -4.488 -16.689  0.00  0.00     0.275 C 
BRANCH   5   6
HETATM    6  N           1     -33.164  -3.184 -17.411  0.00  0.00    -0.066 N 
HETATM    7  H           1     -32.304  -2.603 -17.288  0.00  0.00     0.275 HD
HETATM    8  H           1     -33.316  -3.367 -18.429  0.00  0.00     0.275 HD
HETATM    9  H           1     -33.987  -2.674 -17.021  0.00  0.00     0.275 HD
ENDBRANCH   5   6
BRANCH   5  10
HETATM   10  C           1     -31.531  -4.675 -16.315  0.00  0.00     0.046 C 
BRANCH  10  11
HETATM   11  C           1     -30.720  -4.973 -17.570  0.00  0.00    -0.020 C 
HETATM   12  C           1     -30.197  -6.402 -17.508  0.00  0.00     0.009 C 
HETATM   13  C           1     -29.546  -4.006 -17.657  0.00  0.00     0.009 C 
ENDBRANCH  10  11
ENDBRANCH   5  10
ENDBRANCH   4   5
BRANCH   3  14
HETATM   14  C           1     -34.122  -4.026 -13.056  0.00  0.00     0.214 C 
BRANCH  14  15
HETATM   15  C           1     -33.280  -4.488 -11.874  0.00  0.00     0.147 C 
HETATM   16  C           1     -33.961  -5.670 -11.197  0.00  0.00     0.042 C 
BRANCH  15  17
HETATM   17  O           1     -32.011  -4.877 -12.328  0.00  0.00    -0.393 OA
HETATM   18  H           1     -31.594  -5.334 -11.617  0.00  0.00     0.210 HD
ENDBRANCH  15  17
ENDBRANCH  14  15
BRANCH  14  19
HETATM   19  C           1     -34.628  -2.629 -12.798  0.00  0.00     0.199 C 
HETATM   20  O           1     -35.015  -1.918 -13.752  0.00  0.00    -0.646 OA
HETATM   21  O           1     -34.660  -2.181 -11.631  0.00  0.00    -0.646 OA
ENDBRANCH  14  19
ENDBRANCH   3  14
TORSDOF 8
ENDMDL
MODEL 4
REMARK VINA RESULT:      -5.8     10.279     12.050
REMARK  8 active torsions:
REMARK  status: ('A' for Active; 'I' for Inactive)
REMARK    1  A    between atoms: C_1  and  O_8 
REMARK    2  A    between atoms: C_1  and  C_9 
REMARK    3  A    between atoms: N_4  and  C_21 
REMARK    4  A    between atoms: C_7  and  C_12 
REMARK    5  A    between atoms: C_9  and  C_14 
REMARK    6  A    between atoms: C_9  and  N_19 
REMARK    7  A    between atoms: C_12  and  C_21 
REMARK       I    between atoms: N_19  and  C_20 
REMARK    8  A    between atoms: C_20  and  C_21 
ROOT
HETATM    1  O           1     -27.035  -5.987 -20.301  0.00  0.00    -0.271 OA
HETATM    2  H           1     -26.460  -6.556 -17.270  0.00  0.00     0.163 HD
HETATM    3  N           1     -26.986  -6.271 -18.087  0.00  0.00    -0.343 N 
HETATM    4  C           1     -26.408  -6.326 -19.326  0.00  0.00     0.249 C 
ENDROOT
BRANCH   4   5
HETATM    5  C           1     -24.987  -6.811 -19.475  0.00  0.00     0.275 C 
BRANCH   5   6
HETATM    6  N           1     -24.538  -7.445 -18.191  0.00  0.00    -0.066 N 
HETATM    7  H           1     -25.358  -7.558 -17.553  0.00  0.00     0.275 HD
HETATM    8  H           1     -24.124  -8.383 -18.392  0.00  0.00     0.275 HD
HETATM    9  H           1     -23.823  -6.837 -17.734  0.00  0.00     0.275 HD
ENDBRANCH   5   6
BRANCH   5  10
HETATM   10  C           1     -24.914  -7.836 -20.599  0.00  0.00     0.046 C 
BRANCH  10  11
HETATM   11  C           1     -23.654  -7.598 -21.423  0.00  0.00    -0.020 C 
HETATM   12  C           1     -23.967  -7.804 -22.899  0.00  0.00     0.009 C 
HETATM   13  C           1     -22.573  -8.580 -20.991  0.00  0.00     0.009 C 
ENDBRANCH  10  11
ENDBRANCH   5  10
ENDBRANCH   4   5
BRANCH   3  14
HETATM   14  C           1     -28.352  -5.805 -17.944  0.00  0.00     0.214 C 
BRANCH  14  15
HETATM   15  C           1     -29.209  -6.918 -17.357  0.00  0.00     0.147 C 
HETATM   16  C           1     -29.754  -7.787 -18.484  0.00  0.00     0.042 C 
BRANCH  15  17
HETATM   17  O           1     -28.429  -7.704 -16.496  0.00  0.00    -0.393 OA
HETATM   18  H           1     -28.660  -7.458 -15.617  0.00  0.00     0.210 HD
ENDBRANCH  15  17
ENDBRANCH  14  15
BRANCH  14  19
HETATM   19  C           1     -28.381  -4.609 -17.025  0.00  0.00     0.199 C 
HETATM   20  O           1     -27.859  -4.680 -15.891  0.00  0.00    -0.646 OA
HETATM   21  O           1     -28.928  -3.547 -17.396  0.00  0.00    -0.646 OA
ENDBRANCH  14  19
ENDBRANCH   3  14
TORSDOF 8
ENDMDL
MODEL 5
REMARK VINA RESULT:      -5.6     10.149     12.009
REMARK  8 active torsions:
REMARK  status: ('A' for Active; 'I' for Inactive)
REMARK    1  A    between atoms: C_1  and  O_8 
REMARK    2  A    between atoms: C_1  and  C_9 
REMARK    3  A    between atoms: N_4  and  C_21 
REMARK    4  A    between atoms: C_7  and  C_12 
REMARK    5  A    between atoms: C_9  and  C_14 
REMARK    6  A    between atoms: C_9  and  N_19 
REMARK    7  A    between atoms: C_12  and  C_21 
REMARK       I    between atoms: N_19  and  C_20 
REMARK    8  A    between atoms: C_20  and  C_21 
ROOT
HETATM    1  O           1     -27.663  -5.426 -20.331  0.00  0.00    -0.271 OA
HETATM    2  H           1     -26.329  -7.655 -18.573  0.00  0.00     0.163 HD
HETATM    3  N           1     -26.416  -6.977 -19.320  0.00  0.00    -0.343 N 
HETATM    4  C           1     -27.559  -6.235 -19.441  0.00  0.00     0.249 C 
ENDROOT
BRANCH   4   5
HETATM    5  C           1     -28.690  -6.425 -18.459  0.00  0.00     0.275 C 
BRANCH   5   6
HETATM    6  N           1     -29.194  -7.835 -18.547  0.00  0.00    -0.066 N 
HETATM    7  H           1     -29.101  -8.298 -17.614  0.00  0.00     0.275 HD
HETATM    8  H           1     -30.200  -7.828 -18.831  0.00  0.00     0.275 HD
HETATM    9  H           1     -28.635  -8.362 -19.254  0.00  0.00     0.275 HD
ENDBRANCH   5   6
BRANCH   5  10
HETATM   10  C           1     -28.189  -6.152 -17.047  0.00  0.00     0.046 C 
BRANCH  10  11
HETATM   11  C           1     -28.969  -4.987 -16.449  0.00  0.00    -0.020 C 
HETATM   12  C           1     -30.433  -5.095 -16.854  0.00  0.00     0.009 C 
HETATM   13  C           1     -28.395  -3.674 -16.964  0.00  0.00     0.009 C 
ENDBRANCH  10  11
ENDBRANCH   5  10
ENDBRANCH   4   5
BRANCH   3  14
HETATM   14  C           1     -25.330  -6.794 -20.263  0.00  0.00     0.214 C 
BRANCH  14  15
HETATM   15  C           1     -23.999  -7.001 -19.551  0.00  0.00     0.147 C 
HETATM   16  C           1     -24.242  -7.139 -18.054  0.00  0.00     0.042 C 
BRANCH  15  17
HETATM   17  O           1     -23.386  -8.165 -20.036  0.00  0.00    -0.393 OA
HETATM   18  H           1     -24.033  -8.623 -20.546  0.00  0.00     0.210 HD
ENDBRANCH  15  17
ENDBRANCH  14  15
BRANCH  14  19
HETATM   19  C           1     -25.462  -7.796 -21.383  0.00  0.00     0.199 C 
HETATM   20  O           1     -24.687  -7.745 -22.363  0.00  0.00    -0.646 OA
HETATM   21  O           1     -26.347  -8.679 -21.332  0.00  0.00    -0.646 OA
ENDBRANCH  14  19
ENDBRANCH   3  14
TORSDOF 8
ENDMDL
MODEL 6
REMARK VINA RESULT:      -5.3     17.445     19.211
REMARK  8 active torsions:
REMARK  status: ('A' for Active; 'I' for Inactive)
REMARK    1  A    between atoms: C_1  and  O_8 
REMARK    2  A    between atoms: C_1  and  C_9 
REMARK    3  A    between atoms: N_4  and  C_21 
REMARK    4  A    between atoms: C_7  and  C_12 
REMARK    5  A    between atoms: C_9  and  C_14 
REMARK    6  A    between atoms: C_9  and  N_19 
REMARK    7  A    between atoms: C_12  and  C_21 
REMARK       I    between atoms: N_19  and  C_20 
REMARK    8  A    between atoms: C_20  and  C_21 
ROOT
HETATM    1  O           1     -19.134  -8.930  -3.032  0.00  0.00    -0.271 OA
HETATM    2  H           1     -22.137  -8.039  -3.204  0.00  0.00     0.163 HD
HETATM    3  N           1     -21.275  -8.349  -2.774  0.00  0.00    -0.343 N 
HETATM    4  C           1     -20.164  -8.561  -3.544  0.00  0.00     0.249 C 
ENDROOT
BRANCH   4   5
HETATM    5  C           1     -20.223  -8.331  -5.035  0.00  0.00     0.275 C 
BRANCH   5   6
HETATM    6  N           1     -20.800  -9.544  -5.704  0.00  0.00    -0.066 N 
HETATM    7  H           1     -20.828 -10.337  -5.024  0.00  0.00     0.275 HD
HETATM    8  H           1     -21.769  -9.333  -6.031  0.00  0.00     0.275 HD
HETATM    9  H           1     -20.204  -9.806  -6.521  0.00  0.00     0.275 HD
ENDBRANCH   5   6
BRANCH   5  10
HETATM   10  C           1     -21.103  -7.123  -5.329  0.00  0.00     0.046 C 
BRANCH  10  11
HETATM   11  C           1     -20.307  -6.098  -6.127  0.00  0.00    -0.020 C 
HETATM   12  C           1     -20.206  -4.803  -5.332  0.00  0.00     0.009 C 
HETATM   13  C           1     -21.012  -5.827  -7.450  0.00  0.00     0.009 C 
ENDBRANCH  10  11
ENDBRANCH   5  10
ENDBRANCH   4   5
BRANCH   3  14
HETATM   14  C           1     -21.217  -8.570  -1.342  0.00  0.00     0.214 C 
BRANCH  14  15
HETATM   15  C           1     -21.909  -7.419  -0.623  0.00  0.00     0.147 C 
HETATM   16  C           1     -22.281  -6.341  -1.633  0.00  0.00     0.042 C 
BRANCH  15  17
HETATM   17  O           1     -23.069  -7.893   0.006  0.00  0.00    -0.393 OA
HETATM   18  H           1     -23.175  -7.393   0.797  0.00  0.00     0.210 HD
ENDBRANCH  15  17
ENDBRANCH  14  15
BRANCH  14  19
HETATM   19  C           1     -21.913  -9.865  -1.005  0.00  0.00     0.199 C 
HETATM   20  O           1     -21.654 -10.453   0.068  0.00  0.00    -0.646 OA
HETATM   21  O           1     -22.749 -10.351  -1.798  0.00  0.00    -0.646 OA
ENDBRANCH  14  19
ENDBRANCH   3  14
TORSDOF 8
ENDMDL
MODEL 7
REMARK VINA RESULT:      -5.3      9.578     11.376
REMARK  8 active torsions:
REMARK  status: ('A' for Active; 'I' for Inactive)
REMARK    1  A    between atoms: C_1  and  O_8 
REMARK    2  A    between atoms: C_1  and  C_9 
REMARK    3  A    between atoms: N_4  and  C_21 
REMARK    4  A    between atoms: C_7  and  C_12 
REMARK    5  A    between atoms: C_9  and  C_14 
REMARK    6  A    between atoms: C_9  and  N_19 
REMARK    7  A    between atoms: C_12  and  C_21 
REMARK       I    between atoms: N_19  and  C_20 
REMARK    8  A    between atoms: C_20  and  C_21 
ROOT
HETATM    1  O           1     -26.417  -5.245 -16.882  0.00  0.00    -0.271 OA
HETATM    2  H           1     -27.147  -7.599 -18.822  0.00  0.00     0.163 HD
HETATM    3  N           1     -26.601  -6.841 -18.433  0.00  0.00    -0.343 N 
HETATM    4  C           1     -27.067  -6.150 -17.348  0.00  0.00     0.249 C 
ENDROOT
BRANCH   4   5
HETATM    5  C           1     -28.394  -6.519 -16.730  0.00  0.00     0.275 C 
BRANCH   5   6
HETATM    6  N           1     -28.174  -7.520 -15.635  0.00  0.00    -0.066 N 
HETATM    7  H           1     -27.315  -7.265 -15.097  0.00  0.00     0.275 HD
HETATM    8  H           1     -28.998  -7.519 -14.992  0.00  0.00     0.275 HD
HETATM    9  H           1     -28.055  -8.470 -16.050  0.00  0.00     0.275 HD
ENDBRANCH   5   6
BRANCH   5  10
HETATM   10  C           1     -29.052  -5.272 -16.155  0.00  0.00     0.046 C 
BRANCH  10  11
HETATM   11  C           1     -29.801  -4.537 -17.259  0.00  0.00    -0.020 C 
HETATM   12  C           1     -29.269  -3.114 -17.372  0.00  0.00     0.009 C 
HETATM   13  C           1     -31.287  -4.498 -16.927  0.00  0.00     0.009 C 
ENDBRANCH  10  11
ENDBRANCH   5  10
ENDBRANCH   4   5
BRANCH   3  14
HETATM   14  C           1     -25.326  -6.485 -19.025  0.00  0.00     0.214 C 
BRANCH  14  15
HETATM   15  C           1     -24.213  -7.269 -18.340  0.00  0.00     0.147 C 
HETATM   16  C           1     -22.900  -7.030 -19.074  0.00  0.00     0.042 C 
BRANCH  15  17
HETATM   17  O           1     -24.091  -6.840 -17.011  0.00  0.00    -0.393 OA
HETATM   18  H           1     -23.906  -7.604 -16.493  0.00  0.00     0.210 HD
ENDBRANCH  15  17
ENDBRANCH  14  15
BRANCH  14  19
HETATM   19  C           1     -25.345  -6.820 -20.496  0.00  0.00     0.199 C 
HETATM   20  O           1     -25.512  -8.003 -20.866  0.00  0.00    -0.646 OA
HETATM   21  O           1     -25.193  -5.914 -21.345  0.00  0.00    -0.646 OA
ENDBRANCH  14  19
ENDBRANCH   3  14
TORSDOF 8
ENDMDL
MODEL 8
REMARK VINA RESULT:      -5.1     17.473     19.007
REMARK  8 active torsions:
REMARK  status: ('A' for Active; 'I' for Inactive)
REMARK    1  A    between atoms: C_1  and  O_8 
REMARK    2  A    between atoms: C_1  and  C_9 
REMARK    3  A    between atoms: N_4  and  C_21 
REMARK    4  A    between atoms: C_7  and  C_12 
REMARK    5  A    between atoms: C_9  and  C_14 
REMARK    6  A    between atoms: C_9  and  N_19 
REMARK    7  A    between atoms: C_12  and  C_21 
REMARK       I    between atoms: N_19  and  C_20 
REMARK    8  A    between atoms: C_20  and  C_21 
ROOT
HETATM    1  O           1     -22.232 -10.920  -3.393  0.00  0.00    -0.271 OA
HETATM    2  H           1     -20.957  -8.082  -2.990  0.00  0.00     0.163 HD
HETATM    3  N           1     -21.244  -8.919  -3.482  0.00  0.00    -0.343 N 
HETATM    4  C           1     -21.888  -9.921  -2.808  0.00  0.00     0.249 C 
ENDROOT
BRANCH   4   5
HETATM    5  C           1     -22.170  -9.778  -1.332  0.00  0.00     0.275 C 
BRANCH   5   6
HETATM    6  N           1     -21.994 -11.108  -0.659  0.00  0.00    -0.066 N 
HETATM    7  H           1     -22.213 -11.873  -1.336  0.00  0.00     0.275 HD
HETATM    8  H           1     -21.006 -11.205  -0.334  0.00  0.00     0.275 HD
HETATM    9  H           1     -22.639 -11.172   0.159  0.00  0.00     0.275 HD
ENDBRANCH   5   6
BRANCH   5  10
HETATM   10  C           1     -21.204  -8.770  -0.724  0.00  0.00     0.046 C 
BRANCH  10  11
HETATM   11  C           1     -21.992  -7.645  -0.065  0.00  0.00    -0.020 C 
HETATM   12  C           1     -23.277  -8.207   0.530  0.00  0.00     0.009 C 
HETATM   13  C           1     -22.336  -6.587  -1.106  0.00  0.00     0.009 C 
ENDBRANCH  10  11
ENDBRANCH   5  10
ENDBRANCH   4   5
BRANCH   3  14
HETATM   14  C           1     -20.974  -9.057  -4.899  0.00  0.00     0.214 C 
BRANCH  14  15
HETATM   15  C           1     -21.273  -7.739  -5.603  0.00  0.00     0.147 C 
HETATM   16  C           1     -21.712  -6.704  -4.576  0.00  0.00     0.042 C 
BRANCH  15  17
HETATM   17  O           1     -20.117  -7.288  -6.258  0.00  0.00    -0.393 OA
HETATM   18  H           1     -20.093  -6.352  -6.155  0.00  0.00     0.210 HD
ENDBRANCH  15  17
ENDBRANCH  14  15
BRANCH  14  19
HETATM   19  C           1     -19.523  -9.417  -5.102  0.00  0.00     0.199 C 
HETATM   20  O           1     -19.184 -10.122  -6.078  0.00  0.00    -0.646 OA
HETATM   21  O           1     -18.659  -9.013  -4.293  0.00  0.00    -0.646 OA
ENDBRANCH  14  19
ENDBRANCH   3  14
TORSDOF 8
ENDMDL
MODEL 9
REMARK VINA RESULT:      -4.9     17.572     19.552
REMARK  8 active torsions:
REMARK  status: ('A' for Active; 'I' for Inactive)
REMARK    1  A    between atoms: C_1  and  O_8 
REMARK    2  A    between atoms: C_1  and  C_9 
REMARK    3  A    between atoms: N_4  and  C_21 
REMARK    4  A    between atoms: C_7  and  C_12 
REMARK    5  A    between atoms: C_9  and  C_14 
REMARK    6  A    between atoms: C_9  and  N_19 
REMARK    7  A    between atoms: C_12  and  C_21 
REMARK       I    between atoms: N_19  and  C_20 
REMARK    8  A    between atoms: C_20  and  C_21 
ROOT
HETATM    1  O           1     -20.261  -8.383  -3.432  0.00  0.00    -0.271 OA
HETATM    2  H           1     -22.526  -8.157  -1.274  0.00  0.00     0.163 HD
HETATM    3  N           1     -21.727  -8.549  -1.756  0.00  0.00    -0.343 N 
HETATM    4  C           1     -21.215  -7.917  -2.857  0.00  0.00     0.249 C 
ENDROOT
BRANCH   4   5
HETATM    5  C           1     -21.842  -6.636  -3.352  0.00  0.00     0.275 C 
BRANCH   5   6
HETATM    6  N           1     -22.354  -5.847  -2.183  0.00  0.00    -0.066 N 
HETATM    7  H           1     -22.244  -6.408  -1.308  0.00  0.00     0.275 HD
HETATM    8  H           1     -21.809  -4.960  -2.097  0.00  0.00     0.275 HD
HETATM    9  H           1     -23.364  -5.624  -2.329  0.00  0.00     0.275 HD
ENDBRANCH   5   6
BRANCH   5  10
HETATM   10  C           1     -20.800  -5.816  -4.101  0.00  0.00     0.046 C 
BRANCH  10  11
HETATM   11  C           1     -21.284  -5.557  -5.523  0.00  0.00    -0.020 C 
HETATM   12  C           1     -21.166  -6.837  -6.340  0.00  0.00     0.009 C 
HETATM   13  C           1     -20.430  -4.469  -6.159  0.00  0.00     0.009 C 
ENDBRANCH  10  11
ENDBRANCH   5  10
ENDBRANCH   4   5
BRANCH   3  14
HETATM   14  C           1     -21.124  -9.779  -1.281  0.00  0.00     0.214 C 
BRANCH  14  15
HETATM   15  C           1     -20.976  -9.719   0.234  0.00  0.00     0.147 C 
HETATM   16  C           1     -21.755  -8.527   0.773  0.00  0.00     0.042 C 
BRANCH  15  17
HETATM   17  O           1     -21.478 -10.900   0.799  0.00  0.00    -0.393 OA
HETATM   18  H           1     -22.252 -11.129   0.312  0.00  0.00     0.210 HD
ENDBRANCH  15  17
ENDBRANCH  14  15
BRANCH  14  19
HETATM   19  C           1     -22.003 -10.946  -1.655  0.00  0.00     0.199 C 
HETATM   20  O           1     -23.247 -10.826  -1.625  0.00  0.00    -0.646 OA
HETATM   21  O           1     -21.487 -12.034  -1.994  0.00  0.00    -0.646 OA
ENDBRANCH  14  19
ENDBRANCH   3  14
TORSDOF 8
ENDMDL
