MODEL 1
REMARK VINA RESULT:      -6.9      0.000      0.000
REMARK  11 active torsions:
REMARK  status: ('A' for Active; 'I' for Inactive)
REMARK    1  A    between atoms: C_2  and  C_3 
REMARK    2  A    between atoms: C_2  and  O_15 
REMARK    3  A    between atoms: C_3  and  C_10 
REMARK    4  A    between atoms: C_3  and  N_19 
REMARK    5  A    between atoms: O_7  and  P_14 
REMARK    6  A    between atoms: P_14  and  O_15 
REMARK    7  A    between atoms: N_16  and  C_21 
REMARK       I    between atoms: N_19  and  C_20 
REMARK    8  A    between atoms: C_20  and  C_21 
REMARK    9  A    between atoms: C_21  and  C_22 
REMARK   10  A    between atoms: C_22  and  C_23 
REMARK   11  A    between atoms: C_23  and  C_24 
ROOT
HETATM    1  O           1     -33.562  -2.219 -10.871  0.00  0.00    -0.271 OA
HETATM    2  H           1     -35.324  -2.279 -13.465  0.00  0.00     0.163 HD
HETATM    3  N           1     -34.861  -1.885 -12.656  0.00  0.00    -0.343 N 
HETATM    4  C           1     -34.115  -2.689 -11.835  0.00  0.00     0.249 C 
ENDROOT
BRANCH   3   5
HETATM    5  C           1     -34.987  -0.471 -12.365  0.00  0.00     0.210 C 
BRANCH   5   6
HETATM    6  C           1     -34.933   0.321 -13.667  0.00  0.00     0.217 C 
BRANCH   6   7
HETATM    7  O           1     -35.111  -0.550 -14.751  0.00  0.00    -0.287 OA
BRANCH   7   8
HETATM    8  P           1     -36.339  -0.205 -15.742  0.00  0.00     0.406 P 
HETATM    9  O           1     -36.399   1.257 -15.963  0.00  0.00    -0.624 OA
HETATM   10  O           1     -36.137  -0.893 -17.037  0.00  0.00    -0.624 OA
BRANCH   8  11
HETATM   11  O           1     -37.723  -0.708 -15.077  0.00  0.00    -0.300 OA
HETATM   12  H           1     -37.615  -0.566 -14.153  0.00  0.00     0.223 HD
ENDBRANCH   8  11
ENDBRANCH   7   8
ENDBRANCH   6   7
ENDBRANCH   5   6
BRANCH   5  13
HETATM   13  C           1     -36.304  -0.215 -11.676  0.00  0.00     0.198 C 
HETATM   14  O           1     -36.337   0.439 -10.611  0.00  0.00    -0.646 OA
HETATM   15  O           1     -37.364  -0.658 -12.169  0.00  0.00    -0.646 OA
ENDBRANCH   5  13
ENDBRANCH   3   5
BRANCH   4  16
HETATM   16  C           1     -33.984  -4.161 -12.138  0.00  0.00     0.275 C 
BRANCH  16  17
HETATM   17  N           1     -32.559  -4.475 -12.487  0.00  0.00    -0.066 N 
HETATM   18  H           1     -31.948  -3.676 -12.202  0.00  0.00     0.275 HD
HETATM   19  H           1     -32.478  -4.627 -13.517  0.00  0.00     0.275 HD
HETATM   20  H           1     -32.259  -5.340 -11.983  0.00  0.00     0.275 HD
ENDBRANCH  16  17
BRANCH  16  21
HETATM   21  C           1     -34.397  -4.970 -10.916  0.00  0.00     0.053 C 
BRANCH  21  22
HETATM   22  C           1     -33.640  -6.291 -10.901  0.00  0.00     0.115 C 
BRANCH  22  23
HETATM   23  C           1     -34.429  -7.315 -10.124  0.00  0.00     0.172 C 
HETATM   24  O           1     -34.060  -8.511 -10.109  0.00  0.00    -0.648 OA
HETATM   25  O           1     -35.453  -6.970  -9.494  0.00  0.00    -0.648 OA
ENDBRANCH  22  23
ENDBRANCH  21  22
ENDBRANCH  16  21
ENDBRANCH   4  16
TORSDOF 11
ENDMDL
MODEL 2
REMARK VINA RESULT:      -6.3      2.742      4.750
REMARK  11 active torsions:
REMARK  status: ('A' for Active; 'I' for Inactive)
REMARK    1  A    between atoms: C_2  and  C_3 
REMARK    2  A    between atoms: C_2  and  O_15 
REMARK    3  A    between atoms: C_3  and  C_10 
REMARK    4  A    between atoms: C_3  and  N_19 
REMARK    5  A    between atoms: O_7  and  P_14 
REMARK    6  A    between atoms: P_14  and  O_15 
REMARK    7  A    between atoms: N_16  and  C_21 
REMARK       I    between atoms: N_19  and  C_20 
REMARK    8  A    between atoms: C_20  and  C_21 
REMARK    9  A    between atoms: C_21  and  C_22 
REMARK   10  A    between atoms: C_22  and  C_23 
REMARK   11  A    between atoms: C_23  and  C_24 
ROOT
HETATM    1  O           1     -35.215  -5.537 -13.772  0.00  0.00    -0.271 OA
HETATM    2  H           1     -33.002  -3.327 -14.012  0.00  0.00     0.163 HD
HETATM    3  N           1     -33.712  -3.979 -14.320  0.00  0.00    -0.343 N 
HETATM    4  C           1     -34.368  -4.758 -13.404  0.00  0.00     0.249 C 
ENDROOT
BRANCH   3   5
HETATM    5  C           1     -34.033  -4.091 -15.729  0.00  0.00     0.210 C 
BRANCH   5   6
HETATM    6  C           1     -34.906  -2.913 -16.145  0.00  0.00     0.217 C 
BRANCH   6   7
HETATM    7  O           1     -35.105  -2.068 -15.044  0.00  0.00    -0.287 OA
BRANCH   7   8
HETATM    8  P           1     -35.741  -0.619 -15.371  0.00  0.00     0.406 P 
HETATM    9  O           1     -36.056  -0.533 -16.814  0.00  0.00    -0.624 OA
HETATM   10  O           1     -36.982  -0.435 -14.584  0.00  0.00    -0.624 OA
BRANCH   8  11
HETATM   11  O           1     -34.681   0.534 -14.979  0.00  0.00    -0.300 OA
HETATM   12  H           1     -34.155   0.159 -14.294  0.00  0.00     0.223 HD
ENDBRANCH   8  11
ENDBRANCH   7   8
ENDBRANCH   6   7
ENDBRANCH   5   6
BRANCH   5  13
HETATM   13  C           1     -32.758  -4.081 -16.537  0.00  0.00     0.198 C 
HETATM   14  O           1     -32.612  -3.256 -17.464  0.00  0.00    -0.646 OA
HETATM   15  O           1     -31.849  -4.900 -16.279  0.00  0.00    -0.646 OA
ENDBRANCH   5  13
ENDBRANCH   3   5
BRANCH   4  16
HETATM   16  C           1     -34.035  -4.642 -11.938  0.00  0.00     0.275 C 
BRANCH  16  17
HETATM   17  N           1     -33.290  -5.868 -11.496  0.00  0.00    -0.066 N 
HETATM   18  H           1     -33.109  -5.812 -10.468  0.00  0.00     0.275 HD
HETATM   19  H           1     -32.382  -5.926 -12.008  0.00  0.00     0.275 HD
HETATM   20  H           1     -33.863  -6.717 -11.704  0.00  0.00     0.275 HD
ENDBRANCH  16  17
BRANCH  16  21
HETATM   21  C           1     -33.167  -3.412 -11.710  0.00  0.00     0.053 C 
BRANCH  21  22
HETATM   22  C           1     -33.869  -2.467 -10.743  0.00  0.00     0.115 C 
BRANCH  22  23
HETATM   23  C           1     -34.833  -1.592 -11.505  0.00  0.00     0.172 C 
HETATM   24  O           1     -36.018  -1.960 -11.666  0.00  0.00    -0.648 OA
HETATM   25  O           1     -34.449  -0.499 -11.975  0.00  0.00    -0.648 OA
ENDBRANCH  22  23
ENDBRANCH  21  22
ENDBRANCH  16  21
ENDBRANCH   4  16
TORSDOF 11
ENDMDL
MODEL 3
REMARK VINA RESULT:      -6.2      6.934      9.428
REMARK  11 active torsions:
REMARK  status: ('A' for Active; 'I' for Inactive)
REMARK    1  A    between atoms: C_2  and  C_3 
REMARK    2  A    between atoms: C_2  and  O_15 
REMARK    3  A    between atoms: C_3  and  C_10 
REMARK    4  A    between atoms: C_3  and  N_19 
REMARK    5  A    between atoms: O_7  and  P_14 
REMARK    6  A    between atoms: P_14  and  O_15 
REMARK    7  A    between atoms: N_16  and  C_21 
REMARK       I    between atoms: N_19  and  C_20 
REMARK    8  A    between atoms: C_20  and  C_21 
REMARK    9  A    between atoms: C_21  and  C_22 
REMARK   10  A    between atoms: C_22  and  C_23 
REMARK   11  A    between atoms: C_23  and  C_24 
ROOT
HETATM    1  O           1     -31.457  -3.182 -17.588  0.00  0.00    -0.271 OA
HETATM    2  H           1     -31.401  -5.855 -15.948  0.00  0.00     0.163 HD
HETATM    3  N           1     -31.041  -5.087 -16.500  0.00  0.00    -0.343 N 
HETATM    4  C           1     -31.887  -4.099 -16.930  0.00  0.00     0.249 C 
ENDROOT
BRANCH   3   5
HETATM    5  C           1     -29.632  -5.032 -16.837  0.00  0.00     0.210 C 
BRANCH   5   6
HETATM    6  C           1     -28.821  -5.695 -15.729  0.00  0.00     0.217 C 
BRANCH   6   7
HETATM    7  O           1     -27.502  -5.220 -15.769  0.00  0.00    -0.287 OA
BRANCH   7   8
HETATM    8  P           1     -26.364  -6.321 -16.093  0.00  0.00     0.406 P 
HETATM    9  O           1     -25.041  -5.799 -15.683  0.00  0.00    -0.624 OA
HETATM   10  O           1     -26.656  -7.566 -15.348  0.00  0.00    -0.624 OA
BRANCH   8  11
HETATM   11  O           1     -26.355  -6.633 -17.677  0.00  0.00    -0.300 OA
HETATM   12  H           1     -27.247  -6.847 -17.889  0.00  0.00     0.223 HD
ENDBRANCH   8  11
ENDBRANCH   7   8
ENDBRANCH   6   7
ENDBRANCH   5   6
BRANCH   5  13
HETATM   13  C           1     -29.398  -5.761 -18.136  0.00  0.00     0.198 C 
HETATM   14  O           1     -28.715  -5.229 -19.038  0.00  0.00    -0.646 OA
HETATM   15  O           1     -29.886  -6.899 -18.311  0.00  0.00    -0.646 OA
ENDBRANCH   5  13
ENDBRANCH   3   5
BRANCH   4  16
HETATM   16  C           1     -33.353  -4.155 -16.579  0.00  0.00     0.275 C 
BRANCH  16  17
HETATM   17  N           1     -33.507  -4.297 -15.094  0.00  0.00    -0.066 N 
HETATM   18  H           1     -32.957  -5.121 -14.764  0.00  0.00     0.275 HD
HETATM   19  H           1     -34.516  -4.434 -14.860  0.00  0.00     0.275 HD
HETATM   20  H           1     -33.156  -3.432 -14.623  0.00  0.00     0.275 HD
ENDBRANCH  16  17
BRANCH  16  21
HETATM   21  C           1     -34.036  -2.875 -17.041  0.00  0.00     0.053 C 
BRANCH  21  22
HETATM   22  C           1     -35.138  -2.503 -16.058  0.00  0.00     0.115 C 
BRANCH  22  23
HETATM   23  C           1     -35.510  -1.053 -16.244  0.00  0.00     0.172 C 
HETATM   24  O           1     -36.338  -0.728 -17.124  0.00  0.00    -0.648 OA
HETATM   25  O           1     -34.991  -0.176 -15.520  0.00  0.00    -0.648 OA
ENDBRANCH  22  23
ENDBRANCH  21  22
ENDBRANCH  16  21
ENDBRANCH   4  16
TORSDOF 11
ENDMDL
MODEL 4
REMARK VINA RESULT:      -6.0      3.263      5.658
REMARK  11 active torsions:
REMARK  status: ('A' for Active; 'I' for Inactive)
REMARK    1  A    between atoms: C_2  and  C_3 
REMARK    2  A    between atoms: C_2  and  O_15 
REMARK    3  A    between atoms: C_3  and  C_10 
REMARK    4  A    between atoms: C_3  and  N_19 
REMARK    5  A    between atoms: O_7  and  P_14 
REMARK    6  A    between atoms: P_14  and  O_15 
REMARK    7  A    between atoms: N_16  and  C_21 
REMARK       I    between atoms: N_19  and  C_20 
REMARK    8  A    between atoms: C_20  and  C_21 
REMARK    9  A    between atoms: C_21  and  C_22 
REMARK   10  A    between atoms: C_22  and  C_23 
REMARK   11  A    between atoms: C_23  and  C_24 
ROOT
HETATM    1  O           1     -37.761  -0.685 -13.903  0.00  0.00    -0.271 OA
HETATM    2  H           1     -34.985   0.016 -12.621  0.00  0.00     0.163 HD
HETATM    3  N           1     -35.925  -0.354 -12.675  0.00  0.00    -0.343 N 
HETATM    4  C           1     -36.638  -0.244 -13.839  0.00  0.00     0.249 C 
ENDROOT
BRANCH   3   5
HETATM    5  C           1     -36.518  -0.999 -11.520  0.00  0.00     0.210 C 
BRANCH   5   6
HETATM    6  C           1     -35.488  -1.911 -10.864  0.00  0.00     0.217 C 
BRANCH   6   7
HETATM    7  O           1     -35.690  -3.230 -11.295  0.00  0.00    -0.287 OA
BRANCH   7   8
HETATM    8  P           1     -34.450  -3.920 -12.066  0.00  0.00     0.406 P 
HETATM    9  O           1     -33.721  -2.895 -12.845  0.00  0.00    -0.624 OA
HETATM   10  O           1     -33.533  -4.533 -11.078  0.00  0.00    -0.624 OA
BRANCH   8  11
HETATM   11  O           1     -35.005  -5.063 -13.063  0.00  0.00    -0.300 OA
HETATM   12  H           1     -34.343  -5.732 -13.060  0.00  0.00     0.223 HD
ENDBRANCH   8  11
ENDBRANCH   7   8
ENDBRANCH   6   7
ENDBRANCH   5   6
BRANCH   5  13
HETATM   13  C           1     -36.962   0.050 -10.531  0.00  0.00     0.198 C 
HETATM   14  O           1     -38.069   0.613 -10.671  0.00  0.00    -0.646 OA
HETATM   15  O           1     -36.222   0.357  -9.571  0.00  0.00    -0.646 OA
ENDBRANCH   5  13
ENDBRANCH   3   5
BRANCH   4  16
HETATM   16  C           1     -36.021   0.427 -15.041  0.00  0.00     0.275 C 
BRANCH  16  17
HETATM   17  N           1     -35.486   1.772 -14.643  0.00  0.00    -0.066 N 
HETATM   18  H           1     -35.703   1.947 -13.636  0.00  0.00     0.275 HD
HETATM   19  H           1     -35.932   2.511 -15.232  0.00  0.00     0.275 HD
HETATM   20  H           1     -34.451   1.790 -14.786  0.00  0.00     0.275 HD
ENDBRANCH  16  17
BRANCH  16  21
HETATM   21  C           1     -34.885  -0.433 -15.576  0.00  0.00     0.053 C 
BRANCH  21  22
HETATM   22  C           1     -35.448  -1.499 -16.506  0.00  0.00     0.115 C 
BRANCH  22  23
HETATM   23  C           1     -34.494  -2.665 -16.572  0.00  0.00     0.172 C 
HETATM   24  O           1     -34.664  -3.656 -15.827  0.00  0.00    -0.648 OA
HETATM   25  O           1     -33.533  -2.642 -17.372  0.00  0.00    -0.648 OA
ENDBRANCH  22  23
ENDBRANCH  21  22
ENDBRANCH  16  21
ENDBRANCH   4  16
TORSDOF 11
ENDMDL
MODEL 5
REMARK VINA RESULT:      -6.0     24.785     26.261
REMARK  11 active torsions:
REMARK  status: ('A' for Active; 'I' for Inactive)
REMARK    1  A    between atoms: C_2  and  C_3 
REMARK    2  A    between atoms: C_2  and  O_15 
REMARK    3  A    between atoms: C_3  and  C_10 
REMARK    4  A    between atoms: C_3  and  N_19 
REMARK    5  A    between atoms: O_7  and  P_14 
REMARK    6  A    between atoms: P_14  and  O_15 
REMARK    7  A    between atoms: N_16  and  C_21 
REMARK       I    between atoms: N_19  and  C_20 
REMARK    8  A    between atoms: C_20  and  C_21 
REMARK    9  A    between atoms: C_21  and  C_22 
REMARK   10  A    between atoms: C_22  and  C_23 
REMARK   11  A    between atoms: C_23  and  C_24 
ROOT
HETATM    1  O           1     -10.779   3.889 -22.661  0.00  0.00    -0.271 OA
HETATM    2  H           1     -12.140   6.254 -21.111  0.00  0.00     0.163 HD
HETATM    3  N           1     -11.402   5.624 -21.400  0.00  0.00    -0.343 N 
HETATM    4  C           1     -11.660   4.641 -22.317  0.00  0.00     0.249 C 
ENDROOT
BRANCH   3   5
HETATM    5  C           1     -10.071   5.762 -20.840  0.00  0.00     0.210 C 
BRANCH   5   6
HETATM    6  C           1      -9.723   7.241 -20.720  0.00  0.00     0.217 C 
BRANCH   6   7
HETATM    7  O           1     -10.868   8.012 -20.965  0.00  0.00    -0.287 OA
BRANCH   7   8
HETATM    8  P           1     -11.597   8.629 -19.661  0.00  0.00     0.406 P 
HETATM    9  O           1     -12.036  10.012 -19.950  0.00  0.00    -0.624 OA
HETATM   10  O           1     -12.773   7.800 -19.314  0.00  0.00    -0.624 OA
BRANCH   8  11
HETATM   11  O           1     -10.562   8.639 -18.422  0.00  0.00    -0.300 OA
HETATM   12  H           1     -10.997   8.161 -17.737  0.00  0.00     0.223 HD
ENDBRANCH   8  11
ENDBRANCH   7   8
ENDBRANCH   6   7
ENDBRANCH   5   6
BRANCH   5  13
HETATM   13  C           1     -10.031   5.123 -19.474  0.00  0.00     0.198 C 
HETATM   14  O           1      -9.749   5.812 -18.470  0.00  0.00    -0.646 OA
HETATM   15  O           1     -10.282   3.905 -19.347  0.00  0.00    -0.646 OA
ENDBRANCH   5  13
ENDBRANCH   3   5
BRANCH   4  16
HETATM   16  C           1     -13.045   4.497 -22.899  0.00  0.00     0.275 C 
BRANCH  16  17
HETATM   17  N           1     -13.592   3.141 -22.560  0.00  0.00    -0.066 N 
HETATM   18  H           1     -14.623   3.212 -22.406  0.00  0.00     0.275 HD
HETATM   19  H           1     -13.131   2.788 -21.691  0.00  0.00     0.275 HD
HETATM   20  H           1     -13.401   2.482 -23.348  0.00  0.00     0.275 HD
ENDBRANCH  16  17
BRANCH  16  21
HETATM   21  C           1     -13.954   5.571 -22.317  0.00  0.00     0.053 C 
BRANCH  21  22
HETATM   22  C           1     -15.089   4.912 -21.543  0.00  0.00     0.115 C 
BRANCH  22  23
HETATM   23  C           1     -14.812   5.012 -20.063  0.00  0.00     0.172 C 
HETATM   24  O           1     -13.724   4.603 -19.601  0.00  0.00    -0.648 OA
HETATM   25  O           1     -15.671   5.503 -19.298  0.00  0.00    -0.648 OA
ENDBRANCH  22  23
ENDBRANCH  21  22
ENDBRANCH  16  21
ENDBRANCH   4  16
TORSDOF 11
ENDMDL
MODEL 6
REMARK VINA RESULT:      -6.0     13.103     14.956
REMARK  11 active torsions:
REMARK  status: ('A' for Active; 'I' for Inactive)
REMARK    1  A    between atoms: C_2  and  C_3 
REMARK    2  A    between atoms: C_2  and  O_15 
REMARK    3  A    between atoms: C_3  and  C_10 
REMARK    4  A    between atoms: C_3  and  N_19 
REMARK    5  A    between atoms: O_7  and  P_14 
REMARK    6  A    between atoms: P_14  and  O_15 
REMARK    7  A    between atoms: N_16  and  C_21 
REMARK       I    between atoms: N_19  and  C_20 
REMARK    8  A    between atoms: C_20  and  C_21 
REMARK    9  A    between atoms: C_21  and  C_22 
REMARK   10  A    between atoms: C_22  and  C_23 
REMARK   11  A    between atoms: C_23  and  C_24 
ROOT
HETATM    1  O           1     -20.747  -7.061  -6.547  0.00  0.00    -0.271 OA
HETATM    2  H           1     -23.011  -4.998  -5.872  0.00  0.00     0.163 HD
HETATM    3  N           1     -22.278  -5.442  -6.410  0.00  0.00    -0.343 N 
HETATM    4  C           1     -21.621  -6.532  -5.904  0.00  0.00     0.249 C 
ENDROOT
BRANCH   3   5
HETATM    5  C           1     -21.923  -4.923  -7.717  0.00  0.00     0.210 C 
BRANCH   5   6
HETATM    6  C           1     -23.170  -4.379  -8.402  0.00  0.00     0.217 C 
BRANCH   6   7
HETATM    7  O           1     -23.343  -5.021  -9.637  0.00  0.00    -0.287 OA
BRANCH   7   8
HETATM    8  P           1     -23.562  -4.054 -10.912  0.00  0.00     0.406 P 
HETATM    9  O           1     -24.864  -3.362 -10.790  0.00  0.00    -0.624 OA
HETATM   10  O           1     -22.473  -3.052 -10.965  0.00  0.00    -0.624 OA
BRANCH   8  11
HETATM   11  O           1     -23.544  -4.936 -12.265  0.00  0.00    -0.300 OA
HETATM   12  H           1     -23.480  -5.830 -11.972  0.00  0.00     0.223 HD
ENDBRANCH   8  11
ENDBRANCH   7   8
ENDBRANCH   6   7
ENDBRANCH   5   6
BRANCH   5  13
HETATM   13  C           1     -20.912  -3.815  -7.559  0.00  0.00     0.198 C 
HETATM   14  O           1     -21.126  -2.882  -6.755  0.00  0.00    -0.646 OA
HETATM   15  O           1     -19.859  -3.829  -8.233  0.00  0.00    -0.646 OA
ENDBRANCH   5  13
ENDBRANCH   3   5
BRANCH   4  16
HETATM   16  C           1     -21.991  -7.071  -4.544  0.00  0.00     0.275 C 
BRANCH  16  17
HETATM   17  N           1     -21.633  -8.526  -4.470  0.00  0.00    -0.066 N 
HETATM   18  H           1     -21.743  -8.860  -3.486  0.00  0.00     0.275 HD
HETATM   19  H           1     -20.643  -8.657  -4.776  0.00  0.00     0.275 HD
HETATM   20  H           1     -22.266  -9.073  -5.096  0.00  0.00     0.275 HD
ENDBRANCH  16  17
BRANCH  16  21
HETATM   21  C           1     -21.231  -6.306  -3.470  0.00  0.00     0.053 C 
BRANCH  21  22
HETATM   22  C           1     -22.166  -5.998  -2.308  0.00  0.00     0.115 C 
BRANCH  22  23
HETATM   23  C           1     -22.055  -7.087  -1.270  0.00  0.00     0.172 C 
HETATM   24  O           1     -22.909  -7.173  -0.360  0.00  0.00    -0.648 OA
HETATM   25  O           1     -21.110  -7.904  -1.319  0.00  0.00    -0.648 OA
ENDBRANCH  22  23
ENDBRANCH  21  22
ENDBRANCH  16  21
ENDBRANCH   4  16
TORSDOF 11
ENDMDL
MODEL 7
REMARK VINA RESULT:      -5.8     13.509     15.443
REMARK  11 active torsions:
REMARK  status: ('A' for Active; 'I' for Inactive)
REMARK    1  A    between atoms: C_2  and  C_3 
REMARK    2  A    between atoms: C_2  and  O_15 
REMARK    3  A    between atoms: C_3  and  C_10 
REMARK    4  A    between atoms: C_3  and  N_19 
REMARK    5  A    between atoms: O_7  and  P_14 
REMARK    6  A    between atoms: P_14  and  O_15 
REMARK    7  A    between atoms: N_16  and  C_21 
REMARK       I    between atoms: N_19  and  C_20 
REMARK    8  A    between atoms: C_20  and  C_21 
REMARK    9  A    between atoms: C_21  and  C_22 
REMARK   10  A    between atoms: C_22  and  C_23 
REMARK   11  A    between atoms: C_23  and  C_24 
ROOT
HETATM    1  O           1     -21.233  -7.467  -6.499  0.00  0.00    -0.271 OA
HETATM    2  H           1     -21.199  -4.458  -5.613  0.00  0.00     0.163 HD
HETATM    3  N           1     -21.246  -5.249  -6.243  0.00  0.00    -0.343 N 
HETATM    4  C           1     -21.177  -6.524  -5.747  0.00  0.00     0.249 C 
ENDROOT
BRANCH   3   5
HETATM    5  C           1     -21.385  -5.033  -7.670  0.00  0.00     0.210 C 
BRANCH   5   6
HETATM    6  C           1     -22.289  -3.830  -7.914  0.00  0.00     0.217 C 
BRANCH   6   7
HETATM    7  O           1     -23.574  -4.273  -8.258  0.00  0.00    -0.287 OA
BRANCH   7   8
HETATM    8  P           1     -24.028  -4.006  -9.785  0.00  0.00     0.406 P 
HETATM    9  O           1     -23.070  -3.081 -10.431  0.00  0.00    -0.624 OA
HETATM   10  O           1     -24.052  -5.287 -10.525  0.00  0.00    -0.624 OA
BRANCH   8  11
HETATM   11  O           1     -25.504  -3.350  -9.800  0.00  0.00    -0.300 OA
HETATM   12  H           1     -26.004  -3.860  -9.184  0.00  0.00     0.223 HD
ENDBRANCH   8  11
ENDBRANCH   7   8
ENDBRANCH   6   7
ENDBRANCH   5   6
BRANCH   5  13
HETATM   13  C           1     -20.028  -4.773  -8.273  0.00  0.00     0.198 C 
HETATM   14  O           1     -19.879  -4.801  -9.514  0.00  0.00    -0.646 OA
HETATM   15  O           1     -19.051  -4.528  -7.532  0.00  0.00    -0.646 OA
ENDBRANCH   5  13
ENDBRANCH   3   5
BRANCH   4  16
HETATM   16  C           1     -21.032  -6.749  -4.262  0.00  0.00     0.275 C 
BRANCH  16  17
HETATM   17  N           1     -22.203  -6.141  -3.547  0.00  0.00    -0.066 N 
HETATM   18  H           1     -21.857  -5.523  -2.779  0.00  0.00     0.275 HD
HETATM   19  H           1     -22.796  -6.901  -3.145  0.00  0.00     0.275 HD
HETATM   20  H           1     -22.768  -5.578  -4.222  0.00  0.00     0.275 HD
ENDBRANCH  16  17
BRANCH  16  21
HETATM   21  C           1     -20.983  -8.244  -3.977  0.00  0.00     0.053 C 
BRANCH  21  22
HETATM   22  C           1     -20.077  -8.504  -2.781  0.00  0.00     0.115 C 
BRANCH  22  23
HETATM   23  C           1     -20.910  -8.966  -1.610  0.00  0.00     0.172 C 
HETATM   24  O           1     -20.497  -9.890  -0.875  0.00  0.00    -0.648 OA
HETATM   25  O           1     -22.012  -8.425  -1.375  0.00  0.00    -0.648 OA
ENDBRANCH  22  23
ENDBRANCH  21  22
ENDBRANCH  16  21
ENDBRANCH   4  16
TORSDOF 11
ENDMDL
MODEL 8
REMARK VINA RESULT:      -5.7     14.166     17.279
REMARK  11 active torsions:
REMARK  status: ('A' for Active; 'I' for Inactive)
REMARK    1  A    between atoms: C_2  and  C_3 
REMARK    2  A    between atoms: C_2  and  O_15 
REMARK    3  A    between atoms: C_3  and  C_10 
REMARK    4  A    between atoms: C_3  and  N_19 
REMARK    5  A    between atoms: O_7  and  P_14 
REMARK    6  A    between atoms: P_14  and  O_15 
REMARK    7  A    between atoms: N_16  and  C_21 
REMARK       I    between atoms: N_19  and  C_20 
REMARK    8  A    between atoms: C_20  and  C_21 
REMARK    9  A    between atoms: C_21  and  C_22 
REMARK   10  A    between atoms: C_22  and  C_23 
REMARK   11  A    between atoms: C_23  and  C_24 
ROOT
HETATM    1  O           1     -20.301  -4.448  -6.468  0.00  0.00    -0.271 OA
HETATM    2  H           1     -21.795  -7.077  -7.303  0.00  0.00     0.163 HD
HETATM    3  N           1     -21.234  -6.459  -6.730  0.00  0.00    -0.343 N 
HETATM    4  C           1     -20.970  -5.184  -7.152  0.00  0.00     0.249 C 
ENDROOT
BRANCH   3   5
HETATM    5  C           1     -20.707  -6.926  -5.462  0.00  0.00     0.210 C 
BRANCH   5   6
HETATM    6  C           1     -21.806  -6.874  -4.407  0.00  0.00     0.217 C 
BRANCH   6   7
HETATM    7  O           1     -21.248  -6.527  -3.168  0.00  0.00    -0.287 OA
BRANCH   7   8
HETATM    8  P           1     -21.369  -7.640  -2.003  0.00  0.00     0.406 P 
HETATM    9  O           1     -20.034  -7.882  -1.412  0.00  0.00    -0.624 OA
HETATM   10  O           1     -22.293  -7.156  -0.953  0.00  0.00    -0.624 OA
BRANCH   8  11
HETATM   11  O           1     -21.940  -9.014  -2.629  0.00  0.00    -0.300 OA
HETATM   12  H           1     -21.499  -9.699  -2.157  0.00  0.00     0.223 HD
ENDBRANCH   8  11
ENDBRANCH   7   8
ENDBRANCH   6   7
ENDBRANCH   5   6
BRANCH   5  13
HETATM   13  C           1     -20.222  -8.347  -5.612  0.00  0.00     0.198 C 
HETATM   14  O           1     -21.028  -9.297  -5.514  0.00  0.00    -0.646 OA
HETATM   15  O           1     -19.013  -8.574  -5.835  0.00  0.00    -0.646 OA
ENDBRANCH   5  13
ENDBRANCH   3   5
BRANCH   4  16
HETATM   16  C           1     -21.518  -4.698  -8.472  0.00  0.00     0.275 C 
BRANCH  16  17
HETATM   17  N           1     -22.609  -3.699  -8.223  0.00  0.00    -0.066 N 
HETATM   18  H           1     -23.417  -3.904  -8.853  0.00  0.00     0.275 HD
HETATM   19  H           1     -22.251  -2.737  -8.415  0.00  0.00     0.275 HD
HETATM   20  H           1     -22.919  -3.763  -7.227  0.00  0.00     0.275 HD
ENDBRANCH  16  17
BRANCH  16  21
HETATM   21  C           1     -20.403  -4.041  -9.274  0.00  0.00     0.053 C 
BRANCH  21  22
HETATM   22  C           1     -20.451  -4.538 -10.713  0.00  0.00     0.115 C 
BRANCH  22  23
HETATM   23  C           1     -21.558  -3.830 -11.453  0.00  0.00     0.172 C 
HETATM   24  O           1     -22.505  -4.488 -11.939  0.00  0.00    -0.648 OA
HETATM   25  O           1     -21.530  -2.587 -11.581  0.00  0.00    -0.648 OA
ENDBRANCH  22  23
ENDBRANCH  21  22
ENDBRANCH  16  21
ENDBRANCH   4  16
TORSDOF 11
ENDMDL
MODEL 9
REMARK VINA RESULT:      -5.6      2.520      3.622
REMARK  11 active torsions:
REMARK  status: ('A' for Active; 'I' for Inactive)
REMARK    1  A    between atoms: C_2  and  C_3 
REMARK    2  A    between atoms: C_2  and  O_15 
REMARK    3  A    between atoms: C_3  and  C_10 
REMARK    4  A    between atoms: C_3  and  N_19 
REMARK    5  A    between atoms: O_7  and  P_14 
REMARK    6  A    between atoms: P_14  and  O_15 
REMARK    7  A    between atoms: N_16  and  C_21 
REMARK       I    between atoms: N_19  and  C_20 
REMARK    8  A    between atoms: C_20  and  C_21 
REMARK    9  A    between atoms: C_21  and  C_22 
REMARK   10  A    between atoms: C_22  and  C_23 
REMARK   11  A    between atoms: C_23  and  C_24 
ROOT
HETATM    1  O           1     -34.512   0.350 -12.457  0.00  0.00    -0.271 OA
HETATM    2  H           1     -35.636  -2.347 -13.599  0.00  0.00     0.163 HD
HETATM    3  N           1     -35.342  -1.378 -13.601  0.00  0.00    -0.343 N 
HETATM    4  C           1     -34.863  -0.805 -12.454  0.00  0.00     0.249 C 
ENDROOT
BRANCH   3   5
HETATM    5  C           1     -35.430  -0.597 -14.820  0.00  0.00     0.210 C 
BRANCH   5   6
HETATM    6  C           1     -34.745  -1.349 -15.954  0.00  0.00     0.217 C 
BRANCH   6   7
HETATM    7  O           1     -35.274  -2.644 -16.043  0.00  0.00    -0.287 OA
BRANCH   7   8
HETATM    8  P           1     -34.234  -3.852 -15.781  0.00  0.00     0.406 P 
HETATM    9  O           1     -33.122  -3.766 -16.753  0.00  0.00    -0.624 OA
HETATM   10  O           1     -33.697  -3.751 -14.405  0.00  0.00    -0.624 OA
BRANCH   8  11
HETATM   11  O           1     -34.997  -5.265 -15.956  0.00  0.00    -0.300 OA
HETATM   12  H           1     -35.912  -5.061 -15.868  0.00  0.00     0.223 HD
ENDBRANCH   8  11
ENDBRANCH   7   8
ENDBRANCH   6   7
ENDBRANCH   5   6
BRANCH   5  13
HETATM   13  C           1     -36.880  -0.373 -15.169  0.00  0.00     0.198 C 
HETATM   14  O           1     -37.779  -0.777 -14.400  0.00  0.00    -0.646 OA
HETATM   15  O           1     -37.184   0.218 -16.229  0.00  0.00    -0.646 OA
ENDBRANCH   5  13
ENDBRANCH   3   5
BRANCH   4  16
HETATM   16  C           1     -34.771  -1.619 -11.186  0.00  0.00     0.275 C 
BRANCH  16  17
HETATM   17  N           1     -36.023  -2.430 -11.021  0.00  0.00    -0.066 N 
HETATM   18  H           1     -35.768  -3.427 -10.843  0.00  0.00     0.275 HD
HETATM   19  H           1     -36.597  -2.364 -11.891  0.00  0.00     0.275 HD
HETATM   20  H           1     -36.573  -2.061 -10.212  0.00  0.00     0.275 HD
ENDBRANCH  16  17
BRANCH  16  21
HETATM   21  C           1     -33.570  -2.550 -11.265  0.00  0.00     0.053 C 
BRANCH  21  22
HETATM   22  C           1     -33.849  -3.811 -10.458  0.00  0.00     0.115 C 
BRANCH  22  23
HETATM   23  C           1     -33.323  -5.012 -11.203  0.00  0.00     0.172 C 
HETATM   24  O           1     -33.949  -6.095 -11.166  0.00  0.00    -0.648 OA
HETATM   25  O           1     -32.261  -4.927 -11.858  0.00  0.00    -0.648 OA
ENDBRANCH  22  23
ENDBRANCH  21  22
ENDBRANCH  16  21
ENDBRANCH   4  16
TORSDOF 11
ENDMDL
