MODEL 1
REMARK VINA RESULT:      -7.2      0.000      0.000
REMARK  9 active torsions:
REMARK  status: ('A' for Active; 'I' for Inactive)
REMARK    1  A    between atoms: P_2  and  O_3 
REMARK    2  A    between atoms: P_2  and  O_7 
REMARK    3  A    between atoms: O_3  and  C_4 
REMARK    4  A    between atoms: C_6  and  C_10 
REMARK    5  A    between atoms: C_10  and  C_11 
REMARK    6  A    between atoms: C_11  and  C_13 
REMARK    7  A    between atoms: C_11  and  N_20 
REMARK    8  A    between atoms: N_15  and  C_26 
REMARK       I    between atoms: C_17  and  N_20 
REMARK    9  A    between atoms: C_17  and  C_26 
ROOT
HETATM    1  C           1     -20.016  -4.931  -5.743  0.00  0.00     0.074 C 
ENDROOT
BRANCH   1   2
HETATM    2  C           1     -20.661  -4.565  -7.044  0.00  0.00    -0.056 A 
HETATM    3  C           1     -21.960  -4.060  -7.060  0.00  0.00     0.010 A 
HETATM    4  C           1     -22.561  -3.718  -8.272  0.00  0.00     0.038 A 
HETATM    5  C           1     -21.861  -3.881  -9.467  0.00  0.00     0.081 A 
HETATM    6  C           1     -20.560  -4.385  -9.451  0.00  0.00     0.038 A 
HETATM    7  C           1     -19.960  -4.726  -8.239  0.00  0.00     0.010 A 
BRANCH   5   8
HETATM    8  O           1     -22.444  -3.549 -10.645  0.00  0.00    -0.247 OA
BRANCH   8   9
HETATM    9  P           1     -23.833  -4.275 -11.033  0.00  0.00     0.411 P 
HETATM   10  O           1     -24.946  -3.306 -10.920  0.00  0.00    -0.624 OA
HETATM   11  O           1     -24.072  -5.408 -10.112  0.00  0.00    -0.624 OA
BRANCH   9  12
HETATM   12  O           1     -23.749  -4.821 -12.551  0.00  0.00    -0.300 OA
HETATM   13  H           1     -23.576  -5.744 -12.469  0.00  0.00     0.223 HD
ENDBRANCH   9  12
ENDBRANCH   8   9
ENDBRANCH   5   8
ENDBRANCH   1   2
BRANCH   1  14
HETATM   14  C           1     -20.848  -5.999  -5.046  0.00  0.00     0.189 C 
BRANCH  14  15
HETATM   15  C           1     -20.626  -7.331  -5.719  0.00  0.00     0.197 C 
HETATM   16  O           1     -21.569  -7.893  -6.317  0.00  0.00    -0.646 OA
HETATM   17  O           1     -19.501  -7.872  -5.677  0.00  0.00    -0.646 OA
ENDBRANCH  14  15
BRANCH  14  18
HETATM   18  N           1     -20.449  -6.088  -3.655  0.00  0.00    -0.345 N 
HETATM   19  C           1     -21.155  -6.880  -2.789  0.00  0.00     0.243 C 
HETATM   20  O           1     -20.844  -8.038  -2.638  0.00  0.00    -0.272 OA
HETATM   21  H           1     -19.648  -5.566  -3.324  0.00  0.00     0.163 HD
BRANCH  19  22
HETATM   22  C           1     -22.322  -6.306  -2.024  0.00  0.00     0.332 C 
BRANCH  22  23
HETATM   23  N           1     -22.483  -7.046  -0.729  0.00  0.00    -0.071 N 
HETATM   24  H           1     -22.513  -6.362   0.061  0.00  0.00     0.274 HD
HETATM   25  H           1     -23.372  -7.594  -0.750  0.00  0.00     0.274 HD
HETATM   26  H           1     -21.675  -7.695  -0.595  0.00  0.00     0.274 HD
ENDBRANCH  22  23
ENDBRANCH  19  22
ENDBRANCH  14  18
ENDBRANCH   1  14
TORSDOF 9
ENDMDL
MODEL 2
REMARK VINA RESULT:      -6.8      1.330      2.041
REMARK  9 active torsions:
REMARK  status: ('A' for Active; 'I' for Inactive)
REMARK    1  A    between atoms: P_2  and  O_3 
REMARK    2  A    between atoms: P_2  and  O_7 
REMARK    3  A    between atoms: O_3  and  C_4 
REMARK    4  A    between atoms: C_6  and  C_10 
REMARK    5  A    between atoms: C_10  and  C_11 
REMARK    6  A    between atoms: C_11  and  C_13 
REMARK    7  A    between atoms: C_11  and  N_20 
REMARK    8  A    between atoms: N_15  and  C_26 
REMARK       I    between atoms: C_17  and  N_20 
REMARK    9  A    between atoms: C_17  and  C_26 
ROOT
HETATM    1  C           1     -20.351  -6.582  -5.543  0.00  0.00     0.074 C 
ENDROOT
BRANCH   1   2
HETATM    2  C           1     -20.961  -5.735  -6.616  0.00  0.00    -0.056 A 
HETATM    3  C           1     -20.274  -5.521  -7.810  0.00  0.00     0.010 A 
HETATM    4  C           1     -20.843  -4.732  -8.811  0.00  0.00     0.038 A 
HETATM    5  C           1     -22.099  -4.158  -8.616  0.00  0.00     0.081 A 
HETATM    6  C           1     -22.787  -4.373  -7.421  0.00  0.00     0.038 A 
HETATM    7  C           1     -22.218  -5.162  -6.421  0.00  0.00     0.010 A 
BRANCH   5   8
HETATM    8  O           1     -22.652  -3.392  -9.587  0.00  0.00    -0.247 OA
BRANCH   8   9
HETATM    9  P           1     -23.595  -4.117 -10.679  0.00  0.00     0.411 P 
HETATM   10  O           1     -23.974  -5.461 -10.190  0.00  0.00    -0.624 OA
HETATM   11  O           1     -22.861  -4.246 -11.957  0.00  0.00    -0.624 OA
BRANCH   9  12
HETATM   12  O           1     -24.928  -3.233 -10.910  0.00  0.00    -0.300 OA
HETATM   13  H           1     -25.572  -3.842 -11.231  0.00  0.00     0.223 HD
ENDBRANCH   9  12
ENDBRANCH   8   9
ENDBRANCH   5   8
ENDBRANCH   1   2
BRANCH   1  14
HETATM   14  C           1     -21.142  -7.877  -5.407  0.00  0.00     0.189 C 
BRANCH  14  15
HETATM   15  C           1     -20.189  -9.044  -5.327  0.00  0.00     0.197 C 
HETATM   16  O           1     -20.594 -10.153  -4.916  0.00  0.00    -0.646 OA
HETATM   17  O           1     -18.996  -8.901  -5.670  0.00  0.00    -0.646 OA
ENDBRANCH  14  15
BRANCH  14  18
HETATM   18  N           1     -21.945  -7.826  -4.201  0.00  0.00    -0.345 N 
HETATM   19  C           1     -21.529  -7.079  -3.131  0.00  0.00     0.243 C 
HETATM   20  O           1     -21.860  -5.921  -3.037  0.00  0.00    -0.272 OA
HETATM   21  H           1     -22.814  -8.343  -4.149  0.00  0.00     0.163 HD
BRANCH  19  22
HETATM   22  C           1     -20.656  -7.703  -2.070  0.00  0.00     0.332 C 
BRANCH  22  23
HETATM   23  N           1     -21.425  -7.803  -0.785  0.00  0.00    -0.071 N 
HETATM   24  H           1     -21.178  -6.997  -0.168  0.00  0.00     0.274 HD
HETATM   25  H           1     -22.449  -7.786  -0.991  0.00  0.00     0.274 HD
HETATM   26  H           1     -21.181  -8.698  -0.302  0.00  0.00     0.274 HD
ENDBRANCH  22  23
ENDBRANCH  19  22
ENDBRANCH  14  18
ENDBRANCH   1  14
TORSDOF 9
ENDMDL
MODEL 3
REMARK VINA RESULT:      -6.4      2.287      3.692
REMARK  9 active torsions:
REMARK  status: ('A' for Active; 'I' for Inactive)
REMARK    1  A    between atoms: P_2  and  O_3 
REMARK    2  A    between atoms: P_2  and  O_7 
REMARK    3  A    between atoms: O_3  and  C_4 
REMARK    4  A    between atoms: C_6  and  C_10 
REMARK    5  A    between atoms: C_10  and  C_11 
REMARK    6  A    between atoms: C_11  and  C_13 
REMARK    7  A    between atoms: C_11  and  N_20 
REMARK    8  A    between atoms: N_15  and  C_26 
REMARK       I    between atoms: C_17  and  N_20 
REMARK    9  A    between atoms: C_17  and  C_26 
ROOT
HETATM    1  C           1     -21.995  -7.338  -4.814  0.00  0.00     0.074 C 
ENDROOT
BRANCH   1   2
HETATM    2  C           1     -21.579  -6.366  -5.873  0.00  0.00    -0.056 A 
HETATM    3  C           1     -20.305  -6.445  -6.431  0.00  0.00     0.010 A 
HETATM    4  C           1     -19.917  -5.539  -7.419  0.00  0.00     0.038 A 
HETATM    5  C           1     -20.806  -4.554  -7.848  0.00  0.00     0.081 A 
HETATM    6  C           1     -22.083  -4.475  -7.290  0.00  0.00     0.038 A 
HETATM    7  C           1     -22.469  -5.381  -6.303  0.00  0.00     0.010 A 
BRANCH   5   8
HETATM    8  O           1     -20.430  -3.674  -8.808  0.00  0.00    -0.247 OA
BRANCH   8   9
HETATM    9  P           1     -20.649  -4.097 -10.351  0.00  0.00     0.411 P 
HETATM   10  O           1     -22.042  -4.558 -10.545  0.00  0.00    -0.624 OA
HETATM   11  O           1     -19.714  -5.190 -10.700  0.00  0.00    -0.624 OA
BRANCH   9  12
HETATM   12  O           1     -20.368  -2.822 -11.303  0.00  0.00    -0.300 OA
HETATM   13  H           1     -19.666  -3.092 -11.871  0.00  0.00     0.223 HD
ENDBRANCH   9  12
ENDBRANCH   8   9
ENDBRANCH   5   8
ENDBRANCH   1   2
BRANCH   1  14
HETATM   14  C           1     -20.920  -7.408  -3.737  0.00  0.00     0.189 C 
BRANCH  14  15
HETATM   15  C           1     -21.483  -6.916  -2.428  0.00  0.00     0.197 C 
HETATM   16  O           1     -21.174  -7.488  -1.360  0.00  0.00    -0.646 OA
HETATM   17  O           1     -22.259  -5.936  -2.410  0.00  0.00    -0.646 OA
ENDBRANCH  14  15
BRANCH  14  18
HETATM   18  N           1     -20.478  -8.781  -3.587  0.00  0.00    -0.345 N 
HETATM   19  C           1     -19.161  -9.102  -3.778  0.00  0.00     0.243 C 
HETATM   20  O           1     -18.390  -9.071  -2.848  0.00  0.00    -0.272 OA
HETATM   21  H           1     -21.144  -9.502  -3.340  0.00  0.00     0.163 HD
BRANCH  19  22
HETATM   22  C           1     -18.672  -9.494  -5.151  0.00  0.00     0.332 C 
BRANCH  22  23
HETATM   23  N           1     -19.753 -10.244  -5.871  0.00  0.00    -0.071 N 
HETATM   24  H           1     -19.578 -10.204  -6.900  0.00  0.00     0.274 HD
HETATM   25  H           1     -19.755 -11.240  -5.555  0.00  0.00     0.274 HD
HETATM   26  H           1     -20.680  -9.809  -5.659  0.00  0.00     0.274 HD
ENDBRANCH  22  23
ENDBRANCH  19  22
ENDBRANCH  14  18
ENDBRANCH   1  14
TORSDOF 9
ENDMDL
MODEL 4
REMARK VINA RESULT:      -6.3      3.806      7.779
REMARK  9 active torsions:
REMARK  status: ('A' for Active; 'I' for Inactive)
REMARK    1  A    between atoms: P_2  and  O_3 
REMARK    2  A    between atoms: P_2  and  O_7 
REMARK    3  A    between atoms: O_3  and  C_4 
REMARK    4  A    between atoms: C_6  and  C_10 
REMARK    5  A    between atoms: C_10  and  C_11 
REMARK    6  A    between atoms: C_11  and  C_13 
REMARK    7  A    between atoms: C_11  and  N_20 
REMARK    8  A    between atoms: N_15  and  C_26 
REMARK       I    between atoms: C_17  and  N_20 
REMARK    9  A    between atoms: C_17  and  C_26 
ROOT
HETATM    1  C           1     -21.608  -6.168  -5.887  0.00  0.00     0.074 C 
ENDROOT
BRANCH   1   2
HETATM    2  C           1     -21.386  -6.725  -4.515  0.00  0.00    -0.056 A 
HETATM    3  C           1     -22.007  -6.136  -3.414  0.00  0.00     0.010 A 
HETATM    4  C           1     -21.801  -6.655  -2.136  0.00  0.00     0.038 A 
HETATM    5  C           1     -20.974  -7.765  -1.960  0.00  0.00     0.081 A 
HETATM    6  C           1     -20.354  -8.355  -3.061  0.00  0.00     0.038 A 
HETATM    7  C           1     -20.561  -7.835  -4.339  0.00  0.00     0.010 A 
BRANCH   5   8
HETATM    8  O           1     -20.774  -8.269  -0.718  0.00  0.00    -0.247 OA
BRANCH   8   9
HETATM    9  P           1     -21.947  -9.169  -0.068  0.00  0.00     0.411 P 
HETATM   10  O           1     -21.356 -10.151   0.869  0.00  0.00    -0.624 OA
HETATM   11  O           1     -22.672  -9.885  -1.141  0.00  0.00    -0.624 OA
BRANCH   9  12
HETATM   12  O           1     -22.975  -8.214   0.733  0.00  0.00    -0.300 OA
HETATM   13  H           1     -23.816  -8.629   0.640  0.00  0.00     0.223 HD
ENDBRANCH   9  12
ENDBRANCH   8   9
ENDBRANCH   5   8
ENDBRANCH   1   2
BRANCH   1  14
HETATM   14  C           1     -20.694  -4.969  -6.103  0.00  0.00     0.189 C 
BRANCH  14  15
HETATM   15  C           1     -19.550  -5.362  -7.004  0.00  0.00     0.197 C 
HETATM   16  O           1     -19.447  -6.543  -7.403  0.00  0.00    -0.646 OA
HETATM   17  O           1     -18.706  -4.508  -7.352  0.00  0.00    -0.646 OA
ENDBRANCH  14  15
BRANCH  14  18
HETATM   18  N           1     -21.446  -3.894  -6.719  0.00  0.00    -0.345 N 
HETATM   19  C           1     -22.369  -4.173  -7.692  0.00  0.00     0.243 C 
HETATM   20  O           1     -23.517  -4.397  -7.390  0.00  0.00    -0.272 OA
HETATM   21  H           1     -21.290  -2.937  -6.430  0.00  0.00     0.163 HD
BRANCH  19  22
HETATM   22  C           1     -21.950  -4.202  -9.141  0.00  0.00     0.332 C 
BRANCH  22  23
HETATM   23  N           1     -23.033  -3.599  -9.987  0.00  0.00    -0.071 N 
HETATM   24  H           1     -22.604  -3.093 -10.794  0.00  0.00     0.274 HD
HETATM   25  H           1     -23.660  -4.356 -10.341  0.00  0.00     0.274 HD
HETATM   26  H           1     -23.590  -2.926  -9.412  0.00  0.00     0.274 HD
ENDBRANCH  22  23
ENDBRANCH  19  22
ENDBRANCH  14  18
ENDBRANCH   1  14
TORSDOF 9
ENDMDL
MODEL 5
REMARK VINA RESULT:      -6.1     11.716     13.624
REMARK  9 active torsions:
REMARK  status: ('A' for Active; 'I' for Inactive)
REMARK    1  A    between atoms: P_2  and  O_3 
REMARK    2  A    between atoms: P_2  and  O_7 
REMARK    3  A    between atoms: O_3  and  C_4 
REMARK    4  A    between atoms: C_6  and  C_10 
REMARK    5  A    between atoms: C_10  and  C_11 
REMARK    6  A    between atoms: C_11  and  C_13 
REMARK    7  A    between atoms: C_11  and  N_20 
REMARK    8  A    between atoms: N_15  and  C_26 
REMARK       I    between atoms: C_17  and  N_20 
REMARK    9  A    between atoms: C_17  and  C_26 
ROOT
HETATM    1  C           1     -27.356  -5.535 -16.560  0.00  0.00     0.074 C 
ENDROOT
BRANCH   1   2
HETATM    2  C           1     -26.401  -6.120 -17.553  0.00  0.00    -0.056 A 
HETATM    3  C           1     -26.730  -6.143 -18.908  0.00  0.00     0.010 A 
HETATM    4  C           1     -25.840  -6.688 -19.834  0.00  0.00     0.038 A 
HETATM    5  C           1     -24.620  -7.209 -19.403  0.00  0.00     0.081 A 
HETATM    6  C           1     -24.290  -7.185 -18.048  0.00  0.00     0.038 A 
HETATM    7  C           1     -25.181  -6.640 -17.123  0.00  0.00     0.010 A 
BRANCH   5   8
HETATM    8  O           1     -23.755  -7.738 -20.302  0.00  0.00    -0.247 OA
BRANCH   8   9
HETATM    9  P           1     -24.287  -7.994 -21.805  0.00  0.00     0.411 P 
HETATM   10  O           1     -24.250  -6.725 -22.566  0.00  0.00    -0.624 OA
HETATM   11  O           1     -25.677  -8.500 -21.757  0.00  0.00    -0.624 OA
BRANCH   9  12
HETATM   12  O           1     -23.342  -9.084 -22.532  0.00  0.00    -0.300 OA
HETATM   13  H           1     -23.688  -9.164 -23.405  0.00  0.00     0.223 HD
ENDBRANCH   9  12
ENDBRANCH   8   9
ENDBRANCH   5   8
ENDBRANCH   1   2
BRANCH   1  14
HETATM   14  C           1     -28.721  -6.191 -16.720  0.00  0.00     0.189 C 
BRANCH  14  15
HETATM   15  C           1     -28.710  -7.546 -16.059  0.00  0.00     0.197 C 
HETATM   16  O           1     -28.072  -7.719 -14.998  0.00  0.00    -0.646 OA
HETATM   17  O           1     -29.338  -8.497 -16.573  0.00  0.00    -0.646 OA
ENDBRANCH  14  15
BRANCH  14  18
HETATM   18  N           1     -29.732  -5.358 -16.097  0.00  0.00    -0.345 N 
HETATM   19  C           1     -30.820  -4.944 -16.818  0.00  0.00     0.243 C 
HETATM   20  O           1     -31.822  -5.618 -16.841  0.00  0.00    -0.272 OA
HETATM   21  H           1     -29.633  -5.083 -15.128  0.00  0.00     0.163 HD
BRANCH  19  22
HETATM   22  C           1     -30.765  -3.646 -17.586  0.00  0.00     0.332 C 
BRANCH  22  23
HETATM   23  N           1     -32.115  -2.992 -17.558  0.00  0.00    -0.071 N 
HETATM   24  H           1     -32.791  -3.565 -18.112  0.00  0.00     0.274 HD
HETATM   25  H           1     -32.446  -2.919 -16.570  0.00  0.00     0.274 HD
HETATM   26  H           1     -32.047  -2.035 -17.975  0.00  0.00     0.274 HD
ENDBRANCH  22  23
ENDBRANCH  19  22
ENDBRANCH  14  18
ENDBRANCH   1  14
TORSDOF 9
ENDMDL
MODEL 6
REMARK VINA RESULT:      -6.1      3.857      5.516
REMARK  9 active torsions:
REMARK  status: ('A' for Active; 'I' for Inactive)
REMARK    1  A    between atoms: P_2  and  O_3 
REMARK    2  A    between atoms: P_2  and  O_7 
REMARK    3  A    between atoms: O_3  and  C_4 
REMARK    4  A    between atoms: C_6  and  C_10 
REMARK    5  A    between atoms: C_10  and  C_11 
REMARK    6  A    between atoms: C_11  and  C_13 
REMARK    7  A    between atoms: C_11  and  N_20 
REMARK    8  A    between atoms: N_15  and  C_26 
REMARK       I    between atoms: C_17  and  N_20 
REMARK    9  A    between atoms: C_17  and  C_26 
ROOT
HETATM    1  C           1     -20.356  -9.376  -1.792  0.00  0.00     0.074 C 
ENDROOT
BRANCH   1   2
HETATM    2  C           1     -20.867  -8.388  -2.793  0.00  0.00    -0.056 A 
HETATM    3  C           1     -21.080  -8.779  -4.114  0.00  0.00     0.010 A 
HETATM    4  C           1     -21.557  -7.858  -5.047  0.00  0.00     0.038 A 
HETATM    5  C           1     -21.822  -6.545  -4.657  0.00  0.00     0.081 A 
HETATM    6  C           1     -21.611  -6.154  -3.335  0.00  0.00     0.038 A 
HETATM    7  C           1     -21.134  -7.075  -2.403  0.00  0.00     0.010 A 
BRANCH   5   8
HETATM    8  O           1     -22.286  -5.651  -5.563  0.00  0.00    -0.247 OA
BRANCH   8   9
HETATM    9  P           1     -21.225  -4.984  -6.581  0.00  0.00     0.411 P 
HETATM   10  O           1     -20.890  -5.951  -7.650  0.00  0.00    -0.624 OA
HETATM   11  O           1     -19.995  -4.620  -5.843  0.00  0.00    -0.624 OA
BRANCH   9  12
HETATM   12  O           1     -21.871  -3.658  -7.240  0.00  0.00    -0.300 OA
HETATM   13  H           1     -22.158  -3.137  -6.508  0.00  0.00     0.223 HD
ENDBRANCH   9  12
ENDBRANCH   8   9
ENDBRANCH   5   8
ENDBRANCH   1   2
BRANCH   1  14
HETATM   14  C           1     -21.385 -10.482  -1.597  0.00  0.00     0.189 C 
BRANCH  14  15
HETATM   15  C           1     -20.738 -11.822  -1.838  0.00  0.00     0.197 C 
HETATM   16  O           1     -20.776 -12.703  -0.952  0.00  0.00    -0.646 OA
HETATM   17  O           1     -20.164 -12.053  -2.924  0.00  0.00    -0.646 OA
ENDBRANCH  14  15
BRANCH  14  18
HETATM   18  N           1     -21.897 -10.430  -0.241  0.00  0.00    -0.345 N 
HETATM   19  C           1     -23.116  -9.859   0.010  0.00  0.00     0.243 C 
HETATM   20  O           1     -24.118 -10.535  -0.019  0.00  0.00    -0.272 OA
HETATM   21  H           1     -21.353 -10.816   0.520  0.00  0.00     0.163 HD
BRANCH  19  22
HETATM   22  C           1     -23.209  -8.386   0.322  0.00  0.00     0.332 C 
BRANCH  22  23
HETATM   23  N           1     -22.001  -7.964   1.106  0.00  0.00    -0.071 N 
HETATM   24  H           1     -21.188  -7.851   0.459  0.00  0.00     0.274 HD
HETATM   25  H           1     -22.196  -7.056   1.584  0.00  0.00     0.274 HD
HETATM   26  H           1     -21.777  -8.694   1.821  0.00  0.00     0.274 HD
ENDBRANCH  22  23
ENDBRANCH  19  22
ENDBRANCH  14  18
ENDBRANCH   1  14
TORSDOF 9
ENDMDL
MODEL 7
REMARK VINA RESULT:      -6.1      4.701      6.956
REMARK  9 active torsions:
REMARK  status: ('A' for Active; 'I' for Inactive)
REMARK    1  A    between atoms: P_2  and  O_3 
REMARK    2  A    between atoms: P_2  and  O_7 
REMARK    3  A    between atoms: O_3  and  C_4 
REMARK    4  A    between atoms: C_6  and  C_10 
REMARK    5  A    between atoms: C_10  and  C_11 
REMARK    6  A    between atoms: C_11  and  C_13 
REMARK    7  A    between atoms: C_11  and  N_20 
REMARK    8  A    between atoms: N_15  and  C_26 
REMARK       I    between atoms: C_17  and  N_20 
REMARK    9  A    between atoms: C_17  and  C_26 
ROOT
HETATM    1  C           1     -22.461  -9.212   0.106  0.00  0.00     0.074 C 
ENDROOT
BRANCH   1   2
HETATM    2  C           1     -22.056  -8.308  -1.017  0.00  0.00    -0.056 A 
HETATM    3  C           1     -21.363  -8.823  -2.111  0.00  0.00     0.010 A 
HETATM    4  C           1     -20.986  -7.981  -3.158  0.00  0.00     0.038 A 
HETATM    5  C           1     -21.304  -6.624  -3.109  0.00  0.00     0.081 A 
HETATM    6  C           1     -21.999  -6.108  -2.015  0.00  0.00     0.038 A 
HETATM    7  C           1     -22.375  -6.951  -0.968  0.00  0.00     0.010 A 
BRANCH   5   8
HETATM    8  O           1     -20.938  -5.806  -4.126  0.00  0.00    -0.247 OA
BRANCH   8   9
HETATM    9  P           1     -21.695  -5.974  -5.543  0.00  0.00     0.411 P 
HETATM   10  O           1     -23.147  -6.143  -5.311  0.00  0.00    -0.624 OA
HETATM   11  O           1     -21.166  -7.164  -6.246  0.00  0.00    -0.624 OA
BRANCH   9  12
HETATM   12  O           1     -21.445  -4.658  -6.446  0.00  0.00    -0.300 OA
HETATM   13  H           1     -22.299  -4.409  -6.757  0.00  0.00     0.223 HD
ENDBRANCH   9  12
ENDBRANCH   8   9
ENDBRANCH   5   8
ENDBRANCH   1   2
BRANCH   1  14
HETATM   14  C           1     -21.713 -10.533  -0.010  0.00  0.00     0.189 C 
BRANCH  14  15
HETATM   15  C           1     -20.512 -10.516   0.903  0.00  0.00     0.197 C 
HETATM   16  O           1     -20.468  -9.714   1.861  0.00  0.00    -0.646 OA
HETATM   17  O           1     -19.562 -11.302   0.701  0.00  0.00    -0.646 OA
ENDBRANCH  14  15
BRANCH  14  18
HETATM   18  N           1     -22.594 -11.620   0.372  0.00  0.00    -0.345 N 
HETATM   19  C           1     -22.550 -12.809  -0.307  0.00  0.00     0.243 C 
HETATM   20  O           1     -21.805 -13.686   0.058  0.00  0.00    -0.272 OA
HETATM   21  H           1     -23.241 -11.501   1.141  0.00  0.00     0.163 HD
BRANCH  19  22
HETATM   22  C           1     -23.432 -13.021  -1.513  0.00  0.00     0.332 C 
BRANCH  22  23
HETATM   23  N           1     -22.750 -12.478  -2.733  0.00  0.00    -0.071 N 
HETATM   24  H           1     -22.573 -13.257  -3.408  0.00  0.00     0.274 HD
HETATM   25  H           1     -23.359 -11.758  -3.182  0.00  0.00     0.274 HD
HETATM   26  H           1     -21.839 -12.043  -2.459  0.00  0.00     0.274 HD
ENDBRANCH  22  23
ENDBRANCH  19  22
ENDBRANCH  14  18
ENDBRANCH   1  14
TORSDOF 9
ENDMDL
MODEL 8
REMARK VINA RESULT:      -6.0      3.693      5.682
REMARK  9 active torsions:
REMARK  status: ('A' for Active; 'I' for Inactive)
REMARK    1  A    between atoms: P_2  and  O_3 
REMARK    2  A    between atoms: P_2  and  O_7 
REMARK    3  A    between atoms: O_3  and  C_4 
REMARK    4  A    between atoms: C_6  and  C_10 
REMARK    5  A    between atoms: C_10  and  C_11 
REMARK    6  A    between atoms: C_11  and  C_13 
REMARK    7  A    between atoms: C_11  and  N_20 
REMARK    8  A    between atoms: N_15  and  C_26 
REMARK       I    between atoms: C_17  and  N_20 
REMARK    9  A    between atoms: C_17  and  C_26 
ROOT
HETATM    1  C           1     -20.998  -7.869  -1.055  0.00  0.00     0.074 C 
ENDROOT
BRANCH   1   2
HETATM    2  C           1     -21.017  -7.607  -2.529  0.00  0.00    -0.056 A 
HETATM    3  C           1     -21.941  -6.712  -3.066  0.00  0.00     0.010 A 
HETATM    4  C           1     -21.959  -6.467  -4.440  0.00  0.00     0.038 A 
HETATM    5  C           1     -21.052  -7.119  -5.275  0.00  0.00     0.081 A 
HETATM    6  C           1     -20.126  -8.014  -4.738  0.00  0.00     0.038 A 
HETATM    7  C           1     -20.109  -8.258  -3.364  0.00  0.00     0.010 A 
BRANCH   5   8
HETATM    8  O           1     -21.069  -6.882  -6.609  0.00  0.00    -0.247 OA
BRANCH   8   9
HETATM    9  P           1     -20.712  -5.391  -7.118  0.00  0.00     0.411 P 
HETATM   10  O           1     -21.957  -4.602  -7.251  0.00  0.00    -0.624 OA
HETATM   11  O           1     -20.035  -5.468  -8.432  0.00  0.00    -0.624 OA
BRANCH   9  12
HETATM   12  O           1     -19.735  -4.677  -6.049  0.00  0.00    -0.300 OA
HETATM   13  H           1     -20.274  -4.522  -5.291  0.00  0.00     0.223 HD
ENDBRANCH   9  12
ENDBRANCH   8   9
ENDBRANCH   5   8
ENDBRANCH   1   2
BRANCH   1  14
HETATM   14  C           1     -21.182  -9.359  -0.801  0.00  0.00     0.189 C 
BRANCH  14  15
HETATM   15  C           1     -21.005  -9.646   0.669  0.00  0.00     0.197 C 
HETATM   16  O           1     -21.063  -8.713   1.499  0.00  0.00    -0.646 OA
HETATM   17  O           1     -20.799 -10.816   1.057  0.00  0.00    -0.646 OA
ENDBRANCH  14  15
BRANCH  14  18
HETATM   18  N           1     -22.514  -9.757  -1.213  0.00  0.00    -0.345 N 
HETATM   19  C           1     -22.696 -10.916  -1.919  0.00  0.00     0.243 C 
HETATM   20  O           1     -22.895 -11.954  -1.334  0.00  0.00    -0.272 OA
HETATM   21  H           1     -23.310  -9.177  -0.978  0.00  0.00     0.163 HD
BRANCH  19  22
HETATM   22  C           1     -22.646 -10.896  -3.427  0.00  0.00     0.332 C 
BRANCH  22  23
HETATM   23  N           1     -21.439 -11.651  -3.897  0.00  0.00    -0.071 N 
HETATM   24  H           1     -20.580 -11.233  -3.473  0.00  0.00     0.274 HD
HETATM   25  H           1     -21.520 -12.652  -3.608  0.00  0.00     0.274 HD
HETATM   26  H           1     -21.375 -11.593  -4.939  0.00  0.00     0.274 HD
ENDBRANCH  22  23
ENDBRANCH  19  22
ENDBRANCH  14  18
ENDBRANCH   1  14
TORSDOF 9
ENDMDL
MODEL 9
REMARK VINA RESULT:      -5.9      3.982      5.860
REMARK  9 active torsions:
REMARK  status: ('A' for Active; 'I' for Inactive)
REMARK    1  A    between atoms: P_2  and  O_3 
REMARK    2  A    between atoms: P_2  and  O_7 
REMARK    3  A    between atoms: O_3  and  C_4 
REMARK    4  A    between atoms: C_6  and  C_10 
REMARK    5  A    between atoms: C_10  and  C_11 
REMARK    6  A    between atoms: C_11  and  C_13 
REMARK    7  A    between atoms: C_11  and  N_20 
REMARK    8  A    between atoms: N_15  and  C_26 
REMARK       I    between atoms: C_17  and  N_20 
REMARK    9  A    between atoms: C_17  and  C_26 
ROOT
HETATM    1  C           1     -21.299 -10.706  -2.180  0.00  0.00     0.074 C 
ENDROOT
BRANCH   1   2
HETATM    2  C           1     -20.896  -9.772  -3.279  0.00  0.00    -0.056 A 
HETATM    3  C           1     -21.855  -9.282  -4.164  0.00  0.00     0.010 A 
HETATM    4  C           1     -21.479  -8.411  -5.188  0.00  0.00     0.038 A 
HETATM    5  C           1     -20.144  -8.032  -5.324  0.00  0.00     0.081 A 
HETATM    6  C           1     -19.185  -8.521  -4.438  0.00  0.00     0.038 A 
HETATM    7  C           1     -19.561  -9.392  -3.415  0.00  0.00     0.010 A 
BRANCH   5   8
HETATM    8  O           1     -19.779  -7.186  -6.318  0.00  0.00    -0.247 OA
BRANCH   8   9
HETATM    9  P           1     -20.328  -5.668  -6.262  0.00  0.00     0.411 P 
HETATM   10  O           1     -19.267  -4.741  -6.715  0.00  0.00    -0.624 OA
HETATM   11  O           1     -20.714  -5.335  -4.873  0.00  0.00    -0.624 OA
BRANCH   9  12
HETATM   12  O           1     -21.615  -5.526  -7.229  0.00  0.00    -0.300 OA
HETATM   13  H           1     -21.353  -5.922  -8.043  0.00  0.00     0.223 HD
ENDBRANCH   9  12
ENDBRANCH   8   9
ENDBRANCH   5   8
ENDBRANCH   1   2
BRANCH   1  14
HETATM   14  C           1     -22.458 -10.100  -1.398  0.00  0.00     0.189 C 
BRANCH  14  15
HETATM   15  C           1     -23.166 -11.184  -0.625  0.00  0.00     0.197 C 
HETATM   16  O           1     -24.277 -11.605  -1.014  0.00  0.00    -0.646 OA
HETATM   17  O           1     -22.642 -11.662   0.405  0.00  0.00    -0.646 OA
ENDBRANCH  14  15
BRANCH  14  18
HETATM   18  N           1     -21.948  -9.105  -0.476  0.00  0.00    -0.345 N 
HETATM   19  C           1     -22.329  -7.795  -0.600  0.00  0.00     0.243 C 
HETATM   20  O           1     -23.308  -7.393  -0.019  0.00  0.00    -0.272 OA
HETATM   21  H           1     -21.310  -9.377   0.261  0.00  0.00     0.163 HD
BRANCH  19  22
HETATM   22  C           1     -21.526  -6.856  -1.466  0.00  0.00     0.332 C 
BRANCH  22  23
HETATM   23  N           1     -22.457  -5.976  -2.247  0.00  0.00    -0.071 N 
HETATM   24  H           1     -22.478  -6.290  -3.244  0.00  0.00     0.274 HD
HETATM   25  H           1     -23.417  -6.039  -1.840  0.00  0.00     0.274 HD
HETATM   26  H           1     -22.123  -4.987  -2.201  0.00  0.00     0.274 HD
ENDBRANCH  22  23
ENDBRANCH  19  22
ENDBRANCH  14  18
ENDBRANCH   1  14
TORSDOF 9
ENDMDL
