MODEL 1
REMARK VINA RESULT:      -5.6      0.000      0.000
REMARK  5 active torsions:
REMARK  status: ('A' for Active; 'I' for Inactive)
REMARK    1  A    between atoms: C_9  and  C_17 
REMARK    2  A    between atoms: C_10  and  C_14 
REMARK    3  A    between atoms: C_10  and  C_13 
REMARK    4  A    between atoms: C_10  and  N_16 
REMARK    5  A    between atoms: S_11  and  C_14 
REMARK       I    between atoms: N_16  and  C_17 
ROOT
HETATM    1  O           1     -22.214  -3.499  -7.393  0.00  0.00    -0.271 OA
HETATM    2  H           1     -22.130  -5.623  -9.700  0.00  0.00     0.163 HD
HETATM    3  N           1     -22.307  -4.733  -9.253  0.00  0.00    -0.344 N 
HETATM    4  C           1     -22.003  -4.561  -7.928  0.00  0.00     0.251 C 
ENDROOT
BRANCH   3   5
HETATM    5  C           1     -22.879  -3.639 -10.012  0.00  0.00     0.194 C 
BRANCH   5   6
HETATM    6  C           1     -22.130  -3.487 -11.329  0.00  0.00     0.106 C 
BRANCH   6   7
HETATM    7  S           1     -20.409  -4.023 -11.112  0.00  0.00    -0.180 SA
HETATM    8  H           1     -20.585  -4.571  -9.895  0.00  0.00     0.101 HD
ENDBRANCH   6   7
ENDBRANCH   5   6
BRANCH   5   9
HETATM    9  C           1     -24.333  -3.931 -10.293  0.00  0.00     0.197 C 
HETATM   10  O           1     -25.010  -3.131 -10.973  0.00  0.00    -0.646 OA
HETATM   11  O           1     -24.860  -4.973  -9.845  0.00  0.00    -0.646 OA
ENDBRANCH   5   9
ENDBRANCH   3   5
BRANCH   4  12
HETATM   12  C           1     -21.408  -5.700  -7.137  0.00  0.00     0.311 C 
HETATM   13  C           1     -21.233  -5.313  -5.678  0.00  0.00     0.047 C 
HETATM   14  C           1     -19.795  -4.818  -5.569  0.00  0.00     0.033 C 
HETATM   15  C           1     -19.220  -4.957  -6.969  0.00  0.00     0.271 C 
HETATM   16  N           1     -20.049  -5.989  -7.586  0.00  0.00     0.097 N 
HETATM   17  H           1     -19.747  -6.907  -7.259  0.00  0.00     0.317 HD
ENDBRANCH   4  12
TORSDOF 5
ENDMDL
MODEL 2
REMARK VINA RESULT:      -4.9     17.986     19.593
REMARK  5 active torsions:
REMARK  status: ('A' for Active; 'I' for Inactive)
REMARK    1  A    between atoms: C_9  and  C_17 
REMARK    2  A    between atoms: C_10  and  C_14 
REMARK    3  A    between atoms: C_10  and  C_13 
REMARK    4  A    between atoms: C_10  and  N_16 
REMARK    5  A    between atoms: S_11  and  C_14 
REMARK       I    between atoms: N_16  and  C_17 
ROOT
HETATM    1  O           1     -11.821   5.420 -19.172  0.00  0.00    -0.271 OA
HETATM    2  H           1     -12.097   7.664 -21.347  0.00  0.00     0.163 HD
HETATM    3  N           1     -11.699   7.163 -20.562  0.00  0.00    -0.344 N 
HETATM    4  C           1     -12.295   6.017 -20.108  0.00  0.00     0.251 C 
ENDROOT
BRANCH   3   5
HETATM    5  C           1     -10.498   7.659 -19.920  0.00  0.00     0.194 C 
BRANCH   5   6
HETATM    6  C           1      -9.563   8.244 -20.970  0.00  0.00     0.106 C 
BRANCH   6   7
HETATM    7  S           1     -10.542   9.014 -22.290  0.00  0.00    -0.180 SA
HETATM    8  H           1     -10.741   7.885 -22.995  0.00  0.00     0.101 HD
ENDBRANCH   6   7
ENDBRANCH   5   6
BRANCH   5   9
HETATM    9  C           1     -10.868   8.731 -18.924  0.00  0.00     0.197 C 
HETATM   10  O           1     -10.006   9.176 -18.136  0.00  0.00    -0.646 OA
HETATM   11  O           1     -12.036   9.175 -18.888  0.00  0.00    -0.646 OA
ENDBRANCH   5   9
ENDBRANCH   3   5
BRANCH   4  12
HETATM   12  C           1     -13.546   5.502 -20.777  0.00  0.00     0.311 C 
HETATM   13  C           1     -13.783   4.042 -20.429  0.00  0.00     0.047 C 
HETATM   14  C           1     -13.152   3.254 -21.571  0.00  0.00     0.033 C 
HETATM   15  C           1     -12.594   4.305 -22.517  0.00  0.00     0.271 C 
HETATM   16  N           1     -13.392   5.493 -22.229  0.00  0.00     0.097 N 
HETATM   17  H           1     -14.300   5.412 -22.688  0.00  0.00     0.317 HD
ENDBRANCH   4  12
TORSDOF 5
ENDMDL
MODEL 3
REMARK VINA RESULT:      -4.9      3.957      6.185
REMARK  5 active torsions:
REMARK  status: ('A' for Active; 'I' for Inactive)
REMARK    1  A    between atoms: C_9  and  C_17 
REMARK    2  A    between atoms: C_10  and  C_14 
REMARK    3  A    between atoms: C_10  and  C_13 
REMARK    4  A    between atoms: C_10  and  N_16 
REMARK    5  A    between atoms: S_11  and  C_14 
REMARK       I    between atoms: N_16  and  C_17 
ROOT
HETATM    1  O           1     -22.592  -5.573  -5.794  0.00  0.00    -0.271 OA
HETATM    2  H           1     -19.699  -6.026  -4.669  0.00  0.00     0.163 HD
HETATM    3  N           1     -20.690  -6.186  -4.796  0.00  0.00    -0.344 N 
HETATM    4  C           1     -21.409  -5.384  -5.642  0.00  0.00     0.251 C 
ENDROOT
BRANCH   3   5
HETATM    5  C           1     -21.349  -7.262  -4.084  0.00  0.00     0.194 C 
BRANCH   5   6
HETATM    6  C           1     -20.473  -8.507  -4.120  0.00  0.00     0.106 C 
BRANCH   6   7
HETATM    7  S           1     -21.522  -9.981  -4.270  0.00  0.00    -0.180 SA
HETATM    8  H           1     -22.492  -9.390  -4.991  0.00  0.00     0.101 HD
ENDBRANCH   6   7
ENDBRANCH   5   6
BRANCH   5   9
HETATM    9  C           1     -21.575  -6.850  -2.649  0.00  0.00     0.197 C 
HETATM   10  O           1     -20.909  -7.379  -1.735  0.00  0.00    -0.646 OA
HETATM   11  O           1     -22.430  -5.978  -2.377  0.00  0.00    -0.646 OA
ENDBRANCH   5   9
ENDBRANCH   3   5
BRANCH   4  12
HETATM   12  C           1     -20.723  -4.263  -6.384  0.00  0.00     0.311 C 
HETATM   13  C           1     -21.631  -3.689  -7.459  0.00  0.00     0.047 C 
HETATM   14  C           1     -21.249  -4.429  -8.736  0.00  0.00     0.033 C 
HETATM   15  C           1     -20.137  -5.380  -8.326  0.00  0.00     0.271 C 
HETATM   16  N           1     -19.571  -4.762  -7.130  0.00  0.00     0.097 N 
HETATM   17  H           1     -18.957  -3.995  -7.402  0.00  0.00     0.317 HD
ENDBRANCH   4  12
TORSDOF 5
ENDMDL
MODEL 4
REMARK VINA RESULT:      -4.9     17.568     19.108
REMARK  5 active torsions:
REMARK  status: ('A' for Active; 'I' for Inactive)
REMARK    1  A    between atoms: C_9  and  C_17 
REMARK    2  A    between atoms: C_10  and  C_14 
REMARK    3  A    between atoms: C_10  and  C_13 
REMARK    4  A    between atoms: C_10  and  N_16 
REMARK    5  A    between atoms: S_11  and  C_14 
REMARK       I    between atoms: N_16  and  C_17 
ROOT
HETATM    1  O           1     -12.883   7.778 -21.146  0.00  0.00    -0.271 OA
HETATM    2  H           1     -11.622   5.204 -19.870  0.00  0.00     0.163 HD
HETATM    3  N           1     -12.239   5.754 -20.454  0.00  0.00    -0.344 N 
HETATM    4  C           1     -12.146   7.121 -20.449  0.00  0.00     0.251 C 
ENDROOT
BRANCH   3   5
HETATM    5  C           1     -13.220   5.097 -21.295  0.00  0.00     0.194 C 
BRANCH   5   6
HETATM    6  C           1     -12.744   3.689 -21.626  0.00  0.00     0.106 C 
BRANCH   6   7
HETATM    7  S           1     -11.267   3.302 -20.644  0.00  0.00    -0.180 SA
HETATM    8  H           1     -10.764   2.392 -21.499  0.00  0.00     0.101 HD
ENDBRANCH   6   7
ENDBRANCH   5   6
BRANCH   5   9
HETATM    9  C           1     -14.538   5.022 -20.564  0.00  0.00     0.197 C 
HETATM   10  O           1     -15.599   5.308 -21.159  0.00  0.00    -0.646 OA
HETATM   11  O           1     -14.568   4.674 -19.363  0.00  0.00    -0.646 OA
ENDBRANCH   5   9
ENDBRANCH   3   5
BRANCH   4  12
HETATM   12  C           1     -11.126   7.805 -19.574  0.00  0.00     0.311 C 
HETATM   13  C           1     -10.831   9.206 -20.080  0.00  0.00     0.047 C 
HETATM   14  C           1      -9.598   9.057 -20.965  0.00  0.00     0.033 C 
HETATM   15  C           1      -9.248   7.579 -20.912  0.00  0.00     0.271 C 
HETATM   16  N           1      -9.835   7.127 -19.653  0.00  0.00     0.097 N 
HETATM   17  H           1      -9.233   7.403 -18.878  0.00  0.00     0.317 HD
ENDBRANCH   4  12
TORSDOF 5
ENDMDL
MODEL 5
REMARK VINA RESULT:      -4.8     18.303     19.621
REMARK  5 active torsions:
REMARK  status: ('A' for Active; 'I' for Inactive)
REMARK    1  A    between atoms: C_9  and  C_17 
REMARK    2  A    between atoms: C_10  and  C_14 
REMARK    3  A    between atoms: C_10  and  C_13 
REMARK    4  A    between atoms: C_10  and  N_16 
REMARK    5  A    between atoms: S_11  and  C_14 
REMARK       I    between atoms: N_16  and  C_17 
ROOT
HETATM    1  O           1     -13.236   7.109 -21.730  0.00  0.00    -0.271 OA
HETATM    2  H           1     -11.758   6.573 -19.016  0.00  0.00     0.163 HD
HETATM    3  N           1     -12.089   7.099 -19.814  0.00  0.00    -0.344 N 
HETATM    4  C           1     -12.841   6.481 -20.777  0.00  0.00     0.251 C 
ENDROOT
BRANCH   3   5
HETATM    5  C           1     -11.767   8.507 -19.939  0.00  0.00     0.194 C 
BRANCH   5   6
HETATM    6  C           1     -12.729   9.326 -19.089  0.00  0.00     0.106 C 
BRANCH   6   7
HETATM    7  S           1     -13.302  10.763 -20.039  0.00  0.00    -0.180 SA
HETATM    8  H           1     -14.499  10.244 -20.370  0.00  0.00     0.101 HD
ENDBRANCH   6   7
ENDBRANCH   5   6
BRANCH   5   9
HETATM    9  C           1     -10.353   8.742 -19.466  0.00  0.00     0.197 C 
HETATM   10  O           1      -9.401   8.649 -20.270  0.00  0.00    -0.646 OA
HETATM   11  O           1     -10.135   9.031 -18.269  0.00  0.00    -0.646 OA
ENDBRANCH   5   9
ENDBRANCH   3   5
BRANCH   4  12
HETATM   12  C           1     -13.176   5.016 -20.647  0.00  0.00     0.311 C 
HETATM   13  C           1     -12.209   4.320 -19.705  0.00  0.00     0.047 C 
HETATM   14  C           1     -11.129   3.734 -20.606  0.00  0.00     0.033 C 
HETATM   15  C           1     -11.540   4.117 -22.018  0.00  0.00     0.271 C 
HETATM   16  N           1     -12.982   4.324 -21.918  0.00  0.00     0.097 N 
HETATM   17  H           1     -13.455   3.420 -21.914  0.00  0.00     0.317 HD
ENDBRANCH   4  12
TORSDOF 5
ENDMDL
MODEL 6
REMARK VINA RESULT:      -4.7      6.387      8.109
REMARK  5 active torsions:
REMARK  status: ('A' for Active; 'I' for Inactive)
REMARK    1  A    between atoms: C_9  and  C_17 
REMARK    2  A    between atoms: C_10  and  C_14 
REMARK    3  A    between atoms: C_10  and  C_13 
REMARK    4  A    between atoms: C_10  and  N_16 
REMARK    5  A    between atoms: S_11  and  C_14 
REMARK       I    between atoms: N_16  and  C_17 
ROOT
HETATM    1  O           1     -19.732  -9.183  -1.651  0.00  0.00    -0.271 OA
HETATM    2  H           1     -22.708  -8.502  -2.369  0.00  0.00     0.163 HD
HETATM    3  N           1     -21.701  -8.516  -2.466  0.00  0.00    -0.344 N 
HETATM    4  C           1     -20.934  -9.166  -1.536  0.00  0.00     0.251 C 
ENDROOT
BRANCH   3   5
HETATM    5  C           1     -21.071  -7.849  -3.587  0.00  0.00     0.194 C 
BRANCH   5   6
HETATM    6  C           1     -21.521  -8.504  -4.887  0.00  0.00     0.106 C 
BRANCH   6   7
HETATM    7  S           1     -20.617 -10.059  -5.127  0.00  0.00    -0.180 SA
HETATM    8  H           1     -21.583 -10.860  -4.641  0.00  0.00     0.101 HD
ENDBRANCH   6   7
ENDBRANCH   5   6
BRANCH   5   9
HETATM    9  C           1     -21.469  -6.393  -3.594  0.00  0.00     0.197 C 
HETATM   10  O           1     -21.019  -5.627  -4.473  0.00  0.00    -0.646 OA
HETATM   11  O           1     -22.249  -5.954  -2.721  0.00  0.00    -0.646 OA
ENDBRANCH   5   9
ENDBRANCH   3   5
BRANCH   4  12
HETATM   12  C           1     -21.590  -9.860  -0.368  0.00  0.00     0.311 C 
HETATM   13  C           1     -23.075  -9.544  -0.315  0.00  0.00     0.047 C 
HETATM   14  C           1     -23.196  -8.364   0.643  0.00  0.00     0.033 C 
HETATM   15  C           1     -21.775  -8.073   1.095  0.00  0.00     0.271 C 
HETATM   16  N           1     -21.079  -9.341   0.898  0.00  0.00     0.097 N 
HETATM   17  H           1     -21.303  -9.975   1.665  0.00  0.00     0.317 HD
ENDBRANCH   4  12
TORSDOF 5
ENDMDL
MODEL 7
REMARK VINA RESULT:      -4.5      5.985      7.604
REMARK  5 active torsions:
REMARK  status: ('A' for Active; 'I' for Inactive)
REMARK    1  A    between atoms: C_9  and  C_17 
REMARK    2  A    between atoms: C_10  and  C_14 
REMARK    3  A    between atoms: C_10  and  C_13 
REMARK    4  A    between atoms: C_10  and  N_16 
REMARK    5  A    between atoms: S_11  and  C_14 
REMARK       I    between atoms: N_16  and  C_17 
ROOT
HETATM    1  O           1     -20.066  -7.786  -1.444  0.00  0.00    -0.271 OA
HETATM    2  H           1     -22.782  -7.921  -3.008  0.00  0.00     0.163 HD
HETATM    3  N           1     -21.790  -7.783  -2.864  0.00  0.00    -0.344 N 
HETATM    4  C           1     -21.250  -7.952  -1.617  0.00  0.00     0.251 C 
ENDROOT
BRANCH   3   5
HETATM    5  C           1     -20.941  -7.406  -3.976  0.00  0.00     0.194 C 
BRANCH   5   6
HETATM    6  C           1     -20.815  -8.578  -4.940  0.00  0.00     0.106 C 
BRANCH   6   7
HETATM    7  S           1     -19.116  -9.214  -4.900  0.00  0.00    -0.180 SA
HETATM    8  H           1     -18.867  -9.034  -6.210  0.00  0.00     0.101 HD
ENDBRANCH   6   7
ENDBRANCH   5   6
BRANCH   5   9
HETATM    9  C           1     -21.551  -6.228  -4.696  0.00  0.00     0.197 C 
HETATM   10  O           1     -22.787  -6.178  -4.878  0.00  0.00    -0.646 OA
HETATM   11  O           1     -20.820  -5.302  -5.111  0.00  0.00    -0.646 OA
ENDBRANCH   5   9
ENDBRANCH   3   5
BRANCH   4  12
HETATM   12  C           1     -22.134  -8.344  -0.458  0.00  0.00     0.311 C 
HETATM   13  C           1     -21.310  -8.577   0.797  0.00  0.00     0.047 C 
HETATM   14  C           1     -21.042 -10.078   0.822  0.00  0.00     0.033 C 
HETATM   15  C           1     -21.734 -10.625  -0.416  0.00  0.00     0.271 C 
HETATM   16  N           1     -22.769  -9.636  -0.703  0.00  0.00     0.097 N 
HETATM   17  H           1     -23.558  -9.776  -0.073  0.00  0.00     0.317 HD
ENDBRANCH   4  12
TORSDOF 5
ENDMDL
MODEL 8
REMARK VINA RESULT:      -4.4      6.660      8.338
REMARK  5 active torsions:
REMARK  status: ('A' for Active; 'I' for Inactive)
REMARK    1  A    between atoms: C_9  and  C_17 
REMARK    2  A    between atoms: C_10  and  C_14 
REMARK    3  A    between atoms: C_10  and  C_13 
REMARK    4  A    between atoms: C_10  and  N_16 
REMARK    5  A    between atoms: S_11  and  C_14 
REMARK       I    between atoms: N_16  and  C_17 
ROOT
HETATM    1  O           1     -22.497 -10.472  -3.524  0.00  0.00    -0.271 OA
HETATM    2  H           1     -20.724  -8.358  -2.030  0.00  0.00     0.163 HD
HETATM    3  N           1     -21.256  -8.767  -2.788  0.00  0.00    -0.344 N 
HETATM    4  C           1     -21.862  -9.984  -2.619  0.00  0.00     0.251 C 
ENDROOT
BRANCH   3   5
HETATM    5  C           1     -21.378  -8.066  -4.050  0.00  0.00     0.194 C 
BRANCH   5   6
HETATM    6  C           1     -21.712  -6.603  -3.789  0.00  0.00     0.106 C 
BRANCH   6   7
HETATM    7  S           1     -22.040  -6.363  -2.020  0.00  0.00    -0.180 SA
HETATM    8  H           1     -21.284  -5.258  -1.885  0.00  0.00     0.101 HD
ENDBRANCH   6   7
ENDBRANCH   5   6
BRANCH   5   9
HETATM    9  C           1     -20.072  -8.156  -4.802  0.00  0.00     0.197 C 
HETATM   10  O           1     -19.973  -7.659  -5.944  0.00  0.00    -0.646 OA
HETATM   11  O           1     -19.089  -8.727  -4.281  0.00  0.00    -0.646 OA
ENDBRANCH   5   9
ENDBRANCH   3   5
BRANCH   4  12
HETATM   12  C           1     -21.735 -10.714  -1.305  0.00  0.00     0.311 C 
HETATM   13  C           1     -22.910 -11.654  -1.093  0.00  0.00     0.047 C 
HETATM   14  C           1     -23.911 -10.857  -0.264  0.00  0.00     0.033 C 
HETATM   15  C           1     -23.252  -9.506  -0.038  0.00  0.00     0.271 C 
HETATM   16  N           1     -21.826  -9.784  -0.183  0.00  0.00     0.097 N 
HETATM   17  H           1     -21.475 -10.215   0.672  0.00  0.00     0.317 HD
ENDBRANCH   4  12
TORSDOF 5
ENDMDL
MODEL 9
REMARK VINA RESULT:      -4.4      6.721      8.325
REMARK  5 active torsions:
REMARK  status: ('A' for Active; 'I' for Inactive)
REMARK    1  A    between atoms: C_9  and  C_17 
REMARK    2  A    between atoms: C_10  and  C_14 
REMARK    3  A    between atoms: C_10  and  C_13 
REMARK    4  A    between atoms: C_10  and  N_16 
REMARK    5  A    between atoms: S_11  and  C_14 
REMARK       I    between atoms: N_16  and  C_17 
ROOT
HETATM    1  O           1     -20.769  -7.435  -1.730  0.00  0.00    -0.271 OA
HETATM    2  H           1     -21.661 -10.237  -2.823  0.00  0.00     0.163 HD
HETATM    3  N           1     -21.165  -9.356  -2.799  0.00  0.00    -0.344 N 
HETATM    4  C           1     -21.362  -8.487  -1.759  0.00  0.00     0.251 C 
ENDROOT
BRANCH   3   5
HETATM    5  C           1     -20.244  -9.013  -3.865  0.00  0.00     0.194 C 
BRANCH   5   6
HETATM    6  C           1     -19.168 -10.086  -3.973  0.00  0.00     0.106 C 
BRANCH   6   7
HETATM    7  S           1     -17.717  -9.587  -3.003  0.00  0.00    -0.180 SA
HETATM    8  H           1     -18.309  -8.546  -2.389  0.00  0.00     0.101 HD
ENDBRANCH   6   7
ENDBRANCH   5   6
BRANCH   5   9
HETATM    9  C           1     -20.997  -8.925  -5.170  0.00  0.00     0.197 C 
HETATM   10  O           1     -21.002  -9.897  -5.955  0.00  0.00    -0.646 OA
HETATM   11  O           1     -21.616  -7.879  -5.465  0.00  0.00    -0.646 OA
ENDBRANCH   5   9
ENDBRANCH   3   5
BRANCH   4  12
HETATM   12  C           1     -22.321  -8.844  -0.650  0.00  0.00     0.311 C 
HETATM   13  C           1     -22.107  -7.949   0.559  0.00  0.00     0.047 C 
HETATM   14  C           1     -21.163  -8.729   1.467  0.00  0.00     0.033 C 
HETATM   15  C           1     -20.893 -10.033   0.734  0.00  0.00     0.271 C 
HETATM   16  N           1     -22.051 -10.186  -0.142  0.00  0.00     0.097 N 
HETATM   17  H           1     -22.843 -10.534   0.399  0.00  0.00     0.317 HD
ENDBRANCH   4  12
TORSDOF 5
ENDMDL
