MODEL 1
REMARK VINA RESULT:      -8.6      0.000      0.000
REMARK  11 active torsions:
REMARK  status: ('A' for Active; 'I' for Inactive)
REMARK    1  A    between atoms: C_1  and  C_32 
REMARK    2  A    between atoms: C_1  and  C_2 
REMARK    3  A    between atoms: C_4  and  O_7 
REMARK    4  A    between atoms: C_5  and  C_19 
REMARK    5  A    between atoms: C_5  and  C_10 
REMARK    6  A    between atoms: N_6  and  C_32 
REMARK    7  A    between atoms: N_8  and  C_28 
REMARK       I    between atoms: N_8  and  C_17 
REMARK    8  A    between atoms: C_10  and  C_28 
REMARK    9  A    between atoms: C_16  and  C_28 
REMARK   10  A    between atoms: C_17  and  C_32 
REMARK   11  A    between atoms: C_19  and  N_20 
REMARK       I    between atoms: N_20  and  C_27 
REMARK       I    between atoms: N_26  and  C_27 
ROOT
HETATM    1  N           1     -33.334  -3.892 -14.278  0.00  0.00    -0.345 N 
HETATM    2  H           1     -32.416  -3.468 -14.323  0.00  0.00     0.163 HD
HETATM    3  C           1     -33.885  -4.451 -15.400  0.00  0.00     0.249 C 
HETATM    4  O           1     -34.981  -4.956 -15.347  0.00  0.00    -0.271 OA
ENDROOT
BRANCH   1   5
HETATM    5  C           1     -34.065  -3.908 -13.027  0.00  0.00     0.185 C 
BRANCH   5   6
HETATM    6  C           1     -33.085  -4.016 -11.867  0.00  0.00     0.038 C 
BRANCH   6   7
HETATM    7  C           1     -33.797  -4.595 -10.652  0.00  0.00     0.023 C 
BRANCH   7   8
HETATM    8  C           1     -34.644  -5.786 -11.078  0.00  0.00     0.138 C 
BRANCH   8   9
HETATM    9  N           1     -33.844  -7.016 -10.985  0.00  0.00    -0.227 N 
HETATM   10  H           1     -32.983  -7.129 -11.574  0.00  0.00     0.177 HD
HETATM   11  C           1     -34.193  -7.939 -10.192  0.00  0.00     0.665 C 
HETATM   12  N           1     -35.231  -7.804  -9.479  0.00  0.00    -0.235 N 
HETATM   13  N           1     -33.485  -9.026 -10.108  0.00  0.00    -0.235 N 
HETATM   14  H           1     -35.802  -6.925  -9.546  0.00  0.00     0.174 HD
HETATM   15  H           1     -35.520  -8.570  -8.822  0.00  0.00     0.174 HD
HETATM   16  H           1     -32.628  -9.139 -10.696  0.00  0.00     0.174 HD
HETATM   17  H           1     -33.773  -9.789  -9.453  0.00  0.00     0.174 HD
ENDBRANCH   8   9
ENDBRANCH   7   8
ENDBRANCH   6   7
ENDBRANCH   5   6
BRANCH   5  18
HETATM   18  C           1     -34.861  -2.632 -12.894  0.00  0.00     0.196 C 
HETATM   19  O           1     -34.635  -1.672 -13.662  0.00  0.00    -0.646 OA
HETATM   20  O           1     -35.746  -2.536 -12.017  0.00  0.00    -0.646 OA
ENDBRANCH   5  18
ENDBRANCH   1   5
BRANCH   3  21
HETATM   21  C           1     -33.123  -4.435 -16.703  0.00  0.00     0.278 C 
BRANCH  21  22
HETATM   22  C           1     -31.628  -4.475 -16.418  0.00  0.00     0.081 C 
BRANCH  22  23
HETATM   23  C           1     -31.004  -5.604 -17.176  0.00  0.00    -0.056 A 
HETATM   24  C           1     -31.780  -6.698 -17.561  0.00  0.00     0.010 A 
HETATM   25  C           1     -31.199  -7.751 -18.267  0.00  0.00     0.037 A 
HETATM   26  C           1     -29.842  -7.711 -18.588  0.00  0.00     0.065 A 
HETATM   27  C           1     -29.066  -6.618 -18.203  0.00  0.00     0.037 A 
HETATM   28  C           1     -29.647  -5.565 -17.497  0.00  0.00     0.010 A 
BRANCH  26  29
HETATM   29  O           1     -29.278  -8.734 -19.274  0.00  0.00    -0.361 OA
HETATM   30  H           1     -28.329  -8.753 -19.060  0.00  0.00     0.217 HD
ENDBRANCH  26  29
ENDBRANCH  22  23
ENDBRANCH  21  22
BRANCH  21  31
HETATM   31  N           1     -33.454  -3.182 -17.459  0.00  0.00    -0.066 N 
HETATM   32  H           1     -34.483  -3.145 -17.639  0.00  0.00     0.275 HD
HETATM   33  H           1     -33.170  -2.350 -16.893  0.00  0.00     0.275 HD
HETATM   34  H           1     -32.940  -3.178 -18.368  0.00  0.00     0.275 HD
ENDBRANCH  21  31
ENDBRANCH   3  21
TORSDOF 11
ENDMDL
MODEL 2
REMARK VINA RESULT:      -7.7     13.733     14.958
REMARK  11 active torsions:
REMARK  status: ('A' for Active; 'I' for Inactive)
REMARK    1  A    between atoms: C_1  and  C_32 
REMARK    2  A    between atoms: C_1  and  C_2 
REMARK    3  A    between atoms: C_4  and  O_7 
REMARK    4  A    between atoms: C_5  and  C_19 
REMARK    5  A    between atoms: C_5  and  C_10 
REMARK    6  A    between atoms: N_6  and  C_32 
REMARK    7  A    between atoms: N_8  and  C_28 
REMARK       I    between atoms: N_8  and  C_17 
REMARK    8  A    between atoms: C_10  and  C_28 
REMARK    9  A    between atoms: C_16  and  C_28 
REMARK   10  A    between atoms: C_17  and  C_32 
REMARK   11  A    between atoms: C_19  and  N_20 
REMARK       I    between atoms: N_20  and  C_27 
REMARK       I    between atoms: N_26  and  C_27 
ROOT
HETATM    1  N           1     -21.529  -6.983  -4.973  0.00  0.00    -0.345 N 
HETATM    2  H           1     -22.435  -6.727  -4.600  0.00  0.00     0.163 HD
HETATM    3  C           1     -21.111  -6.465  -6.170  0.00  0.00     0.249 C 
HETATM    4  O           1     -20.031  -6.770  -6.616  0.00  0.00    -0.271 OA
ENDROOT
BRANCH   1   5
HETATM    5  C           1     -20.674  -7.896  -4.241  0.00  0.00     0.185 C 
BRANCH   5   6
HETATM    6  C           1     -20.534  -7.418  -2.802  0.00  0.00     0.038 C 
BRANCH   6   7
HETATM    7  C           1     -21.588  -6.359  -2.513  0.00  0.00     0.023 C 
BRANCH   7   8
HETATM    8  C           1     -22.331  -6.717  -1.233  0.00  0.00     0.138 C 
BRANCH   8   9
HETATM    9  N           1     -21.876  -8.029  -0.751  0.00  0.00    -0.227 N 
HETATM   10  H           1     -20.996  -8.453  -1.135  0.00  0.00     0.177 HD
HETATM   11  C           1     -22.545  -8.647   0.127  0.00  0.00     0.665 C 
HETATM   12  N           1     -23.607  -8.137   0.592  0.00  0.00    -0.235 N 
HETATM   13  N           1     -22.143  -9.808   0.554  0.00  0.00    -0.235 N 
HETATM   14  H           1     -23.932  -7.199   0.247  0.00  0.00     0.174 HD
HETATM   15  H           1     -24.161  -8.650   1.320  0.00  0.00     0.174 HD
HETATM   16  H           1     -21.266 -10.230   0.171  0.00  0.00     0.174 HD
HETATM   17  H           1     -22.695 -10.319   1.279  0.00  0.00     0.174 HD
ENDBRANCH   8   9
ENDBRANCH   7   8
ENDBRANCH   6   7
ENDBRANCH   5   6
BRANCH   5  18
HETATM   18  C           1     -21.286  -9.276  -4.255  0.00  0.00     0.196 C 
HETATM   19  O           1     -21.783  -9.749  -3.211  0.00  0.00    -0.646 OA
HETATM   20  O           1     -21.294  -9.946  -5.310  0.00  0.00    -0.646 OA
ENDBRANCH   5  18
ENDBRANCH   1   5
BRANCH   3  21
HETATM   21  C           1     -22.001  -5.514  -6.932  0.00  0.00     0.278 C 
BRANCH  21  22
HETATM   22  C           1     -21.190  -4.303  -7.374  0.00  0.00     0.081 C 
BRANCH  22  23
HETATM   23  C           1     -21.317  -4.129  -8.856  0.00  0.00    -0.056 A 
HETATM   24  C           1     -22.536  -3.738  -9.410  0.00  0.00     0.010 A 
HETATM   25  C           1     -22.655  -3.577 -10.790  0.00  0.00     0.037 A 
HETATM   26  C           1     -21.554  -3.808 -11.616  0.00  0.00     0.065 A 
HETATM   27  C           1     -20.336  -4.199 -11.062  0.00  0.00     0.037 A 
HETATM   28  C           1     -20.217  -4.360  -9.682  0.00  0.00     0.010 A 
BRANCH  26  29
HETATM   29  O           1     -21.670  -3.651 -12.957  0.00  0.00    -0.361 OA
HETATM   30  H           1     -22.123  -2.807 -13.123  0.00  0.00     0.217 HD
ENDBRANCH  26  29
ENDBRANCH  22  23
ENDBRANCH  21  22
BRANCH  21  31
HETATM   31  N           1     -23.126  -5.065  -6.047  0.00  0.00    -0.066 N 
HETATM   32  H           1     -24.001  -4.976  -6.613  0.00  0.00     0.275 HD
HETATM   33  H           1     -23.273  -5.768  -5.288  0.00  0.00     0.275 HD
HETATM   34  H           1     -22.889  -4.139  -5.624  0.00  0.00     0.275 HD
ENDBRANCH  21  31
ENDBRANCH   3  21
TORSDOF 11
ENDMDL
MODEL 3
REMARK VINA RESULT:      -7.6     14.035     15.282
REMARK  11 active torsions:
REMARK  status: ('A' for Active; 'I' for Inactive)
REMARK    1  A    between atoms: C_1  and  C_32 
REMARK    2  A    between atoms: C_1  and  C_2 
REMARK    3  A    between atoms: C_4  and  O_7 
REMARK    4  A    between atoms: C_5  and  C_19 
REMARK    5  A    between atoms: C_5  and  C_10 
REMARK    6  A    between atoms: N_6  and  C_32 
REMARK    7  A    between atoms: N_8  and  C_28 
REMARK       I    between atoms: N_8  and  C_17 
REMARK    8  A    between atoms: C_10  and  C_28 
REMARK    9  A    between atoms: C_16  and  C_28 
REMARK   10  A    between atoms: C_17  and  C_32 
REMARK   11  A    between atoms: C_19  and  N_20 
REMARK       I    between atoms: N_20  and  C_27 
REMARK       I    between atoms: N_26  and  C_27 
ROOT
HETATM    1  N           1     -21.486  -6.951  -5.103  0.00  0.00    -0.345 N 
HETATM    2  H           1     -22.173  -7.561  -5.529  0.00  0.00     0.163 HD
HETATM    3  C           1     -21.308  -5.681  -5.583  0.00  0.00     0.249 C 
HETATM    4  O           1     -20.488  -4.953  -5.076  0.00  0.00    -0.271 OA
ENDROOT
BRANCH   1   5
HETATM    5  C           1     -20.691  -7.422  -3.987  0.00  0.00     0.185 C 
BRANCH   5   6
HETATM    6  C           1     -21.611  -7.914  -2.878  0.00  0.00     0.038 C 
BRANCH   6   7
HETATM    7  C           1     -21.877  -6.781  -1.898  0.00  0.00     0.023 C 
BRANCH   7   8
HETATM    8  C           1     -22.378  -7.355  -0.579  0.00  0.00     0.138 C 
BRANCH   8   9
HETATM    9  N           1     -22.074  -8.792  -0.524  0.00  0.00    -0.227 N 
HETATM   10  H           1     -22.354  -9.420  -1.317  0.00  0.00     0.177 HD
HETATM   11  C           1     -21.474  -9.274   0.482  0.00  0.00     0.665 C 
HETATM   12  N           1     -21.135  -8.518   1.439  0.00  0.00    -0.235 N 
HETATM   13  N           1     -21.205 -10.544   0.531  0.00  0.00    -0.235 N 
HETATM   14  H           1     -21.352  -7.491   1.399  0.00  0.00     0.174 HD
HETATM   15  H           1     -20.637  -8.918   2.273  0.00  0.00     0.174 HD
HETATM   16  H           1     -21.484 -11.169  -0.259  0.00  0.00     0.174 HD
HETATM   17  H           1     -20.709 -10.942   1.361  0.00  0.00     0.174 HD
ENDBRANCH   8   9
ENDBRANCH   7   8
ENDBRANCH   6   7
ENDBRANCH   5   6
BRANCH   5  18
HETATM   18  C           1     -19.805  -8.556  -4.445  0.00  0.00     0.196 C 
HETATM   19  O           1     -19.332  -9.355  -3.608  0.00  0.00    -0.646 OA
HETATM   20  O           1     -19.545  -8.696  -5.659  0.00  0.00    -0.646 OA
ENDBRANCH   5  18
ENDBRANCH   1   5
BRANCH   3  21
HETATM   21  C           1     -22.137  -5.191  -6.745  0.00  0.00     0.278 C 
BRANCH  21  22
HETATM   22  C           1     -21.556  -3.883  -7.267  0.00  0.00     0.081 C 
BRANCH  22  23
HETATM   23  C           1     -21.593  -3.881  -8.764  0.00  0.00    -0.056 A 
HETATM   24  C           1     -22.792  -3.625  -9.431  0.00  0.00     0.010 A 
HETATM   25  C           1     -22.827  -3.623 -10.825  0.00  0.00     0.037 A 
HETATM   26  C           1     -21.664  -3.879 -11.552  0.00  0.00     0.065 A 
HETATM   27  C           1     -20.467  -4.135 -10.885  0.00  0.00     0.037 A 
HETATM   28  C           1     -20.431  -4.137  -9.491  0.00  0.00     0.010 A 
BRANCH  26  29
HETATM   29  O           1     -21.699  -3.877 -12.906  0.00  0.00    -0.361 OA
HETATM   30  H           1     -22.631  -3.897 -13.183  0.00  0.00     0.217 HD
ENDBRANCH  26  29
ENDBRANCH  22  23
ENDBRANCH  21  22
BRANCH  21  31
HETATM   31  N           1     -23.549  -4.963  -6.291  0.00  0.00    -0.066 N 
HETATM   32  H           1     -24.002  -4.250  -6.906  0.00  0.00     0.275 HD
HETATM   33  H           1     -24.081  -5.861  -6.350  0.00  0.00     0.275 HD
HETATM   34  H           1     -23.546  -4.622  -5.303  0.00  0.00     0.275 HD
ENDBRANCH  21  31
ENDBRANCH   3  21
TORSDOF 11
ENDMDL
MODEL 4
REMARK VINA RESULT:      -7.5     13.904     15.243
REMARK  11 active torsions:
REMARK  status: ('A' for Active; 'I' for Inactive)
REMARK    1  A    between atoms: C_1  and  C_32 
REMARK    2  A    between atoms: C_1  and  C_2 
REMARK    3  A    between atoms: C_4  and  O_7 
REMARK    4  A    between atoms: C_5  and  C_19 
REMARK    5  A    between atoms: C_5  and  C_10 
REMARK    6  A    between atoms: N_6  and  C_32 
REMARK    7  A    between atoms: N_8  and  C_28 
REMARK       I    between atoms: N_8  and  C_17 
REMARK    8  A    between atoms: C_10  and  C_28 
REMARK    9  A    between atoms: C_16  and  C_28 
REMARK   10  A    between atoms: C_17  and  C_32 
REMARK   11  A    between atoms: C_19  and  N_20 
REMARK       I    between atoms: N_20  and  C_27 
REMARK       I    between atoms: N_26  and  C_27 
ROOT
HETATM    1  N           1     -21.325  -7.256  -5.553  0.00  0.00    -0.345 N 
HETATM    2  H           1     -21.982  -7.834  -6.063  0.00  0.00     0.163 HD
HETATM    3  C           1     -21.286  -5.906  -5.777  0.00  0.00     0.249 C 
HETATM    4  O           1     -20.501  -5.216  -5.170  0.00  0.00    -0.271 OA
ENDROOT
BRANCH   1   5
HETATM    5  C           1     -20.427  -7.857  -4.588  0.00  0.00     0.185 C 
BRANCH   5   6
HETATM    6  C           1     -21.198  -8.199  -3.320  0.00  0.00     0.038 C 
BRANCH   6   7
HETATM    7  C           1     -20.229  -8.322  -2.153  0.00  0.00     0.023 C 
BRANCH   7   8
HETATM    8  C           1     -20.805  -9.272  -1.111  0.00  0.00     0.138 C 
BRANCH   8   9
HETATM    9  N           1     -22.170  -8.852  -0.765  0.00  0.00    -0.227 N 
HETATM   10  H           1     -22.942  -8.940  -1.472  0.00  0.00     0.177 HD
HETATM   11  C           1     -22.417  -8.386   0.386  0.00  0.00     0.665 C 
HETATM   12  N           1     -21.487  -8.281   1.239  0.00  0.00    -0.235 N 
HETATM   13  N           1     -23.624  -8.015   0.692  0.00  0.00    -0.235 N 
HETATM   14  H           1     -20.511  -8.581   0.991  0.00  0.00     0.174 HD
HETATM   15  H           1     -21.692  -7.894   2.193  0.00  0.00     0.174 HD
HETATM   16  H           1     -24.392  -8.102  -0.012  0.00  0.00     0.174 HD
HETATM   17  H           1     -23.828  -7.630   1.642  0.00  0.00     0.174 HD
ENDBRANCH   8   9
ENDBRANCH   7   8
ENDBRANCH   6   7
ENDBRANCH   5   6
BRANCH   5  18
HETATM   18  C           1     -19.834  -9.118  -5.170  0.00  0.00     0.196 C 
HETATM   19  O           1     -18.743  -9.071  -5.778  0.00  0.00    -0.646 OA
HETATM   20  O           1     -20.432 -10.207  -5.044  0.00  0.00    -0.646 OA
ENDBRANCH   5  18
ENDBRANCH   1   5
BRANCH   3  21
HETATM   21  C           1     -22.221  -5.280  -6.782  0.00  0.00     0.278 C 
BRANCH  21  22
HETATM   22  C           1     -21.640  -3.956  -7.261  0.00  0.00     0.081 C 
BRANCH  22  23
HETATM   23  C           1     -21.647  -3.917  -8.757  0.00  0.00    -0.056 A 
HETATM   24  C           1     -20.460  -4.105  -9.465  0.00  0.00     0.010 A 
HETATM   25  C           1     -20.466  -4.069 -10.859  0.00  0.00     0.037 A 
HETATM   26  C           1     -21.659  -3.845 -11.545  0.00  0.00     0.065 A 
HETATM   27  C           1     -22.846  -3.657 -10.838  0.00  0.00     0.037 A 
HETATM   28  C           1     -22.840  -3.693  -9.444  0.00  0.00     0.010 A 
BRANCH  26  29
HETATM   29  O           1     -21.665  -3.810 -12.900  0.00  0.00    -0.361 OA
HETATM   30  H           1     -21.364  -4.676 -13.224  0.00  0.00     0.217 HD
ENDBRANCH  26  29
ENDBRANCH  22  23
ENDBRANCH  21  22
BRANCH  21  31
HETATM   31  N           1     -23.554  -5.037  -6.140  0.00  0.00    -0.066 N 
HETATM   32  H           1     -23.838  -4.042  -6.292  0.00  0.00     0.275 HD
HETATM   33  H           1     -24.267  -5.671  -6.567  0.00  0.00     0.275 HD
HETATM   34  H           1     -23.487  -5.228  -5.115  0.00  0.00     0.275 HD
ENDBRANCH  21  31
ENDBRANCH   3  21
TORSDOF 11
ENDMDL
MODEL 5
REMARK VINA RESULT:      -7.0     14.545     15.664
REMARK  11 active torsions:
REMARK  status: ('A' for Active; 'I' for Inactive)
REMARK    1  A    between atoms: C_1  and  C_32 
REMARK    2  A    between atoms: C_1  and  C_2 
REMARK    3  A    between atoms: C_4  and  O_7 
REMARK    4  A    between atoms: C_5  and  C_19 
REMARK    5  A    between atoms: C_5  and  C_10 
REMARK    6  A    between atoms: N_6  and  C_32 
REMARK    7  A    between atoms: N_8  and  C_28 
REMARK       I    between atoms: N_8  and  C_17 
REMARK    8  A    between atoms: C_10  and  C_28 
REMARK    9  A    between atoms: C_16  and  C_28 
REMARK   10  A    between atoms: C_17  and  C_32 
REMARK   11  A    between atoms: C_19  and  N_20 
REMARK       I    between atoms: N_20  and  C_27 
REMARK       I    between atoms: N_26  and  C_27 
ROOT
HETATM    1  N           1     -20.876  -6.754  -4.768  0.00  0.00    -0.345 N 
HETATM    2  H           1     -19.885  -6.963  -4.753  0.00  0.00     0.163 HD
HETATM    3  C           1     -21.364  -5.819  -5.640  0.00  0.00     0.249 C 
HETATM    4  O           1     -22.546  -5.568  -5.658  0.00  0.00    -0.271 OA
ENDROOT
BRANCH   1   5
HETATM    5  C           1     -21.776  -7.444  -3.866  0.00  0.00     0.185 C 
BRANCH   5   6
HETATM    6  C           1     -21.433  -8.928  -3.841  0.00  0.00     0.038 C 
BRANCH   6   7
HETATM    7  C           1     -20.069  -9.145  -4.482  0.00  0.00     0.023 C 
BRANCH   7   8
HETATM    8  C           1     -19.237 -10.072  -3.606  0.00  0.00     0.138 C 
BRANCH   8   9
HETATM    9  N           1     -18.108  -9.325  -3.034  0.00  0.00    -0.227 N 
HETATM   10  H           1     -18.281  -8.441  -2.495  0.00  0.00     0.177 HD
HETATM   11  C           1     -16.925  -9.749  -3.189  0.00  0.00     0.665 C 
HETATM   12  N           1     -16.715 -10.816  -3.838  0.00  0.00    -0.235 N 
HETATM   13  N           1     -15.926  -9.089  -2.683  0.00  0.00    -0.235 N 
HETATM   14  H           1     -17.522 -11.349  -4.247  0.00  0.00     0.174 HD
HETATM   15  H           1     -15.734 -11.167  -3.967  0.00  0.00     0.174 HD
HETATM   16  H           1     -16.099  -8.208  -2.147  0.00  0.00     0.174 HD
HETATM   17  H           1     -14.950  -9.439  -2.812  0.00  0.00     0.174 HD
ENDBRANCH   8   9
ENDBRANCH   7   8
ENDBRANCH   6   7
ENDBRANCH   5   6
BRANCH   5  18
HETATM   18  C           1     -21.632  -6.872  -2.477  0.00  0.00     0.196 C 
HETATM   19  O           1     -22.267  -5.845  -2.156  0.00  0.00    -0.646 OA
HETATM   20  O           1     -20.880  -7.426  -1.647  0.00  0.00    -0.646 OA
ENDBRANCH   5  18
ENDBRANCH   1   5
BRANCH   3  21
HETATM   21  C           1     -20.426  -5.100  -6.579  0.00  0.00     0.278 C 
BRANCH  21  22
HETATM   22  C           1     -21.095  -3.833  -7.095  0.00  0.00     0.081 C 
BRANCH  22  23
HETATM   23  C           1     -21.445  -4.004  -8.540  0.00  0.00    -0.056 A 
HETATM   24  C           1     -22.765  -4.264  -8.911  0.00  0.00     0.010 A 
HETATM   25  C           1     -23.091  -4.424 -10.258  0.00  0.00     0.037 A 
HETATM   26  C           1     -22.099  -4.324 -11.232  0.00  0.00     0.065 A 
HETATM   27  C           1     -20.780  -4.064 -10.861  0.00  0.00     0.037 A 
HETATM   28  C           1     -20.453  -3.904  -9.515  0.00  0.00     0.010 A 
BRANCH  26  29
HETATM   29  O           1     -22.417  -4.479 -12.541  0.00  0.00    -0.361 OA
HETATM   30  H           1     -22.185  -5.387 -12.801  0.00  0.00     0.217 HD
ENDBRANCH  26  29
ENDBRANCH  22  23
ENDBRANCH  21  22
BRANCH  21  31
HETATM   31  N           1     -20.095  -5.996  -7.737  0.00  0.00    -0.066 N 
HETATM   32  H           1     -19.932  -5.416  -8.590  0.00  0.00     0.275 HD
HETATM   33  H           1     -19.232  -6.542  -7.517  0.00  0.00     0.275 HD
HETATM   34  H           1     -20.890  -6.652  -7.907  0.00  0.00     0.275 HD
ENDBRANCH  21  31
ENDBRANCH   3  21
TORSDOF 11
ENDMDL
MODEL 6
REMARK VINA RESULT:      -7.0     14.089     15.239
REMARK  11 active torsions:
REMARK  status: ('A' for Active; 'I' for Inactive)
REMARK    1  A    between atoms: C_1  and  C_32 
REMARK    2  A    between atoms: C_1  and  C_2 
REMARK    3  A    between atoms: C_4  and  O_7 
REMARK    4  A    between atoms: C_5  and  C_19 
REMARK    5  A    between atoms: C_5  and  C_10 
REMARK    6  A    between atoms: N_6  and  C_32 
REMARK    7  A    between atoms: N_8  and  C_28 
REMARK       I    between atoms: N_8  and  C_17 
REMARK    8  A    between atoms: C_10  and  C_28 
REMARK    9  A    between atoms: C_16  and  C_28 
REMARK   10  A    between atoms: C_17  and  C_32 
REMARK   11  A    between atoms: C_19  and  N_20 
REMARK       I    between atoms: N_20  and  C_27 
REMARK       I    between atoms: N_26  and  C_27 
ROOT
HETATM    1  N           1     -20.792  -6.800  -4.755  0.00  0.00    -0.345 N 
HETATM    2  H           1     -19.786  -6.907  -4.793  0.00  0.00     0.163 HD
HETATM    3  C           1     -21.420  -5.932  -5.607  0.00  0.00     0.249 C 
HETATM    4  O           1     -22.620  -5.803  -5.561  0.00  0.00    -0.271 OA
ENDROOT
BRANCH   1   5
HETATM    5  C           1     -21.567  -7.566  -3.799  0.00  0.00     0.185 C 
BRANCH   5   6
HETATM    6  C           1     -20.990  -8.971  -3.686  0.00  0.00     0.038 C 
BRANCH   6   7
HETATM    7  C           1     -22.079  -9.933  -3.231  0.00  0.00     0.023 C 
BRANCH   7   8
HETATM    8  C           1     -21.490 -10.944  -2.257  0.00  0.00     0.138 C 
BRANCH   8   9
HETATM    9  N           1     -20.932 -10.238  -1.094  0.00  0.00    -0.227 N 
HETATM   10  H           1     -20.204  -9.494  -1.231  0.00  0.00     0.177 HD
HETATM   11  C           1     -21.330 -10.526   0.072  0.00  0.00     0.665 C 
HETATM   12  N           1     -22.209 -11.423   0.238  0.00  0.00    -0.235 N 
HETATM   13  N           1     -20.837  -9.902   1.100  0.00  0.00    -0.235 N 
HETATM   14  H           1     -22.607 -11.927  -0.592  0.00  0.00     0.174 HD
HETATM   15  H           1     -22.539 -11.661   1.206  0.00  0.00     0.174 HD
HETATM   16  H           1     -20.112  -9.161   0.964  0.00  0.00     0.174 HD
HETATM   17  H           1     -21.166 -10.140   2.063  0.00  0.00     0.174 HD
ENDBRANCH   8   9
ENDBRANCH   7   8
ENDBRANCH   6   7
ENDBRANCH   5   6
BRANCH   5  18
HETATM   18  C           1     -21.512  -6.890  -2.451  0.00  0.00     0.196 C 
HETATM   19  O           1     -20.725  -7.308  -1.574  0.00  0.00    -0.646 OA
HETATM   20  O           1     -22.252  -5.912  -2.211  0.00  0.00    -0.646 OA
ENDBRANCH   5  18
ENDBRANCH   1   5
BRANCH   3  21
HETATM   21  C           1     -20.613  -5.134  -6.602  0.00  0.00     0.278 C 
BRANCH  21  22
HETATM   22  C           1     -21.428  -3.937  -7.074  0.00  0.00     0.081 C 
BRANCH  22  23
HETATM   23  C           1     -21.518  -3.951  -8.568  0.00  0.00    -0.056 A 
HETATM   24  C           1     -22.750  -4.156  -9.190  0.00  0.00     0.010 A 
HETATM   25  C           1     -22.835  -4.170 -10.582  0.00  0.00     0.037 A 
HETATM   26  C           1     -21.688  -3.979 -11.352  0.00  0.00     0.065 A 
HETATM   27  C           1     -20.456  -3.774 -10.731  0.00  0.00     0.037 A 
HETATM   28  C           1     -20.371  -3.761  -9.339  0.00  0.00     0.010 A 
BRANCH  26  29
HETATM   29  O           1     -21.771  -3.992 -12.704  0.00  0.00    -0.361 OA
HETATM   30  H           1     -21.648  -4.909 -13.004  0.00  0.00     0.217 HD
ENDBRANCH  26  29
ENDBRANCH  22  23
ENDBRANCH  21  22
BRANCH  21  31
HETATM   31  N           1     -20.273  -6.002  -7.778  0.00  0.00    -0.066 N 
HETATM   32  H           1     -21.137  -6.186  -8.336  0.00  0.00     0.275 HD
HETATM   33  H           1     -19.569  -5.514  -8.377  0.00  0.00     0.275 HD
HETATM   34  H           1     -19.876  -6.907  -7.440  0.00  0.00     0.275 HD
ENDBRANCH  21  31
ENDBRANCH   3  21
TORSDOF 11
ENDMDL
MODEL 7
REMARK VINA RESULT:      -6.8      1.557      2.117
REMARK  11 active torsions:
REMARK  status: ('A' for Active; 'I' for Inactive)
REMARK    1  A    between atoms: C_1  and  C_32 
REMARK    2  A    between atoms: C_1  and  C_2 
REMARK    3  A    between atoms: C_4  and  O_7 
REMARK    4  A    between atoms: C_5  and  C_19 
REMARK    5  A    between atoms: C_5  and  C_10 
REMARK    6  A    between atoms: N_6  and  C_32 
REMARK    7  A    between atoms: N_8  and  C_28 
REMARK       I    between atoms: N_8  and  C_17 
REMARK    8  A    between atoms: C_10  and  C_28 
REMARK    9  A    between atoms: C_16  and  C_28 
REMARK   10  A    between atoms: C_17  and  C_32 
REMARK   11  A    between atoms: C_19  and  N_20 
REMARK       I    between atoms: N_20  and  C_27 
REMARK       I    between atoms: N_26  and  C_27 
ROOT
HETATM    1  N           1     -34.244  -3.160 -13.885  0.00  0.00    -0.345 N 
HETATM    2  H           1     -33.703  -2.611 -14.542  0.00  0.00     0.163 HD
HETATM    3  C           1     -34.446  -4.494 -14.113  0.00  0.00     0.249 C 
HETATM    4  O           1     -35.093  -5.149 -13.330  0.00  0.00    -0.271 OA
ENDROOT
BRANCH   1   5
HETATM    5  C           1     -34.805  -2.532 -12.706  0.00  0.00     0.185 C 
BRANCH   5   6
HETATM    6  C           1     -33.700  -2.284 -11.688  0.00  0.00     0.038 C 
BRANCH   6   7
HETATM    7  C           1     -33.948  -3.134 -10.449  0.00  0.00     0.023 C 
BRANCH   7   8
HETATM    8  C           1     -33.508  -4.566 -10.719  0.00  0.00     0.138 C 
BRANCH   8   9
HETATM    9  N           1     -34.498  -5.498 -10.160  0.00  0.00    -0.227 N 
HETATM   10  H           1     -35.364  -5.129  -9.696  0.00  0.00     0.177 HD
HETATM   11  C           1     -34.308  -6.747 -10.241  0.00  0.00     0.665 C 
HETATM   12  N           1     -33.264  -7.194 -10.802  0.00  0.00    -0.235 N 
HETATM   13  N           1     -35.183  -7.571  -9.748  0.00  0.00    -0.235 N 
HETATM   14  H           1     -32.557  -6.528 -11.200  0.00  0.00     0.174 HD
HETATM   15  H           1     -33.107  -8.230 -10.868  0.00  0.00     0.174 HD
HETATM   16  H           1     -36.045  -7.203  -9.285  0.00  0.00     0.174 HD
HETATM   17  H           1     -35.026  -8.603  -9.814  0.00  0.00     0.174 HD
ENDBRANCH   8   9
ENDBRANCH   7   8
ENDBRANCH   6   7
ENDBRANCH   5   6
BRANCH   5  18
HETATM   18  C           1     -35.440  -1.217 -13.089  0.00  0.00     0.196 C 
HETATM   19  O           1     -36.654  -1.023 -12.869  0.00  0.00    -0.646 OA
HETATM   20  O           1     -34.751  -0.323 -13.625  0.00  0.00    -0.646 OA
ENDBRANCH   5  18
ENDBRANCH   1   5
BRANCH   3  21
HETATM   21  C           1     -33.862  -5.147 -15.342  0.00  0.00     0.278 C 
BRANCH  21  22
HETATM   22  C           1     -33.375  -4.073 -16.305  0.00  0.00     0.081 C 
BRANCH  22  23
HETATM   23  C           1     -32.069  -4.493 -16.905  0.00  0.00    -0.056 A 
HETATM   24  C           1     -31.701  -5.839 -16.899  0.00  0.00     0.010 A 
HETATM   25  C           1     -30.484  -6.230 -17.457  0.00  0.00     0.037 A 
HETATM   26  C           1     -29.636  -5.276 -18.020  0.00  0.00     0.065 A 
HETATM   27  C           1     -30.004  -3.932 -18.025  0.00  0.00     0.037 A 
HETATM   28  C           1     -31.220  -3.540 -17.467  0.00  0.00     0.010 A 
BRANCH  26  29
HETATM   29  O           1     -28.454  -5.657 -18.562  0.00  0.00    -0.361 OA
HETATM   30  H           1     -27.740  -5.312 -17.999  0.00  0.00     0.217 HD
ENDBRANCH  26  29
ENDBRANCH  22  23
ENDBRANCH  21  22
BRANCH  21  31
HETATM   31  N           1     -34.914  -5.980 -16.012  0.00  0.00    -0.066 N 
HETATM   32  H           1     -35.763  -5.395 -16.187  0.00  0.00     0.275 HD
HETATM   33  H           1     -34.546  -6.338 -16.923  0.00  0.00     0.275 HD
HETATM   34  H           1     -35.166  -6.785 -15.397  0.00  0.00     0.275 HD
ENDBRANCH  21  31
ENDBRANCH   3  21
TORSDOF 11
ENDMDL
MODEL 8
REMARK VINA RESULT:      -6.8     14.531     16.676
REMARK  11 active torsions:
REMARK  status: ('A' for Active; 'I' for Inactive)
REMARK    1  A    between atoms: C_1  and  C_32 
REMARK    2  A    between atoms: C_1  and  C_2 
REMARK    3  A    between atoms: C_4  and  O_7 
REMARK    4  A    between atoms: C_5  and  C_19 
REMARK    5  A    between atoms: C_5  and  C_10 
REMARK    6  A    between atoms: N_6  and  C_32 
REMARK    7  A    between atoms: N_8  and  C_28 
REMARK       I    between atoms: N_8  and  C_17 
REMARK    8  A    between atoms: C_10  and  C_28 
REMARK    9  A    between atoms: C_16  and  C_28 
REMARK   10  A    between atoms: C_17  and  C_32 
REMARK   11  A    between atoms: C_19  and  N_20 
REMARK       I    between atoms: N_20  and  C_27 
REMARK       I    between atoms: N_26  and  C_27 
ROOT
HETATM    1  N           1     -21.027  -8.244  -5.592  0.00  0.00    -0.345 N 
HETATM    2  H           1     -21.789  -8.577  -6.170  0.00  0.00     0.163 HD
HETATM    3  C           1     -20.188  -9.139  -4.986  0.00  0.00     0.249 C 
HETATM    4  O           1     -19.279  -8.743  -4.295  0.00  0.00    -0.271 OA
ENDROOT
BRANCH   1   5
HETATM    5  C           1     -20.826  -6.821  -5.406  0.00  0.00     0.185 C 
BRANCH   5   6
HETATM    6  C           1     -20.686  -6.146  -6.764  0.00  0.00     0.038 C 
BRANCH   6   7
HETATM    7  C           1     -20.093  -4.756  -6.581  0.00  0.00     0.023 C 
BRANCH   7   8
HETATM    8  C           1     -20.706  -3.803  -7.599  0.00  0.00     0.138 C 
BRANCH   8   9
HETATM    9  N           1     -22.172  -3.864  -7.506  0.00  0.00    -0.227 N 
HETATM   10  H           1     -22.636  -3.954  -6.569  0.00  0.00     0.177 HD
HETATM   11  C           1     -22.875  -3.806  -8.558  0.00  0.00     0.665 C 
HETATM   12  N           1     -22.316  -3.696  -9.689  0.00  0.00    -0.235 N 
HETATM   13  N           1     -24.171  -3.859  -8.476  0.00  0.00    -0.235 N 
HETATM   14  H           1     -21.269  -3.653  -9.754  0.00  0.00     0.174 HD
HETATM   15  H           1     -22.900  -3.648 -10.560  0.00  0.00     0.174 HD
HETATM   16  H           1     -24.633  -3.950  -7.543  0.00  0.00     0.174 HD
HETATM   17  H           1     -24.752  -3.812  -9.344  0.00  0.00     0.174 HD
ENDBRANCH   8   9
ENDBRANCH   7   8
ENDBRANCH   6   7
ENDBRANCH   5   6
BRANCH   5  18
HETATM   18  C           1     -22.010  -6.237  -4.674  0.00  0.00     0.196 C 
HETATM   19  O           1     -23.054  -5.956  -5.300  0.00  0.00    -0.646 OA
HETATM   20  O           1     -21.946  -6.035  -3.443  0.00  0.00    -0.646 OA
ENDBRANCH   5  18
ENDBRANCH   1   5
BRANCH   3  21
HETATM   21  C           1     -20.398 -10.622  -5.179  0.00  0.00     0.278 C 
BRANCH  21  22
HETATM   22  C           1     -20.021 -11.360  -3.902  0.00  0.00     0.081 C 
BRANCH  22  23
HETATM   23  C           1     -21.087 -11.153  -2.871  0.00  0.00    -0.056 A 
HETATM   24  C           1     -22.408 -11.498  -3.156  0.00  0.00     0.010 A 
HETATM   25  C           1     -23.401 -11.306  -2.197  0.00  0.00     0.037 A 
HETATM   26  C           1     -23.074 -10.767  -0.953  0.00  0.00     0.065 A 
HETATM   27  C           1     -21.753 -10.422  -0.667  0.00  0.00     0.037 A 
HETATM   28  C           1     -20.760 -10.614  -1.627  0.00  0.00     0.010 A 
BRANCH  26  29
HETATM   29  O           1     -24.039 -10.580  -0.020  0.00  0.00    -0.361 OA
HETATM   30  H           1     -23.751  -9.865   0.572  0.00  0.00     0.217 HD
ENDBRANCH  26  29
ENDBRANCH  22  23
ENDBRANCH  21  22
BRANCH  21  31
HETATM   31  N           1     -19.535 -11.105  -6.308  0.00  0.00    -0.066 N 
HETATM   32  H           1     -19.702 -10.512  -7.152  0.00  0.00     0.275 HD
HETATM   33  H           1     -18.530 -11.038  -6.029  0.00  0.00     0.275 HD
HETATM   34  H           1     -19.773 -12.098  -6.527  0.00  0.00     0.275 HD
ENDBRANCH  21  31
ENDBRANCH   3  21
TORSDOF 11
ENDMDL
MODEL 9
REMARK VINA RESULT:      -6.6     14.989     16.505
REMARK  11 active torsions:
REMARK  status: ('A' for Active; 'I' for Inactive)
REMARK    1  A    between atoms: C_1  and  C_32 
REMARK    2  A    between atoms: C_1  and  C_2 
REMARK    3  A    between atoms: C_4  and  O_7 
REMARK    4  A    between atoms: C_5  and  C_19 
REMARK    5  A    between atoms: C_5  and  C_10 
REMARK    6  A    between atoms: N_6  and  C_32 
REMARK    7  A    between atoms: N_8  and  C_28 
REMARK       I    between atoms: N_8  and  C_17 
REMARK    8  A    between atoms: C_10  and  C_28 
REMARK    9  A    between atoms: C_16  and  C_28 
REMARK   10  A    between atoms: C_17  and  C_32 
REMARK   11  A    between atoms: C_19  and  N_20 
REMARK       I    between atoms: N_20  and  C_27 
REMARK       I    between atoms: N_26  and  C_27 
ROOT
HETATM    1  N           1     -20.184  -8.168  -4.005  0.00  0.00    -0.345 N 
HETATM    2  H           1     -20.055  -7.603  -3.175  0.00  0.00     0.163 HD
HETATM    3  C           1     -20.961  -7.706  -5.032  0.00  0.00     0.249 C 
HETATM    4  O           1     -21.117  -8.380  -6.023  0.00  0.00    -0.271 OA
ENDROOT
BRANCH   1   5
HETATM    5  C           1     -19.548  -9.466  -4.105  0.00  0.00     0.185 C 
BRANCH   5   6
HETATM    6  C           1     -18.117  -9.372  -3.592  0.00  0.00     0.038 C 
BRANCH   6   7
HETATM    7  C           1     -17.170  -9.998  -4.607  0.00  0.00     0.023 C 
BRANCH   7   8
HETATM    8  C           1     -17.834 -10.016  -5.977  0.00  0.00     0.138 C 
BRANCH   8   9
HETATM    9  N           1     -17.788 -11.379  -6.527  0.00  0.00    -0.227 N 
HETATM   10  H           1     -16.870 -11.879  -6.617  0.00  0.00     0.177 HD
HETATM   11  C           1     -18.858 -11.951  -6.890  0.00  0.00     0.665 C 
HETATM   12  N           1     -19.967 -11.350  -6.781  0.00  0.00    -0.235 N 
HETATM   13  N           1     -18.818 -13.156  -7.375  0.00  0.00    -0.235 N 
HETATM   14  H           1     -19.999 -10.376  -6.389  0.00  0.00     0.174 HD
HETATM   15  H           1     -20.853 -11.824  -7.082  0.00  0.00     0.174 HD
HETATM   16  H           1     -17.903 -13.654  -7.465  0.00  0.00     0.174 HD
HETATM   17  H           1     -19.701 -13.629  -7.675  0.00  0.00     0.174 HD
ENDBRANCH   8   9
ENDBRANCH   7   8
ENDBRANCH   6   7
ENDBRANCH   5   6
BRANCH   5  18
HETATM   18  C           1     -20.314 -10.468  -3.274  0.00  0.00     0.196 C 
HETATM   19  O           1     -20.307 -11.676  -3.590  0.00  0.00    -0.646 OA
HETATM   20  O           1     -20.955 -10.088  -2.271  0.00  0.00    -0.646 OA
ENDBRANCH   5  18
ENDBRANCH   1   5
BRANCH   3  21
HETATM   21  C           1     -21.624  -6.354  -4.928  0.00  0.00     0.278 C 
BRANCH  21  22
HETATM   22  C           1     -20.637  -5.271  -5.343  0.00  0.00     0.081 C 
BRANCH  22  23
HETATM   23  C           1     -20.908  -4.861  -6.757  0.00  0.00    -0.056 A 
HETATM   24  C           1     -19.862  -4.805  -7.679  0.00  0.00     0.010 A 
HETATM   25  C           1     -20.114  -4.423  -8.997  0.00  0.00     0.037 A 
HETATM   26  C           1     -21.412  -4.097  -9.391  0.00  0.00     0.065 A 
HETATM   27  C           1     -22.457  -4.153  -8.470  0.00  0.00     0.037 A 
HETATM   28  C           1     -22.205  -4.534  -7.153  0.00  0.00     0.010 A 
BRANCH  26  29
HETATM   29  O           1     -21.656  -3.726 -10.672  0.00  0.00    -0.361 OA
HETATM   30  H           1     -21.012  -3.039 -10.914  0.00  0.00     0.217 HD
ENDBRANCH  26  29
ENDBRANCH  22  23
ENDBRANCH  21  22
BRANCH  21  31
HETATM   31  N           1     -22.057  -6.118  -3.511  0.00  0.00    -0.066 N 
HETATM   32  H           1     -21.255  -5.734  -2.961  0.00  0.00     0.275 HD
HETATM   33  H           1     -22.847  -5.433  -3.499  0.00  0.00     0.275 HD
HETATM   34  H           1     -22.370  -7.021  -3.088  0.00  0.00     0.275 HD
ENDBRANCH  21  31
ENDBRANCH   3  21
TORSDOF 11
ENDMDL
