MODEL 1
REMARK VINA RESULT:      -6.5      0.000      0.000
REMARK  9 active torsions:
REMARK  status: ('A' for Active; 'I' for Inactive)
REMARK    1  A    between atoms: C_1  and  C_7 
REMARK    2  A    between atoms: C_5  and  C_13 
REMARK    3  A    between atoms: C_5  and  C_6 
REMARK    4  A    between atoms: C_7  and  C_17 
REMARK    5  A    between atoms: C_7  and  N_10 
REMARK    6  A    between atoms: C_8  and  C_9 
REMARK    7  A    between atoms: C_8  and  C_13 
REMARK    8  A    between atoms: C_8  and  N_15 
REMARK       I    between atoms: C_9  and  N_10 
REMARK    9  A    between atoms: C_16  and  C_17 
ROOT
HETATM    1  O           1     -33.482  -2.142 -11.023  0.00  0.00    -0.271 OA
HETATM    2  C           1     -34.197  -2.832 -11.708  0.00  0.00     0.249 C 
HETATM    3  N           1     -35.329  -2.301 -12.267  0.00  0.00    -0.345 N 
HETATM    4  H           1     -35.928  -2.880 -12.843  0.00  0.00     0.163 HD
ENDROOT
BRANCH   2   5
HETATM    5  C           1     -33.844  -4.280 -11.949  0.00  0.00     0.275 C 
BRANCH   5   6
HETATM    6  C           1     -34.152  -5.092 -10.699  0.00  0.00     0.053 C 
BRANCH   6   7
HETATM    7  C           1     -33.565  -6.490 -10.844  0.00  0.00     0.115 C 
BRANCH   7   8
HETATM    8  C           1     -34.401  -7.471 -10.059  0.00  0.00     0.172 C 
HETATM    9  O           1     -35.469  -7.097  -9.528  0.00  0.00    -0.648 OA
HETATM   10  O           1     -34.027  -8.658  -9.943  0.00  0.00    -0.648 OA
ENDBRANCH   7   8
ENDBRANCH   6   7
ENDBRANCH   5   6
BRANCH   5  11
HETATM   11  N           1     -32.383  -4.390 -12.269  0.00  0.00    -0.066 N 
HETATM   12  H           1     -31.989  -3.436 -12.432  0.00  0.00     0.275 HD
HETATM   13  H           1     -31.884  -4.840 -11.469  0.00  0.00     0.275 HD
HETATM   14  H           1     -32.258  -4.969 -13.129  0.00  0.00     0.275 HD
ENDBRANCH   5  11
ENDBRANCH   2   5
BRANCH   3  15
HETATM   15  C           1     -35.668  -0.911 -12.037  0.00  0.00     0.185 C 
BRANCH  15  16
HETATM   16  C           1     -36.562  -0.807 -10.826  0.00  0.00     0.196 C 
HETATM   17  O           1     -37.779  -1.077 -10.922  0.00  0.00    -0.646 OA
HETATM   18  O           1     -36.086  -0.452  -9.726  0.00  0.00    -0.646 OA
ENDBRANCH  15  16
BRANCH  15  19
HETATM   19  C           1     -36.396  -0.358 -13.255  0.00  0.00     0.040 C 
BRANCH  19  20
HETATM   20  C           1     -35.378   0.108 -14.288  0.00  0.00    -0.020 C 
HETATM   21  C           1     -36.108   0.672 -15.500  0.00  0.00     0.009 C 
HETATM   22  C           1     -34.494   1.187 -13.680  0.00  0.00     0.009 C 
ENDBRANCH  19  20
ENDBRANCH  15  19
ENDBRANCH   3  15
TORSDOF 9
ENDMDL
MODEL 2
REMARK VINA RESULT:      -6.3     10.785     12.175
REMARK  9 active torsions:
REMARK  status: ('A' for Active; 'I' for Inactive)
REMARK    1  A    between atoms: C_1  and  C_7 
REMARK    2  A    between atoms: C_5  and  C_13 
REMARK    3  A    between atoms: C_5  and  C_6 
REMARK    4  A    between atoms: C_7  and  C_17 
REMARK    5  A    between atoms: C_7  and  N_10 
REMARK    6  A    between atoms: C_8  and  C_9 
REMARK    7  A    between atoms: C_8  and  C_13 
REMARK    8  A    between atoms: C_8  and  N_15 
REMARK       I    between atoms: C_9  and  N_10 
REMARK    9  A    between atoms: C_16  and  C_17 
ROOT
HETATM    1  O           1     -26.384  -6.171 -17.100  0.00  0.00    -0.271 OA
HETATM    2  C           1     -26.468  -6.495 -18.260  0.00  0.00     0.249 C 
HETATM    3  N           1     -27.698  -6.701 -18.825  0.00  0.00    -0.345 N 
HETATM    4  H           1     -27.768  -6.973 -19.798  0.00  0.00     0.163 HD
ENDROOT
BRANCH   2   5
HETATM    5  C           1     -25.218  -6.675 -19.086  0.00  0.00     0.275 C 
BRANCH   5   6
HETATM    6  C           1     -25.554  -7.448 -20.354  0.00  0.00     0.053 C 
BRANCH   6   7
HETATM    7  C           1     -24.634  -6.999 -21.482  0.00  0.00     0.115 C 
BRANCH   7   8
HETATM    8  C           1     -23.664  -8.107 -21.811  0.00  0.00     0.172 C 
HETATM    9  O           1     -23.780  -8.743 -22.881  0.00  0.00    -0.648 OA
HETATM   10  O           1     -22.743  -8.388 -21.014  0.00  0.00    -0.648 OA
ENDBRANCH   7   8
ENDBRANCH   6   7
ENDBRANCH   5   6
BRANCH   5  11
HETATM   11  N           1     -24.200  -7.437 -18.291  0.00  0.00    -0.066 N 
HETATM   12  H           1     -23.263  -7.343 -18.744  0.00  0.00     0.275 HD
HETATM   13  H           1     -24.157  -7.053 -17.321  0.00  0.00     0.275 HD
HETATM   14  H           1     -24.469  -8.446 -18.257  0.00  0.00     0.275 HD
ENDBRANCH   5  11
ENDBRANCH   2   5
BRANCH   3  15
HETATM   15  C           1     -28.899  -6.528 -18.032  0.00  0.00     0.185 C 
BRANCH  15  16
HETATM   16  C           1     -29.853  -7.663 -18.313  0.00  0.00     0.196 C 
HETATM   17  O           1     -30.882  -7.802 -17.615  0.00  0.00    -0.646 OA
HETATM   18  O           1     -29.617  -8.463 -19.243  0.00  0.00    -0.646 OA
ENDBRANCH  15  16
BRANCH  15  19
HETATM   19  C           1     -29.561  -5.206 -18.396  0.00  0.00     0.040 C 
BRANCH  19  20
HETATM   20  C           1     -29.700  -4.345 -17.147  0.00  0.00    -0.020 C 
HETATM   21  C           1     -29.354  -5.175 -15.918  0.00  0.00     0.009 C 
HETATM   22  C           1     -28.752  -3.158 -17.242  0.00  0.00     0.009 C 
ENDBRANCH  19  20
ENDBRANCH  15  19
ENDBRANCH   3  15
TORSDOF 9
ENDMDL
MODEL 3
REMARK VINA RESULT:      -6.2     12.979     15.794
REMARK  9 active torsions:
REMARK  status: ('A' for Active; 'I' for Inactive)
REMARK    1  A    between atoms: C_1  and  C_7 
REMARK    2  A    between atoms: C_5  and  C_13 
REMARK    3  A    between atoms: C_5  and  C_6 
REMARK    4  A    between atoms: C_7  and  C_17 
REMARK    5  A    between atoms: C_7  and  N_10 
REMARK    6  A    between atoms: C_8  and  C_9 
REMARK    7  A    between atoms: C_8  and  C_13 
REMARK    8  A    between atoms: C_8  and  N_15 
REMARK       I    between atoms: C_9  and  N_10 
REMARK    9  A    between atoms: C_16  and  C_17 
ROOT
HETATM    1  O           1     -19.575  -4.730  -6.810  0.00  0.00    -0.271 OA
HETATM    2  C           1     -20.753  -4.842  -7.050  0.00  0.00     0.249 C 
HETATM    3  N           1     -21.532  -5.666  -6.284  0.00  0.00    -0.345 N 
HETATM    4  H           1     -22.520  -5.760  -6.485  0.00  0.00     0.163 HD
ENDROOT
BRANCH   2   5
HETATM    5  C           1     -21.366  -4.074  -8.196  0.00  0.00     0.275 C 
BRANCH   5   6
HETATM    6  C           1     -22.656  -4.756  -8.631  0.00  0.00     0.053 C 
BRANCH   6   7
HETATM    7  C           1     -23.725  -3.702  -8.894  0.00  0.00     0.115 C 
BRANCH   7   8
HETATM    8  C           1     -23.984  -3.609 -10.378  0.00  0.00     0.172 C 
HETATM    9  O           1     -25.086  -3.189 -10.795  0.00  0.00    -0.648 OA
HETATM   10  O           1     -23.097  -3.949 -11.190  0.00  0.00    -0.648 OA
ENDBRANCH   7   8
ENDBRANCH   6   7
ENDBRANCH   5   6
BRANCH   5  11
HETATM   11  N           1     -20.405  -4.042  -9.346  0.00  0.00    -0.066 N 
HETATM   12  H           1     -19.449  -3.806  -8.995  0.00  0.00     0.275 HD
HETATM   13  H           1     -20.384  -4.979  -9.808  0.00  0.00     0.275 HD
HETATM   14  H           1     -20.711  -3.319 -10.036  0.00  0.00     0.275 HD
ENDBRANCH   5  11
ENDBRANCH   2   5
BRANCH   3  15
HETATM   15  C           1     -20.944  -6.403  -5.183  0.00  0.00     0.185 C 
BRANCH  15  16
HETATM   16  C           1     -20.480  -7.753  -5.674  0.00  0.00     0.196 C 
HETATM   17  O           1     -21.317  -8.612  -6.027  0.00  0.00    -0.646 OA
HETATM   18  O           1     -19.258  -8.011  -5.730  0.00  0.00    -0.646 OA
ENDBRANCH  15  16
BRANCH  15  19
HETATM   19  C           1     -21.983  -6.593  -4.086  0.00  0.00     0.040 C 
BRANCH  19  20
HETATM   20  C           1     -21.286  -6.674  -2.734  0.00  0.00    -0.020 C 
HETATM   21  C           1     -22.155  -6.008  -1.675  0.00  0.00     0.009 C 
HETATM   22  C           1     -21.065  -8.134  -2.364  0.00  0.00     0.009 C 
ENDBRANCH  19  20
ENDBRANCH  15  19
ENDBRANCH   3  15
TORSDOF 9
ENDMDL
MODEL 4
REMARK VINA RESULT:      -5.9     13.581     15.445
REMARK  9 active torsions:
REMARK  status: ('A' for Active; 'I' for Inactive)
REMARK    1  A    between atoms: C_1  and  C_7 
REMARK    2  A    between atoms: C_5  and  C_13 
REMARK    3  A    between atoms: C_5  and  C_6 
REMARK    4  A    between atoms: C_7  and  C_17 
REMARK    5  A    between atoms: C_7  and  N_10 
REMARK    6  A    between atoms: C_8  and  C_9 
REMARK    7  A    between atoms: C_8  and  C_13 
REMARK    8  A    between atoms: C_8  and  N_15 
REMARK       I    between atoms: C_9  and  N_10 
REMARK    9  A    between atoms: C_16  and  C_17 
ROOT
HETATM    1  O           1     -21.018  -7.544  -6.452  0.00  0.00    -0.271 OA
HETATM    2  C           1     -21.534  -6.761  -5.691  0.00  0.00     0.249 C 
HETATM    3  N           1     -21.692  -5.451  -6.061  0.00  0.00    -0.345 N 
HETATM    4  H           1     -22.125  -4.795  -5.423  0.00  0.00     0.163 HD
ENDROOT
BRANCH   2   5
HETATM    5  C           1     -22.004  -7.224  -4.334  0.00  0.00     0.275 C 
BRANCH   5   6
HETATM    6  C           1     -21.295  -6.423  -3.251  0.00  0.00     0.053 C 
BRANCH   6   7
HETATM    7  C           1     -22.243  -6.201  -2.079  0.00  0.00     0.115 C 
BRANCH   7   8
HETATM    8  C           1     -22.021  -7.274  -1.042  0.00  0.00     0.172 C 
HETATM    9  O           1     -21.004  -7.999  -1.099  0.00  0.00    -0.648 OA
HETATM   10  O           1     -22.853  -7.437  -0.124  0.00  0.00    -0.648 OA
ENDBRANCH   7   8
ENDBRANCH   6   7
ENDBRANCH   5   6
BRANCH   5  11
HETATM   11  N           1     -21.687  -8.680  -4.167  0.00  0.00    -0.066 N 
HETATM   12  H           1     -22.177  -9.230  -4.909  0.00  0.00     0.275 HD
HETATM   13  H           1     -20.656  -8.824  -4.252  0.00  0.00     0.275 HD
HETATM   14  H           1     -22.009  -9.001  -3.227  0.00  0.00     0.275 HD
ENDBRANCH   5  11
ENDBRANCH   2   5
BRANCH   3  15
HETATM   15  C           1     -21.241  -5.006  -7.364  0.00  0.00     0.185 C 
BRANCH  15  16
HETATM   16  C           1     -19.841  -4.453  -7.249  0.00  0.00     0.196 C 
HETATM   17  O           1     -19.220  -4.545  -6.169  0.00  0.00    -0.646 OA
HETATM   18  O           1     -19.304  -3.904  -8.235  0.00  0.00    -0.646 OA
ENDBRANCH  15  16
BRANCH  15  19
HETATM   19  C           1     -22.175  -3.921  -7.881  0.00  0.00     0.040 C 
BRANCH  19  20
HETATM   20  C           1     -22.852  -4.397  -9.159  0.00  0.00    -0.020 C 
HETATM   21  C           1     -24.171  -3.657  -9.341  0.00  0.00     0.009 C 
HETATM   22  C           1     -21.945  -4.117 -10.349  0.00  0.00     0.009 C 
ENDBRANCH  19  20
ENDBRANCH  15  19
ENDBRANCH   3  15
TORSDOF 9
ENDMDL
MODEL 5
REMARK VINA RESULT:      -5.7      6.168      8.886
REMARK  9 active torsions:
REMARK  status: ('A' for Active; 'I' for Inactive)
REMARK    1  A    between atoms: C_1  and  C_7 
REMARK    2  A    between atoms: C_5  and  C_13 
REMARK    3  A    between atoms: C_5  and  C_6 
REMARK    4  A    between atoms: C_7  and  C_17 
REMARK    5  A    between atoms: C_7  and  N_10 
REMARK    6  A    between atoms: C_8  and  C_9 
REMARK    7  A    between atoms: C_8  and  C_13 
REMARK    8  A    between atoms: C_8  and  N_15 
REMARK       I    between atoms: C_9  and  N_10 
REMARK    9  A    between atoms: C_16  and  C_17 
ROOT
HETATM    1  O           1     -31.587  -3.491 -17.309  0.00  0.00    -0.271 OA
HETATM    2  C           1     -32.291  -4.367 -16.867  0.00  0.00     0.249 C 
HETATM    3  N           1     -31.805  -5.642 -16.751  0.00  0.00    -0.345 N 
HETATM    4  H           1     -32.395  -6.377 -16.381  0.00  0.00     0.163 HD
ENDROOT
BRANCH   2   5
HETATM    5  C           1     -33.706  -4.058 -16.443  0.00  0.00     0.275 C 
BRANCH   5   6
HETATM    6  C           1     -34.102  -2.682 -16.960  0.00  0.00     0.053 C 
BRANCH   6   7
HETATM    7  C           1     -35.473  -2.307 -16.411  0.00  0.00     0.115 C 
BRANCH   7   8
HETATM    8  C           1     -35.520  -0.822 -16.147  0.00  0.00     0.172 C 
HETATM    9  O           1     -34.709  -0.303 -15.349  0.00  0.00    -0.648 OA
HETATM   10  O           1     -36.368  -0.111 -16.727  0.00  0.00    -0.648 OA
ENDBRANCH   7   8
ENDBRANCH   6   7
ENDBRANCH   5   6
BRANCH   5  11
HETATM   11  N           1     -33.792  -4.072 -14.945  0.00  0.00    -0.066 N 
HETATM   12  H           1     -34.681  -3.613 -14.643  0.00  0.00     0.275 HD
HETATM   13  H           1     -33.778  -5.060 -14.605  0.00  0.00     0.275 HD
HETATM   14  H           1     -32.979  -3.552 -14.545  0.00  0.00     0.275 HD
ENDBRANCH   5  11
ENDBRANCH   2   5
BRANCH   3  15
HETATM   15  C           1     -30.446  -5.940 -17.158  0.00  0.00     0.185 C 
BRANCH  15  16
HETATM   16  C           1     -30.390  -7.330 -17.743  0.00  0.00     0.196 C 
HETATM   17  O           1     -31.082  -7.615 -18.744  0.00  0.00    -0.646 OA
HETATM   18  O           1     -29.650  -8.196 -17.228  0.00  0.00    -0.646 OA
ENDBRANCH  15  16
BRANCH  15  19
HETATM   19  C           1     -29.525  -5.861 -15.948  0.00  0.00     0.040 C 
BRANCH  19  20
HETATM   20  C           1     -28.300  -5.025 -16.293  0.00  0.00    -0.020 C 
HETATM   21  C           1     -27.087  -5.935 -16.432  0.00  0.00     0.009 C 
HETATM   22  C           1     -28.539  -4.293 -17.607  0.00  0.00     0.009 C 
ENDBRANCH  19  20
ENDBRANCH  15  19
ENDBRANCH   3  15
TORSDOF 9
ENDMDL
MODEL 6
REMARK VINA RESULT:      -5.7     24.412     26.549
REMARK  9 active torsions:
REMARK  status: ('A' for Active; 'I' for Inactive)
REMARK    1  A    between atoms: C_1  and  C_7 
REMARK    2  A    between atoms: C_5  and  C_13 
REMARK    3  A    between atoms: C_5  and  C_6 
REMARK    4  A    between atoms: C_7  and  C_17 
REMARK    5  A    between atoms: C_7  and  N_10 
REMARK    6  A    between atoms: C_8  and  C_9 
REMARK    7  A    between atoms: C_8  and  C_13 
REMARK    8  A    between atoms: C_8  and  N_15 
REMARK       I    between atoms: C_9  and  N_10 
REMARK    9  A    between atoms: C_16  and  C_17 
ROOT
HETATM    1  O           1     -10.910   3.470 -22.010  0.00  0.00    -0.271 OA
HETATM    2  C           1     -11.648   4.423 -22.080  0.00  0.00     0.249 C 
HETATM    3  N           1     -11.334   5.581 -21.421  0.00  0.00    -0.345 N 
HETATM    4  H           1     -11.952   6.381 -21.480  0.00  0.00     0.163 HD
ENDROOT
BRANCH   2   5
HETATM    5  C           1     -12.916   4.339 -22.895  0.00  0.00     0.275 C 
BRANCH   5   6
HETATM    6  C           1     -13.842   5.485 -22.512  0.00  0.00     0.053 C 
BRANCH   6   7
HETATM    7  C           1     -14.957   4.960 -21.615  0.00  0.00     0.115 C 
BRANCH   7   8
HETATM    8  C           1     -14.791   5.523 -20.225  0.00  0.00     0.172 C 
HETATM    9  O           1     -13.852   6.310 -19.977  0.00  0.00    -0.648 OA
HETATM   10  O           1     -15.594   5.203 -19.322  0.00  0.00    -0.648 OA
ENDBRANCH   7   8
ENDBRANCH   6   7
ENDBRANCH   5   6
BRANCH   5  11
HETATM   11  N           1     -13.598   3.032 -22.620  0.00  0.00    -0.066 N 
HETATM   12  H           1     -13.038   2.484 -21.929  0.00  0.00     0.275 HD
HETATM   13  H           1     -14.551   3.212 -22.230  0.00  0.00     0.275 HD
HETATM   14  H           1     -13.681   2.489 -23.509  0.00  0.00     0.275 HD
ENDBRANCH   5  11
ENDBRANCH   2   5
BRANCH   3  15
HETATM   15  C           1     -10.116   5.663 -20.639  0.00  0.00     0.185 C 
BRANCH  15  16
HETATM   16  C           1     -10.446   5.499 -19.176  0.00  0.00     0.196 C 
HETATM   17  O           1      -9.611   5.826 -18.306  0.00  0.00    -0.646 OA
HETATM   18  O           1     -11.556   5.038 -18.834  0.00  0.00    -0.646 OA
ENDBRANCH  15  16
BRANCH  15  19
HETATM   19  C           1      -9.460   7.019 -20.862  0.00  0.00     0.040 C 
BRANCH  19  20
HETATM   20  C           1     -10.530   8.101 -20.910  0.00  0.00    -0.020 C 
HETATM   21  C           1     -10.377   9.020 -19.705  0.00  0.00     0.009 C 
HETATM   22  C           1     -10.375   8.912 -22.189  0.00  0.00     0.009 C 
ENDBRANCH  19  20
ENDBRANCH  15  19
ENDBRANCH   3  15
TORSDOF 9
ENDMDL
MODEL 7
REMARK VINA RESULT:      -5.6     15.381     18.024
REMARK  9 active torsions:
REMARK  status: ('A' for Active; 'I' for Inactive)
REMARK    1  A    between atoms: C_1  and  C_7 
REMARK    2  A    between atoms: C_5  and  C_13 
REMARK    3  A    between atoms: C_5  and  C_6 
REMARK    4  A    between atoms: C_7  and  C_17 
REMARK    5  A    between atoms: C_7  and  N_10 
REMARK    6  A    between atoms: C_8  and  C_9 
REMARK    7  A    between atoms: C_8  and  C_13 
REMARK    8  A    between atoms: C_8  and  N_15 
REMARK       I    between atoms: C_9  and  N_10 
REMARK    9  A    between atoms: C_16  and  C_17 
ROOT
HETATM    1  O           1     -22.382 -10.355  -3.450  0.00  0.00    -0.271 OA
HETATM    2  C           1     -21.430  -9.627  -3.307  0.00  0.00     0.249 C 
HETATM    3  N           1     -21.239  -8.973  -2.119  0.00  0.00    -0.345 N 
HETATM    4  H           1     -20.440  -8.363  -2.000  0.00  0.00     0.163 HD
ENDROOT
BRANCH   2   5
HETATM    5  C           1     -20.449  -9.437  -4.438  0.00  0.00     0.275 C 
BRANCH   5   6
HETATM    6  C           1     -20.103  -7.960  -4.568  0.00  0.00     0.053 C 
BRANCH   6   7
HETATM    7  C           1     -21.097  -7.285  -5.506  0.00  0.00     0.115 C 
BRANCH   7   8
HETATM    8  C           1     -22.021  -6.400  -4.707  0.00  0.00     0.172 C 
HETATM    9  O           1     -23.151  -6.108  -5.157  0.00  0.00    -0.648 OA
HETATM   10  O           1     -21.659  -5.960  -3.595  0.00  0.00    -0.648 OA
ENDBRANCH   7   8
ENDBRANCH   6   7
ENDBRANCH   5   6
BRANCH   5  11
HETATM   11  N           1     -21.063  -9.920  -5.718  0.00  0.00    -0.066 N 
HETATM   12  H           1     -20.602 -10.811  -6.011  0.00  0.00     0.275 HD
HETATM   13  H           1     -22.084 -10.089  -5.572  0.00  0.00     0.275 HD
HETATM   14  H           1     -20.931  -9.199  -6.462  0.00  0.00     0.275 HD
ENDBRANCH   5  11
ENDBRANCH   2   5
BRANCH   3  15
HETATM   15  C           1     -22.181  -9.156  -1.032  0.00  0.00     0.185 C 
BRANCH  15  16
HETATM   16  C           1     -22.301  -7.871  -0.250  0.00  0.00     0.196 C 
HETATM   17  O           1     -21.956  -7.836   0.951  0.00  0.00    -0.646 OA
HETATM   18  O           1     -22.742  -6.842  -0.804  0.00  0.00    -0.646 OA
ENDBRANCH  15  16
BRANCH  15  19
HETATM   19  C           1     -21.686 -10.265  -0.114  0.00  0.00     0.040 C 
BRANCH  19  20
HETATM   20  C           1     -22.582 -11.488  -0.263  0.00  0.00    -0.020 C 
HETATM   21  C           1     -22.282 -12.476   0.857  0.00  0.00     0.009 C 
HETATM   22  C           1     -24.041 -11.060  -0.185  0.00  0.00     0.009 C 
ENDBRANCH  19  20
ENDBRANCH  15  19
ENDBRANCH   3  15
TORSDOF 9
ENDMDL
MODEL 8
REMARK VINA RESULT:      -5.5     14.213     17.323
REMARK  9 active torsions:
REMARK  status: ('A' for Active; 'I' for Inactive)
REMARK    1  A    between atoms: C_1  and  C_7 
REMARK    2  A    between atoms: C_5  and  C_13 
REMARK    3  A    between atoms: C_5  and  C_6 
REMARK    4  A    between atoms: C_7  and  C_17 
REMARK    5  A    between atoms: C_7  and  N_10 
REMARK    6  A    between atoms: C_8  and  C_9 
REMARK    7  A    between atoms: C_8  and  C_13 
REMARK    8  A    between atoms: C_8  and  N_15 
REMARK       I    between atoms: C_9  and  N_10 
REMARK    9  A    between atoms: C_16  and  C_17 
ROOT
HETATM    1  O           1     -19.586  -8.054  -4.861  0.00  0.00    -0.271 OA
HETATM    2  C           1     -20.767  -7.821  -4.773  0.00  0.00     0.249 C 
HETATM    3  N           1     -21.488  -8.325  -3.724  0.00  0.00    -0.345 N 
HETATM    4  H           1     -22.479  -8.130  -3.650  0.00  0.00     0.163 HD
ENDROOT
BRANCH   2   5
HETATM    5  C           1     -21.450  -6.974  -5.820  0.00  0.00     0.275 C 
BRANCH   5   6
HETATM    6  C           1     -20.419  -6.092  -6.511  0.00  0.00     0.053 C 
BRANCH   6   7
HETATM    7  C           1     -20.868  -4.638  -6.444  0.00  0.00     0.115 C 
BRANCH   7   8
HETATM    8  C           1     -21.625  -4.286  -7.701  0.00  0.00     0.172 C 
HETATM    9  O           1     -21.003  -4.033  -8.756  0.00  0.00    -0.648 OA
HETATM   10  O           1     -22.874  -4.249  -7.689  0.00  0.00    -0.648 OA
ENDBRANCH   7   8
ENDBRANCH   6   7
ENDBRANCH   5   6
BRANCH   5  11
HETATM   11  N           1     -22.487  -6.111  -5.164  0.00  0.00    -0.066 N 
HETATM   12  H           1     -23.412  -6.596  -5.194  0.00  0.00     0.275 HD
HETATM   13  H           1     -22.217  -5.938  -4.170  0.00  0.00     0.275 HD
HETATM   14  H           1     -22.555  -5.201  -5.672  0.00  0.00     0.275 HD
ENDBRANCH   5  11
ENDBRANCH   2   5
BRANCH   3  15
HETATM   15  C           1     -20.833  -9.138  -2.718  0.00  0.00     0.185 C 
BRANCH  15  16
HETATM   16  C           1     -21.636 -10.395  -2.487  0.00  0.00     0.196 C 
HETATM   17  O           1     -21.335 -11.165  -1.549  0.00  0.00    -0.646 OA
HETATM   18  O           1     -22.603 -10.664  -3.231  0.00  0.00    -0.646 OA
ENDBRANCH  15  16
BRANCH  15  19
HETATM   19  C           1     -20.732  -8.353  -1.418  0.00  0.00     0.040 C 
BRANCH  19  20
HETATM   20  C           1     -22.112  -7.840  -1.025  0.00  0.00    -0.020 C 
HETATM   21  C           1     -22.339  -8.085   0.461  0.00  0.00     0.009 C 
HETATM   22  C           1     -22.199  -6.348  -1.313  0.00  0.00     0.009 C 
ENDBRANCH  19  20
ENDBRANCH  15  19
ENDBRANCH   3  15
TORSDOF 9
ENDMDL
MODEL 9
REMARK VINA RESULT:      -5.5     26.148     27.115
REMARK  9 active torsions:
REMARK  status: ('A' for Active; 'I' for Inactive)
REMARK    1  A    between atoms: C_1  and  C_7 
REMARK    2  A    between atoms: C_5  and  C_13 
REMARK    3  A    between atoms: C_5  and  C_6 
REMARK    4  A    between atoms: C_7  and  C_17 
REMARK    5  A    between atoms: C_7  and  N_10 
REMARK    6  A    between atoms: C_8  and  C_9 
REMARK    7  A    between atoms: C_8  and  C_13 
REMARK    8  A    between atoms: C_8  and  N_15 
REMARK       I    between atoms: C_9  and  N_10 
REMARK    9  A    between atoms: C_16  and  C_17 
ROOT
HETATM    1  O           1     -12.039   7.513 -22.007  0.00  0.00    -0.271 OA
HETATM    2  C           1     -12.249   6.919 -20.977  0.00  0.00     0.249 C 
HETATM    3  N           1     -12.243   7.594 -19.785  0.00  0.00    -0.345 N 
HETATM    4  H           1     -12.420   7.096 -18.922  0.00  0.00     0.163 HD
ENDROOT
BRANCH   2   5
HETATM    5  C           1     -12.517   5.434 -21.002  0.00  0.00     0.275 C 
BRANCH   5   6
HETATM    6  C           1     -11.219   4.689 -21.278  0.00  0.00     0.053 C 
BRANCH   6   7
HETATM    7  C           1     -10.578   4.278 -19.959  0.00  0.00     0.115 C 
BRANCH   7   8
HETATM    8  C           1      -9.777   5.432 -19.407  0.00  0.00     0.172 C 
HETATM    9  O           1      -8.917   5.993 -20.120  0.00  0.00    -0.648 OA
HETATM   10  O           1      -9.975   5.828 -18.239  0.00  0.00    -0.648 OA
ENDBRANCH   7   8
ENDBRANCH   6   7
ENDBRANCH   5   6
BRANCH   5  11
HETATM   11  N           1     -13.510   5.125 -22.083  0.00  0.00    -0.066 N 
HETATM   12  H           1     -14.191   4.411 -21.736  0.00  0.00     0.275 HD
HETATM   13  H           1     -14.024   5.997 -22.343  0.00  0.00     0.275 HD
HETATM   14  H           1     -13.010   4.751 -22.920  0.00  0.00     0.275 HD
ENDBRANCH   5  11
ENDBRANCH   2   5
BRANCH   3  15
HETATM   15  C           1     -11.986   9.020 -19.761  0.00  0.00     0.185 C 
BRANCH  15  16
HETATM   16  C           1     -10.538   9.263 -19.414  0.00  0.00     0.196 C 
HETATM   17  O           1      -9.745   9.668 -20.292  0.00  0.00    -0.646 OA
HETATM   18  O           1     -10.131   9.061 -18.250  0.00  0.00    -0.646 OA
ENDBRANCH  15  16
BRANCH  15  19
HETATM   19  C           1     -12.876   9.678 -18.715  0.00  0.00     0.040 C 
BRANCH  19  20
HETATM   20  C           1     -13.915  10.552 -19.406  0.00  0.00    -0.020 C 
HETATM   21  C           1     -14.552  11.485 -18.385  0.00  0.00     0.009 C 
HETATM   22  C           1     -13.241  11.375 -20.495  0.00  0.00     0.009 C 
ENDBRANCH  19  20
ENDBRANCH  15  19
ENDBRANCH   3  15
TORSDOF 9
ENDMDL
