MODEL 1
REMARK VINA RESULT:      -6.3      0.000      0.000
REMARK  5 active torsions:
REMARK  status: ('A' for Active; 'I' for Inactive)
REMARK    1  A    between atoms: C_2  and  C_13 
REMARK    2  A    between atoms: C_4  and  C_12 
REMARK    3  A    between atoms: C_12  and  C_13 
REMARK    4  A    between atoms: C_13  and  N_15 
REMARK       I    between atoms: N_15  and  C_16 
REMARK    5  A    between atoms: C_16  and  C_18 
ROOT
HETATM    1  C           1     -21.337  -7.147  -4.313  0.00  0.00     0.189 C 
ENDROOT
BRANCH   1   2
HETATM    2  C           1     -21.519  -6.859  -2.844  0.00  0.00     0.197 C 
HETATM    3  O           1     -22.343  -5.996  -2.473  0.00  0.00    -0.646 OA
HETATM    4  O           1     -20.845  -7.485  -1.997  0.00  0.00    -0.646 OA
ENDBRANCH   1   2
BRANCH   1   5
HETATM    5  C           1     -22.278  -6.267  -5.125  0.00  0.00     0.070 C 
BRANCH   5   6
HETATM    6  C           1     -21.491  -5.483  -6.128  0.00  0.00    -0.074 A 
HETATM    7  C           1     -22.151  -4.684  -7.062  0.00  0.00     0.024 A 
HETATM    8  C           1     -21.418  -3.955  -7.998  0.00  0.00    -0.022 A 
HETATM    9  C           1     -20.025  -4.022  -7.999  0.00  0.00    -0.004 A 
HETATM   10  C           1     -19.365  -4.821  -7.064  0.00  0.00     0.000 A 
HETATM   11  C           1     -20.098  -5.551  -6.129  0.00  0.00     0.003 A 
ENDBRANCH   5   6
ENDBRANCH   1   5
BRANCH   1  12
HETATM   12  N           1     -21.636  -8.542  -4.572  0.00  0.00    -0.344 N 
HETATM   13  C           1     -20.621  -9.426  -4.825  0.00  0.00     0.252 C 
HETATM   14  O           1     -20.871 -10.588  -5.040  0.00  0.00    -0.271 OA
HETATM   15  H           1     -22.596  -8.862  -4.568  0.00  0.00     0.163 HD
BRANCH  13  16
HETATM   16  C           1     -19.190  -8.948  -4.831  0.00  0.00     0.345 C 
HETATM   17  N           1     -18.613  -9.016  -3.491  0.00  0.00     0.097 N 
HETATM   18  C           1     -18.277 -10.423  -3.296  0.00  0.00     0.271 C 
HETATM   19  H           1     -17.764  -8.453  -3.435  0.00  0.00     0.317 HD
HETATM   20  C           1     -17.717 -10.853  -4.641  0.00  0.00     0.033 C 
HETATM   21  C           1     -18.313  -9.879  -5.650  0.00  0.00     0.048 C 
ENDBRANCH  13  16
ENDBRANCH   1  12
TORSDOF 5
ENDMDL
MODEL 2
REMARK VINA RESULT:      -6.2      2.091      5.813
REMARK  5 active torsions:
REMARK  status: ('A' for Active; 'I' for Inactive)
REMARK    1  A    between atoms: C_2  and  C_13 
REMARK    2  A    between atoms: C_4  and  C_12 
REMARK    3  A    between atoms: C_12  and  C_13 
REMARK    4  A    between atoms: C_13  and  N_15 
REMARK       I    between atoms: N_15  and  C_16 
REMARK    5  A    between atoms: C_16  and  C_18 
ROOT
HETATM    1  C           1     -20.234  -8.671  -4.160  0.00  0.00     0.189 C 
ENDROOT
BRANCH   1   2
HETATM    2  C           1     -20.469 -10.007  -4.821  0.00  0.00     0.197 C 
HETATM    3  O           1     -20.962 -10.059  -5.968  0.00  0.00    -0.646 OA
HETATM    4  O           1     -20.169 -11.062  -4.221  0.00  0.00    -0.646 OA
ENDBRANCH   1   2
BRANCH   1   5
HETATM    5  C           1     -19.768  -8.888  -2.726  0.00  0.00     0.070 C 
BRANCH   5   6
HETATM    6  C           1     -20.914  -8.673  -1.788  0.00  0.00    -0.074 A 
HETATM    7  C           1     -21.216  -7.386  -1.341  0.00  0.00     0.024 A 
HETATM    8  C           1     -22.283  -7.184  -0.466  0.00  0.00    -0.022 A 
HETATM    9  C           1     -23.050  -8.268  -0.039  0.00  0.00    -0.004 A 
HETATM   10  C           1     -22.748  -9.555  -0.487  0.00  0.00     0.000 A 
HETATM   11  C           1     -21.681  -9.757  -1.361  0.00  0.00     0.003 A 
ENDBRANCH   5   6
ENDBRANCH   1   5
BRANCH   1  12
HETATM   12  N           1     -21.470  -7.912  -4.155  0.00  0.00    -0.344 N 
HETATM   13  C           1     -21.559  -6.745  -4.866  0.00  0.00     0.252 C 
HETATM   14  O           1     -22.588  -6.112  -4.862  0.00  0.00    -0.271 OA
HETATM   15  H           1     -22.266  -8.244  -3.626  0.00  0.00     0.163 HD
BRANCH  13  16
HETATM   16  C           1     -20.372  -6.250  -5.655  0.00  0.00     0.345 C 
HETATM   17  N           1     -20.570  -6.472  -7.085  0.00  0.00     0.097 N 
HETATM   18  C           1     -21.464  -5.401  -7.513  0.00  0.00     0.271 C 
HETATM   19  H           1     -19.685  -6.397  -7.587  0.00  0.00     0.317 HD
HETATM   20  C           1     -20.960  -4.182  -6.758  0.00  0.00     0.033 C 
HETATM   21  C           1     -20.237  -4.741  -5.538  0.00  0.00     0.048 C 
ENDBRANCH  13  16
ENDBRANCH   1  12
TORSDOF 5
ENDMDL
MODEL 3
REMARK VINA RESULT:      -6.1      1.746      5.570
REMARK  5 active torsions:
REMARK  status: ('A' for Active; 'I' for Inactive)
REMARK    1  A    between atoms: C_2  and  C_13 
REMARK    2  A    between atoms: C_4  and  C_12 
REMARK    3  A    between atoms: C_12  and  C_13 
REMARK    4  A    between atoms: C_13  and  N_15 
REMARK       I    between atoms: N_15  and  C_16 
REMARK    5  A    between atoms: C_16  and  C_18 
ROOT
HETATM    1  C           1     -20.619  -9.002  -4.926  0.00  0.00     0.189 C 
ENDROOT
BRANCH   1   2
HETATM    2  C           1     -21.122 -10.391  -5.232  0.00  0.00     0.197 C 
HETATM    3  O           1     -21.678 -11.065  -4.339  0.00  0.00    -0.646 OA
HETATM    4  O           1     -20.983 -10.866  -6.380  0.00  0.00    -0.646 OA
ENDBRANCH   1   2
BRANCH   1   5
HETATM    5  C           1     -19.782  -9.033  -3.654  0.00  0.00     0.070 C 
BRANCH   5   6
HETATM    6  C           1     -18.359  -9.347  -3.997  0.00  0.00    -0.074 A 
HETATM    7  C           1     -17.991  -9.540  -5.329  0.00  0.00     0.024 A 
HETATM    8  C           1     -16.666  -9.834  -5.650  0.00  0.00    -0.022 A 
HETATM    9  C           1     -15.708  -9.932  -4.640  0.00  0.00    -0.004 A 
HETATM   10  C           1     -16.077  -9.738  -3.309  0.00  0.00     0.000 A 
HETATM   11  C           1     -17.402  -9.445  -2.988  0.00  0.00     0.003 A 
ENDBRANCH   5   6
ENDBRANCH   1   5
BRANCH   1  12
HETATM   12  N           1     -21.746  -8.110  -4.740  0.00  0.00    -0.344 N 
HETATM   13  C           1     -21.659  -6.803  -5.140  0.00  0.00     0.252 C 
HETATM   14  O           1     -22.599  -6.060  -4.985  0.00  0.00    -0.271 OA
HETATM   15  H           1     -22.598  -8.453  -4.315  0.00  0.00     0.163 HD
BRANCH  13  16
HETATM   16  C           1     -20.390  -6.292  -5.775  0.00  0.00     0.345 C 
HETATM   17  N           1     -20.445  -6.423  -7.228  0.00  0.00     0.097 N 
HETATM   18  C           1     -21.271  -5.306  -7.676  0.00  0.00     0.271 C 
HETATM   19  H           1     -19.513  -6.341  -7.634  0.00  0.00     0.317 HD
HETATM   20  C           1     -20.824  -4.148  -6.801  0.00  0.00     0.033 C 
HETATM   21  C           1     -20.238  -4.797  -5.552  0.00  0.00     0.048 C 
ENDBRANCH  13  16
ENDBRANCH   1  12
TORSDOF 5
ENDMDL
MODEL 4
REMARK VINA RESULT:      -6.1      2.837      5.340
REMARK  5 active torsions:
REMARK  status: ('A' for Active; 'I' for Inactive)
REMARK    1  A    between atoms: C_2  and  C_13 
REMARK    2  A    between atoms: C_4  and  C_12 
REMARK    3  A    between atoms: C_12  and  C_13 
REMARK    4  A    between atoms: C_13  and  N_15 
REMARK       I    between atoms: N_15  and  C_16 
REMARK    5  A    between atoms: C_16  and  C_18 
ROOT
HETATM    1  C           1     -20.748  -9.050  -4.045  0.00  0.00     0.189 C 
ENDROOT
BRANCH   1   2
HETATM    2  C           1     -21.362  -7.959  -4.885  0.00  0.00     0.197 C 
HETATM    3  O           1     -22.001  -7.034  -4.340  0.00  0.00    -0.646 OA
HETATM    4  O           1     -21.233  -7.981  -6.129  0.00  0.00    -0.646 OA
ENDBRANCH   1   2
BRANCH   1   5
HETATM    5  C           1     -19.928  -9.977  -4.933  0.00  0.00     0.070 C 
BRANCH   5   6
HETATM    6  C           1     -18.480  -9.864  -4.574  0.00  0.00    -0.074 A 
HETATM    7  C           1     -17.504  -9.994  -5.563  0.00  0.00     0.024 A 
HETATM    8  C           1     -16.154  -9.890  -5.229  0.00  0.00    -0.022 A 
HETATM    9  C           1     -15.779  -9.654  -3.907  0.00  0.00    -0.004 A 
HETATM   10  C           1     -16.755  -9.523  -2.918  0.00  0.00     0.000 A 
HETATM   11  C           1     -18.104  -9.628  -3.252  0.00  0.00     0.003 A 
ENDBRANCH   5   6
ENDBRANCH   1   5
BRANCH   1  12
HETATM   12  N           1     -21.799  -9.809  -3.395  0.00  0.00    -0.344 N 
HETATM   13  C           1     -21.947  -9.749  -2.035  0.00  0.00     0.252 C 
HETATM   14  O           1     -22.823 -10.381  -1.494  0.00  0.00    -0.271 OA
HETATM   15  H           1     -22.423 -10.384  -3.947  0.00  0.00     0.163 HD
BRANCH  13  16
HETATM   16  C           1     -21.017  -8.892  -1.212  0.00  0.00     0.345 C 
HETATM   17  N           1     -21.323  -7.475  -1.388  0.00  0.00     0.097 N 
HETATM   18  C           1     -22.493  -7.236  -0.550  0.00  0.00     0.271 C 
HETATM   19  H           1     -20.548  -6.896  -1.065  0.00  0.00     0.317 HD
HETATM   20  C           1     -22.212  -8.041   0.707  0.00  0.00     0.033 C 
HETATM   21  C           1     -21.235  -9.128   0.273  0.00  0.00     0.048 C 
ENDBRANCH  13  16
ENDBRANCH   1  12
TORSDOF 5
ENDMDL
MODEL 5
REMARK VINA RESULT:      -6.0      3.466      6.056
REMARK  5 active torsions:
REMARK  status: ('A' for Active; 'I' for Inactive)
REMARK    1  A    between atoms: C_2  and  C_13 
REMARK    2  A    between atoms: C_4  and  C_12 
REMARK    3  A    between atoms: C_12  and  C_13 
REMARK    4  A    between atoms: C_13  and  N_15 
REMARK       I    between atoms: N_15  and  C_16 
REMARK    5  A    between atoms: C_16  and  C_18 
ROOT
HETATM    1  C           1     -21.645  -7.843  -1.955  0.00  0.00     0.189 C 
ENDROOT
BRANCH   1   2
HETATM    2  C           1     -21.975  -6.407  -2.278  0.00  0.00     0.197 C 
HETATM    3  O           1     -22.325  -5.626  -1.368  0.00  0.00    -0.646 OA
HETATM    4  O           1     -21.899  -5.999  -3.457  0.00  0.00    -0.646 OA
ENDBRANCH   1   2
BRANCH   1   5
HETATM    5  C           1     -21.734  -8.059  -0.450  0.00  0.00     0.070 C 
BRANCH   5   6
HETATM    6  C           1     -22.136  -9.474  -0.170  0.00  0.00    -0.074 A 
HETATM    7  C           1     -21.195 -10.383   0.315  0.00  0.00     0.024 A 
HETATM    8  C           1     -21.568 -11.701   0.574  0.00  0.00    -0.022 A 
HETATM    9  C           1     -22.882 -12.111   0.350  0.00  0.00    -0.004 A 
HETATM   10  C           1     -23.823 -11.202  -0.135  0.00  0.00     0.000 A 
HETATM   11  C           1     -23.450  -9.884  -0.394  0.00  0.00     0.003 A 
ENDBRANCH   5   6
ENDBRANCH   1   5
BRANCH   1  12
HETATM   12  N           1     -20.300  -8.142  -2.406  0.00  0.00    -0.344 N 
HETATM   13  C           1     -20.107  -8.913  -3.522  0.00  0.00     0.252 C 
HETATM   14  O           1     -18.986  -9.162  -3.898  0.00  0.00    -0.271 OA
HETATM   15  H           1     -19.503  -7.782  -1.896  0.00  0.00     0.163 HD
BRANCH  13  16
HETATM   16  C           1     -21.294  -9.449  -4.282  0.00  0.00     0.345 C 
HETATM   17  N           1     -20.914  -9.829  -5.640  0.00  0.00     0.097 N 
HETATM   18  C           1     -20.257 -11.124  -5.499  0.00  0.00     0.271 C 
HETATM   19  H           1     -21.739  -9.929  -6.231  0.00  0.00     0.317 HD
HETATM   20  C           1     -21.100 -11.850  -4.465  0.00  0.00     0.033 C 
HETATM   21  C           1     -21.788 -10.748  -3.668  0.00  0.00     0.048 C 
ENDBRANCH  13  16
ENDBRANCH   1  12
TORSDOF 5
ENDMDL
MODEL 6
REMARK VINA RESULT:      -5.9      3.200      4.586
REMARK  5 active torsions:
REMARK  status: ('A' for Active; 'I' for Inactive)
REMARK    1  A    between atoms: C_2  and  C_13 
REMARK    2  A    between atoms: C_4  and  C_12 
REMARK    3  A    between atoms: C_12  and  C_13 
REMARK    4  A    between atoms: C_13  and  N_15 
REMARK       I    between atoms: N_15  and  C_16 
REMARK    5  A    between atoms: C_16  and  C_18 
ROOT
HETATM    1  C           1     -20.363  -9.639  -4.956  0.00  0.00     0.189 C 
ENDROOT
BRANCH   1   2
HETATM    2  C           1     -21.239 -10.738  -5.504  0.00  0.00     0.197 C 
HETATM    3  O           1     -21.140 -11.077  -6.703  0.00  0.00    -0.646 OA
HETATM    4  O           1     -22.064 -11.309  -4.759  0.00  0.00    -0.646 OA
ENDBRANCH   1   2
BRANCH   1   5
HETATM    5  C           1     -21.118  -8.317  -4.996  0.00  0.00     0.070 C 
BRANCH   5   6
HETATM    6  C           1     -21.421  -7.870  -3.600  0.00  0.00    -0.074 A 
HETATM    7  C           1     -21.231  -8.747  -2.531  0.00  0.00     0.024 A 
HETATM    8  C           1     -21.514  -8.332  -1.230  0.00  0.00    -0.022 A 
HETATM    9  C           1     -21.984  -7.040  -0.997  0.00  0.00    -0.004 A 
HETATM   10  C           1     -22.174  -6.163  -2.066  0.00  0.00     0.000 A 
HETATM   11  C           1     -21.891  -6.578  -3.367  0.00  0.00     0.003 A 
ENDBRANCH   5   6
ENDBRANCH   1   5
BRANCH   1  12
HETATM   12  N           1     -19.161  -9.533  -5.760  0.00  0.00    -0.344 N 
HETATM   13  C           1     -17.957  -9.940  -5.251  0.00  0.00     0.252 C 
HETATM   14  O           1     -16.956  -9.852  -5.922  0.00  0.00    -0.271 OA
HETATM   15  H           1     -19.213  -9.157  -6.699  0.00  0.00     0.163 HD
BRANCH  13  16
HETATM   16  C           1     -17.881 -10.501  -3.853  0.00  0.00     0.345 C 
HETATM   17  N           1     -16.844 -11.525  -3.759  0.00  0.00     0.097 N 
HETATM   18  C           1     -15.589 -10.785  -3.669  0.00  0.00     0.271 C 
HETATM   19  H           1     -16.968 -12.088  -2.917  0.00  0.00     0.317 HD
HETATM   20  C           1     -15.919  -9.620  -2.751  0.00  0.00     0.033 C 
HETATM   21  C           1     -17.428  -9.437  -2.868  0.00  0.00     0.048 C 
ENDBRANCH  13  16
ENDBRANCH   1  12
TORSDOF 5
ENDMDL
MODEL 7
REMARK VINA RESULT:      -5.8     18.459     19.833
REMARK  5 active torsions:
REMARK  status: ('A' for Active; 'I' for Inactive)
REMARK    1  A    between atoms: C_2  and  C_13 
REMARK    2  A    between atoms: C_4  and  C_12 
REMARK    3  A    between atoms: C_12  and  C_13 
REMARK    4  A    between atoms: C_13  and  N_15 
REMARK       I    between atoms: N_15  and  C_16 
REMARK    5  A    between atoms: C_16  and  C_18 
ROOT
HETATM    1  C           1     -16.029   8.632   5.196  0.00  0.00     0.189 C 
ENDROOT
BRANCH   1   2
HETATM    2  C           1     -15.623   9.468   6.384  0.00  0.00     0.197 C 
HETATM    3  O           1     -16.396  10.346   6.823  0.00  0.00    -0.646 OA
HETATM    4  O           1     -14.514   9.282   6.929  0.00  0.00    -0.646 OA
ENDBRANCH   1   2
BRANCH   1   5
HETATM    5  C           1     -14.829   7.832   4.703  0.00  0.00     0.070 C 
BRANCH   5   6
HETATM    6  C           1     -14.361   8.388   3.394  0.00  0.00    -0.074 A 
HETATM    7  C           1     -13.403   9.403   3.371  0.00  0.00     0.024 A 
HETATM    8  C           1     -12.967   9.922   2.152  0.00  0.00    -0.022 A 
HETATM    9  C           1     -13.487   9.426   0.957  0.00  0.00    -0.004 A 
HETATM   10  C           1     -14.445   8.412   0.980  0.00  0.00     0.000 A 
HETATM   11  C           1     -14.881   7.893   2.199  0.00  0.00     0.003 A 
ENDBRANCH   5   6
ENDBRANCH   1   5
BRANCH   1  12
HETATM   12  N           1     -16.500   9.499   4.134  0.00  0.00    -0.344 N 
HETATM   13  C           1     -17.834   9.545   3.828  0.00  0.00     0.252 C 
HETATM   14  O           1     -18.227  10.268   2.943  0.00  0.00    -0.271 OA
HETATM   15  H           1     -15.843  10.069   3.617  0.00  0.00     0.163 HD
BRANCH  13  16
HETATM   16  C           1     -18.814   8.695   4.598  0.00  0.00     0.345 C 
HETATM   17  N           1     -19.265   9.384   5.805  0.00  0.00     0.097 N 
HETATM   18  C           1     -20.263  10.342   5.341  0.00  0.00     0.271 C 
HETATM   19  H           1     -19.699   8.728   6.454  0.00  0.00     0.317 HD
HETATM   20  C           1     -21.043   9.574   4.287  0.00  0.00     0.033 C 
HETATM   21  C           1     -20.091   8.486   3.802  0.00  0.00     0.048 C 
ENDBRANCH  13  16
ENDBRANCH   1  12
TORSDOF 5
ENDMDL
MODEL 8
REMARK VINA RESULT:      -5.7      2.677      5.215
REMARK  5 active torsions:
REMARK  status: ('A' for Active; 'I' for Inactive)
REMARK    1  A    between atoms: C_2  and  C_13 
REMARK    2  A    between atoms: C_4  and  C_12 
REMARK    3  A    between atoms: C_12  and  C_13 
REMARK    4  A    between atoms: C_13  and  N_15 
REMARK       I    between atoms: N_15  and  C_16 
REMARK    5  A    between atoms: C_16  and  C_18 
ROOT
HETATM    1  C           1     -20.780  -8.210  -3.786  0.00  0.00     0.189 C 
ENDROOT
BRANCH   1   2
HETATM    2  C           1     -21.111  -7.273  -4.920  0.00  0.00     0.197 C 
HETATM    3  O           1     -21.215  -7.713  -6.085  0.00  0.00    -0.646 OA
HETATM    4  O           1     -21.282  -6.055  -4.695  0.00  0.00    -0.646 OA
ENDBRANCH   1   2
BRANCH   1   5
HETATM    5  C           1     -20.801  -7.444  -2.470  0.00  0.00     0.070 C 
BRANCH   5   6
HETATM    6  C           1     -21.724  -8.126  -1.508  0.00  0.00    -0.074 A 
HETATM    7  C           1     -22.305  -7.401  -0.467  0.00  0.00     0.024 A 
HETATM    8  C           1     -23.163  -8.036   0.430  0.00  0.00    -0.022 A 
HETATM    9  C           1     -23.443  -9.394   0.285  0.00  0.00    -0.004 A 
HETATM   10  C           1     -22.862 -10.119  -0.756  0.00  0.00     0.000 A 
HETATM   11  C           1     -22.003  -9.485  -1.653  0.00  0.00     0.003 A 
ENDBRANCH   5   6
ENDBRANCH   1   5
BRANCH   1  12
HETATM   12  N           1     -19.461  -8.774  -3.996  0.00  0.00    -0.344 N 
HETATM   13  C           1     -19.328 -10.066  -4.429  0.00  0.00     0.252 C 
HETATM   14  O           1     -18.229 -10.536  -4.603  0.00  0.00    -0.271 OA
HETATM   15  H           1     -18.637  -8.212  -3.822  0.00  0.00     0.163 HD
BRANCH  13  16
HETATM   16  C           1     -20.556 -10.904  -4.689  0.00  0.00     0.345 C 
HETATM   17  N           1     -20.899 -10.896  -6.108  0.00  0.00     0.097 N 
HETATM   18  C           1     -19.970 -11.836  -6.726  0.00  0.00     0.271 C 
HETATM   19  H           1     -21.856 -11.221  -6.250  0.00  0.00     0.317 HD
HETATM   20  C           1     -19.893 -12.980  -5.731  0.00  0.00     0.033 C 
HETATM   21  C           1     -20.284 -12.368  -4.390  0.00  0.00     0.048 C 
ENDBRANCH  13  16
ENDBRANCH   1  12
TORSDOF 5
ENDMDL
MODEL 9
REMARK VINA RESULT:      -5.5      3.556      5.294
REMARK  5 active torsions:
REMARK  status: ('A' for Active; 'I' for Inactive)
REMARK    1  A    between atoms: C_2  and  C_13 
REMARK    2  A    between atoms: C_4  and  C_12 
REMARK    3  A    between atoms: C_12  and  C_13 
REMARK    4  A    between atoms: C_13  and  N_15 
REMARK       I    between atoms: N_15  and  C_16 
REMARK    5  A    between atoms: C_16  and  C_18 
ROOT
HETATM    1  C           1     -19.721  -9.449  -3.704  0.00  0.00     0.189 C 
ENDROOT
BRANCH   1   2
HETATM    2  C           1     -20.411 -10.242  -4.785  0.00  0.00     0.197 C 
HETATM    3  O           1     -20.420 -11.491  -4.736  0.00  0.00    -0.646 OA
HETATM    4  O           1     -20.974  -9.650  -5.731  0.00  0.00    -0.646 OA
ENDBRANCH   1   2
BRANCH   1   5
HETATM    5  C           1     -20.460  -8.136  -3.484  0.00  0.00     0.070 C 
BRANCH   5   6
HETATM    6  C           1     -21.035  -8.111  -2.102  0.00  0.00    -0.074 A 
HETATM    7  C           1     -21.905  -7.085  -1.728  0.00  0.00     0.024 A 
HETATM    8  C           1     -22.439  -7.060  -0.440  0.00  0.00    -0.022 A 
HETATM    9  C           1     -22.107  -8.060   0.473  0.00  0.00    -0.004 A 
HETATM   10  C           1     -21.238  -9.086   0.099  0.00  0.00     0.000 A 
HETATM   11  C           1     -20.703  -9.111  -1.189  0.00  0.00     0.003 A 
ENDBRANCH   5   6
ENDBRANCH   1   5
BRANCH   1  12
HETATM   12  N           1     -18.355  -9.172  -4.105  0.00  0.00    -0.344 N 
HETATM   13  C           1     -17.315  -9.812  -3.486  0.00  0.00     0.252 C 
HETATM   14  O           1     -16.178  -9.582  -3.821  0.00  0.00    -0.271 OA
HETATM   15  H           1     -18.171  -8.505  -4.844  0.00  0.00     0.163 HD
BRANCH  13  16
HETATM   16  C           1     -17.590 -10.808  -2.386  0.00  0.00     0.345 C 
HETATM   17  N           1     -17.978 -12.102  -2.940  0.00  0.00     0.097 N 
HETATM   18  C           1     -16.725 -12.721  -3.362  0.00  0.00     0.271 C 
HETATM   19  H           1     -18.420 -12.682  -2.227  0.00  0.00     0.317 HD
HETATM   20  C           1     -15.752 -12.369  -2.250  0.00  0.00     0.033 C 
HETATM   21  C           1     -16.324 -11.113  -1.604  0.00  0.00     0.048 C 
ENDBRANCH  13  16
ENDBRANCH   1  12
TORSDOF 5
ENDMDL
