MODEL 1
REMARK VINA RESULT:      -7.2      0.000      0.000
REMARK  8 active torsions:
REMARK  status: ('A' for Active; 'I' for Inactive)
REMARK    1  A    between atoms: C_8  and  C_14 
REMARK    2  A    between atoms: C_8  and  C_12 
REMARK    3  A    between atoms: C_8  and  N_16 
REMARK    4  A    between atoms: C_12  and  C_26 
REMARK       I    between atoms: C_13  and  N_16 
REMARK    5  A    between atoms: C_13  and  C_22 
REMARK    6  A    between atoms: N_19  and  C_22 
REMARK    7  A    between atoms: S_20  and  C_21 
REMARK    8  A    between atoms: C_21  and  C_22 
ROOT
HETATM    1  C           1     -21.940  -6.729  -5.424  0.00  0.00     0.190 C 
ENDROOT
BRANCH   1   2
HETATM    2  C           1     -21.006  -7.895  -5.209  0.00  0.00     0.197 C 
HETATM    3  O           1     -19.776  -7.699  -5.100  0.00  0.00    -0.646 OA
HETATM    4  O           1     -21.461  -9.057  -5.139  0.00  0.00    -0.646 OA
ENDBRANCH   1   2
BRANCH   1   5
HETATM    5  C           1     -21.163  -5.557  -6.007  0.00  0.00     0.077 C 
BRANCH   5   6
HETATM    6  C           1     -21.955  -4.933  -7.114  0.00  0.00    -0.028 A 
HETATM    7  C           1     -21.485  -4.650  -8.426  0.00  0.00    -0.002 A 
HETATM    8  C           1     -20.255  -4.831  -9.086  0.00  0.00     0.014 A 
HETATM    9  C           1     -22.545  -4.074  -9.127  0.00  0.00     0.042 A 
HETATM   10  C           1     -20.128  -4.429 -10.421  0.00  0.00     0.001 A 
HETATM   11  C           1     -21.204  -3.856 -11.096  0.00  0.00     0.002 A 
HETATM   12  C           1     -22.435  -3.666 -10.461  0.00  0.00     0.030 A 
HETATM   13  N           1     -23.615  -4.013  -8.263  0.00  0.00    -0.365 N 
HETATM   14  H           1     -24.561  -3.624  -8.505  0.00  0.00     0.165 HD
HETATM   15  C           1     -23.270  -4.530  -7.042  0.00  0.00     0.096 A 
ENDBRANCH   5   6
ENDBRANCH   1   5
BRANCH   1  16
HETATM   16  N           1     -22.523  -6.339  -4.155  0.00  0.00    -0.344 N 
HETATM   17  H           1     -23.499  -6.079  -4.106  0.00  0.00     0.163 HD
HETATM   18  C           1     -21.752  -6.323  -3.024  0.00  0.00     0.249 C 
HETATM   19  O           1     -21.155  -5.320  -2.713  0.00  0.00    -0.271 OA
BRANCH  18  20
HETATM   20  C           1     -21.648  -7.560  -2.165  0.00  0.00     0.283 C 
BRANCH  20  21
HETATM   21  N           1     -20.202  -7.893  -1.945  0.00  0.00    -0.066 N 
HETATM   22  H           1     -20.110  -8.909  -1.715  0.00  0.00     0.275 HD
HETATM   23  H           1     -19.661  -7.683  -2.812  0.00  0.00     0.275 HD
HETATM   24  H           1     -19.829  -7.322  -1.153  0.00  0.00     0.275 HD
ENDBRANCH  20  21
BRANCH  20  25
HETATM   25  C           1     -22.320  -7.304  -0.822  0.00  0.00     0.113 C 
BRANCH  25  26
HETATM   26  S           1     -21.610  -8.408   0.432  0.00  0.00    -0.180 SA
HETATM   27  H           1     -22.768  -8.663   1.066  0.00  0.00     0.101 HD
ENDBRANCH  25  26
ENDBRANCH  20  25
ENDBRANCH  18  20
ENDBRANCH   1  16
TORSDOF 8
ENDMDL
MODEL 2
REMARK VINA RESULT:      -6.9      1.264      1.999
REMARK  8 active torsions:
REMARK  status: ('A' for Active; 'I' for Inactive)
REMARK    1  A    between atoms: C_8  and  C_14 
REMARK    2  A    between atoms: C_8  and  C_12 
REMARK    3  A    between atoms: C_8  and  N_16 
REMARK    4  A    between atoms: C_12  and  C_26 
REMARK       I    between atoms: C_13  and  N_16 
REMARK    5  A    between atoms: C_13  and  C_22 
REMARK    6  A    between atoms: N_19  and  C_22 
REMARK    7  A    between atoms: S_20  and  C_21 
REMARK    8  A    between atoms: C_21  and  C_22 
ROOT
HETATM    1  C           1     -21.712  -6.575  -5.231  0.00  0.00     0.190 C 
ENDROOT
BRANCH   1   2
HETATM    2  C           1     -20.871  -7.828  -5.272  0.00  0.00     0.197 C 
HETATM    3  O           1     -21.379  -8.909  -5.641  0.00  0.00    -0.646 OA
HETATM    4  O           1     -19.668  -7.784  -4.938  0.00  0.00    -0.646 OA
ENDBRANCH   1   2
BRANCH   1   5
HETATM    5  C           1     -20.804  -5.354  -5.207  0.00  0.00     0.077 C 
BRANCH   5   6
HETATM    6  C           1     -20.528  -4.907  -6.609  0.00  0.00    -0.028 A 
HETATM    7  C           1     -21.502  -4.535  -7.578  0.00  0.00    -0.002 A 
HETATM    8  C           1     -22.907  -4.456  -7.574  0.00  0.00     0.014 A 
HETATM    9  C           1     -20.813  -4.190  -8.741  0.00  0.00     0.042 A 
HETATM   10  C           1     -23.573  -4.038  -8.732  0.00  0.00     0.001 A 
HETATM   11  C           1     -22.859  -3.700  -9.880  0.00  0.00     0.002 A 
HETATM   12  C           1     -21.462  -3.770  -9.907  0.00  0.00     0.030 A 
HETATM   13  N           1     -19.471  -4.351  -8.479  0.00  0.00    -0.365 N 
HETATM   14  H           1     -18.699  -4.169  -9.167  0.00  0.00     0.165 HD
HETATM   15  C           1     -19.288  -4.786  -7.192  0.00  0.00     0.096 A 
ENDBRANCH   5   6
ENDBRANCH   1   5
BRANCH   1  16
HETATM   16  N           1     -22.537  -6.587  -4.039  0.00  0.00    -0.344 N 
HETATM   17  H           1     -23.545  -6.628  -4.121  0.00  0.00     0.163 HD
HETATM   18  C           1     -21.952  -6.544  -2.802  0.00  0.00     0.249 C 
HETATM   19  O           1     -21.735  -5.479  -2.274  0.00  0.00    -0.271 OA
BRANCH  18  20
HETATM   20  C           1     -21.580  -7.826  -2.098  0.00  0.00     0.283 C 
BRANCH  20  21
HETATM   21  N           1     -20.091  -7.885  -1.926  0.00  0.00    -0.066 N 
HETATM   22  H           1     -19.864  -8.093  -0.927  0.00  0.00     0.275 HD
HETATM   23  H           1     -19.701  -8.638  -2.535  0.00  0.00     0.275 HD
HETATM   24  H           1     -19.672  -6.966  -2.194  0.00  0.00     0.275 HD
ENDBRANCH  20  21
BRANCH  20  25
HETATM   25  C           1     -22.251  -7.869  -0.732  0.00  0.00     0.113 C 
BRANCH  25  26
HETATM   26  S           1     -22.755  -9.571  -0.357  0.00  0.00    -0.180 SA
HETATM   27  H           1     -23.140  -9.883  -1.607  0.00  0.00     0.101 HD
ENDBRANCH  25  26
ENDBRANCH  20  25
ENDBRANCH  18  20
ENDBRANCH   1  16
TORSDOF 8
ENDMDL
MODEL 3
REMARK VINA RESULT:      -6.7      3.210      6.971
REMARK  8 active torsions:
REMARK  status: ('A' for Active; 'I' for Inactive)
REMARK    1  A    between atoms: C_8  and  C_14 
REMARK    2  A    between atoms: C_8  and  C_12 
REMARK    3  A    between atoms: C_8  and  N_16 
REMARK    4  A    between atoms: C_12  and  C_26 
REMARK       I    between atoms: C_13  and  N_16 
REMARK    5  A    between atoms: C_13  and  C_22 
REMARK    6  A    between atoms: N_19  and  C_22 
REMARK    7  A    between atoms: S_20  and  C_21 
REMARK    8  A    between atoms: C_21  and  C_22 
ROOT
HETATM    1  C           1     -20.004  -7.412  -5.356  0.00  0.00     0.190 C 
ENDROOT
BRANCH   1   2
HETATM    2  C           1     -19.027  -8.562  -5.308  0.00  0.00     0.197 C 
HETATM    3  O           1     -18.784  -9.130  -4.221  0.00  0.00    -0.646 OA
HETATM    4  O           1     -18.463  -8.947  -6.354  0.00  0.00    -0.646 OA
ENDBRANCH   1   2
BRANCH   1   5
HETATM    5  C           1     -21.380  -7.895  -4.918  0.00  0.00     0.077 C 
BRANCH   5   6
HETATM    6  C           1     -21.706  -7.323  -3.573  0.00  0.00    -0.028 A 
HETATM    7  C           1     -21.804  -8.049  -2.353  0.00  0.00    -0.002 A 
HETATM    8  C           1     -21.649  -9.404  -2.005  0.00  0.00     0.014 A 
HETATM    9  C           1     -22.125  -7.131  -1.354  0.00  0.00     0.042 A 
HETATM   10  C           1     -21.821  -9.792  -0.671  0.00  0.00     0.001 A 
HETATM   11  C           1     -22.142  -8.854   0.307  0.00  0.00     0.002 A 
HETATM   12  C           1     -22.302  -7.502  -0.016  0.00  0.00     0.030 A 
HETATM   13  N           1     -22.217  -5.895  -1.953  0.00  0.00    -0.365 N 
HETATM   14  H           1     -22.448  -5.000  -1.454  0.00  0.00     0.165 HD
HETATM   15  C           1     -21.966  -6.000  -3.296  0.00  0.00     0.096 A 
ENDBRANCH   5   6
ENDBRANCH   1   5
BRANCH   1  16
HETATM   16  N           1     -20.080  -6.901  -6.710  0.00  0.00    -0.344 N 
HETATM   17  H           1     -20.076  -7.541  -7.494  0.00  0.00     0.163 HD
HETATM   18  C           1     -20.160  -5.552  -6.930  0.00  0.00     0.249 C 
HETATM   19  O           1     -19.151  -4.901  -7.065  0.00  0.00    -0.271 OA
BRANCH  18  20
HETATM   20  C           1     -21.509  -4.878  -7.003  0.00  0.00     0.283 C 
BRANCH  20  21
HETATM   21  N           1     -21.330  -3.393  -6.891  0.00  0.00    -0.066 N 
HETATM   22  H           1     -20.398  -3.124  -7.281  0.00  0.00     0.275 HD
HETATM   23  H           1     -22.085  -2.911  -7.428  0.00  0.00     0.275 HD
HETATM   24  H           1     -21.381  -3.110  -5.886  0.00  0.00     0.275 HD
ENDBRANCH  20  21
BRANCH  20  25
HETATM   25  C           1     -22.172  -5.211  -8.332  0.00  0.00     0.113 C 
BRANCH  25  26
HETATM   26  S           1     -21.563  -4.079  -9.614  0.00  0.00    -0.180 SA
HETATM   27  H           1     -21.137  -3.125  -8.769  0.00  0.00     0.101 HD
ENDBRANCH  25  26
ENDBRANCH  20  25
ENDBRANCH  18  20
ENDBRANCH   1  16
TORSDOF 8
ENDMDL
MODEL 4
REMARK VINA RESULT:      -6.7      2.812      3.955
REMARK  8 active torsions:
REMARK  status: ('A' for Active; 'I' for Inactive)
REMARK    1  A    between atoms: C_8  and  C_14 
REMARK    2  A    between atoms: C_8  and  C_12 
REMARK    3  A    between atoms: C_8  and  N_16 
REMARK    4  A    between atoms: C_12  and  C_26 
REMARK       I    between atoms: C_13  and  N_16 
REMARK    5  A    between atoms: C_13  and  C_22 
REMARK    6  A    between atoms: N_19  and  C_22 
REMARK    7  A    between atoms: S_20  and  C_21 
REMARK    8  A    between atoms: C_21  and  C_22 
ROOT
HETATM    1  C           1     -21.476  -7.351  -3.857  0.00  0.00     0.190 C 
ENDROOT
BRANCH   1   2
HETATM    2  C           1     -21.609  -6.842  -2.442  0.00  0.00     0.197 C 
HETATM    3  O           1     -22.386  -5.897  -2.188  0.00  0.00    -0.646 OA
HETATM    4  O           1     -20.942  -7.367  -1.524  0.00  0.00    -0.646 OA
ENDBRANCH   1   2
BRANCH   1   5
HETATM    5  C           1     -22.188  -6.399  -4.808  0.00  0.00     0.077 C 
BRANCH   5   6
HETATM    6  C           1     -21.307  -6.114  -5.984  0.00  0.00    -0.028 A 
HETATM    7  C           1     -21.635  -5.295  -7.100  0.00  0.00    -0.002 A 
HETATM    8  C           1     -22.767  -4.543  -7.464  0.00  0.00     0.014 A 
HETATM    9  C           1     -20.533  -5.306  -7.955  0.00  0.00     0.042 A 
HETATM   10  C           1     -22.759  -3.830  -8.669  0.00  0.00     0.001 A 
HETATM   11  C           1     -21.644  -3.859  -9.504  0.00  0.00     0.002 A 
HETATM   12  C           1     -20.507  -4.599  -9.163  0.00  0.00     0.030 A 
HETATM   13  N           1     -19.576  -6.105  -7.372  0.00  0.00    -0.365 N 
HETATM   14  H           1     -18.630  -6.308  -7.783  0.00  0.00     0.165 HD
HETATM   15  C           1     -20.034  -6.600  -6.179  0.00  0.00     0.096 A 
ENDBRANCH   5   6
ENDBRANCH   1   5
BRANCH   1  16
HETATM   16  N           1     -22.075  -8.667  -3.954  0.00  0.00    -0.344 N 
HETATM   17  H           1     -23.080  -8.773  -3.888  0.00  0.00     0.163 HD
HETATM   18  C           1     -21.283  -9.768  -4.135  0.00  0.00     0.249 C 
HETATM   19  O           1     -20.853 -10.367  -3.177  0.00  0.00    -0.271 OA
BRANCH  18  20
HETATM   20  C           1     -20.945 -10.235  -5.530  0.00  0.00     0.283 C 
BRANCH  20  21
HETATM   21  N           1     -19.466 -10.118  -5.750  0.00  0.00    -0.066 N 
HETATM   22  H           1     -18.959 -10.515  -4.927  0.00  0.00     0.275 HD
HETATM   23  H           1     -19.200 -10.646  -6.611  0.00  0.00     0.275 HD
HETATM   24  H           1     -19.210  -9.111  -5.865  0.00  0.00     0.275 HD
ENDBRANCH  20  21
BRANCH  20  25
HETATM   25  C           1     -21.370 -11.688  -5.696  0.00  0.00     0.113 C 
BRANCH  25  26
HETATM   26  S           1     -20.369 -12.467  -6.995  0.00  0.00    -0.180 SA
HETATM   27  H           1     -20.091 -11.332  -7.659  0.00  0.00     0.101 HD
ENDBRANCH  25  26
ENDBRANCH  20  25
ENDBRANCH  18  20
ENDBRANCH   1  16
TORSDOF 8
ENDMDL
MODEL 5
REMARK VINA RESULT:      -6.7      3.359      7.443
REMARK  8 active torsions:
REMARK  status: ('A' for Active; 'I' for Inactive)
REMARK    1  A    between atoms: C_8  and  C_14 
REMARK    2  A    between atoms: C_8  and  C_12 
REMARK    3  A    between atoms: C_8  and  N_16 
REMARK    4  A    between atoms: C_12  and  C_26 
REMARK       I    between atoms: C_13  and  N_16 
REMARK    5  A    between atoms: C_13  and  C_22 
REMARK    6  A    between atoms: N_19  and  C_22 
REMARK    7  A    between atoms: S_20  and  C_21 
REMARK    8  A    between atoms: C_21  and  C_22 
ROOT
HETATM    1  C           1     -21.195  -7.414  -5.511  0.00  0.00     0.190 C 
ENDROOT
BRANCH   1   2
HETATM    2  C           1     -21.987  -6.366  -4.767  0.00  0.00     0.197 C 
HETATM    3  O           1     -21.476  -5.772  -3.793  0.00  0.00    -0.646 OA
HETATM    4  O           1     -23.152  -6.091  -5.126  0.00  0.00    -0.646 OA
ENDBRANCH   1   2
BRANCH   1   5
HETATM    5  C           1     -20.340  -8.199  -4.527  0.00  0.00     0.077 C 
BRANCH   5   6
HETATM    6  C           1     -21.179  -9.240  -3.854  0.00  0.00    -0.028 A 
HETATM    7  C           1     -21.669  -9.190  -2.520  0.00  0.00    -0.002 A 
HETATM    8  C           1     -21.561  -8.257  -1.472  0.00  0.00     0.014 A 
HETATM    9  C           1     -22.400 -10.358  -2.306  0.00  0.00     0.042 A 
HETATM   10  C           1     -22.186  -8.526  -0.248  0.00  0.00     0.001 A 
HETATM   11  C           1     -22.910  -9.702  -0.063  0.00  0.00     0.002 A 
HETATM   12  C           1     -23.031 -10.644  -1.090  0.00  0.00     0.030 A 
HETATM   13  N           1     -22.349 -11.087  -3.474  0.00  0.00    -0.365 N 
HETATM   14  H           1     -22.808 -12.020  -3.620  0.00  0.00     0.165 HD
HETATM   15  C           1     -21.612 -10.419  -4.417  0.00  0.00     0.096 A 
ENDBRANCH   5   6
ENDBRANCH   1   5
BRANCH   1  16
HETATM   16  N           1     -20.339  -6.768  -6.487  0.00  0.00    -0.344 N 
HETATM   17  H           1     -19.591  -7.289  -6.928  0.00  0.00     0.163 HD
HETATM   18  C           1     -20.542  -5.454  -6.813  0.00  0.00     0.249 C 
HETATM   19  O           1     -19.980  -4.584  -6.192  0.00  0.00    -0.271 OA
BRANCH  18  20
HETATM   20  C           1     -21.469  -5.092  -7.948  0.00  0.00     0.283 C 
BRANCH  20  21
HETATM   21  N           1     -22.475  -4.087  -7.469  0.00  0.00    -0.066 N 
HETATM   22  H           1     -22.410  -3.998  -6.430  0.00  0.00     0.275 HD
HETATM   23  H           1     -22.278  -3.162  -7.911  0.00  0.00     0.275 HD
HETATM   24  H           1     -23.435  -4.403  -7.732  0.00  0.00     0.275 HD
ENDBRANCH  20  21
BRANCH  20  25
HETATM   25  C           1     -20.662  -4.497  -9.093  0.00  0.00     0.113 C 
BRANCH  25  26
HETATM   26  S           1     -21.777  -4.053 -10.455  0.00  0.00    -0.180 SA
HETATM   27  H           1     -22.888  -3.964  -9.704  0.00  0.00     0.101 HD
ENDBRANCH  25  26
ENDBRANCH  20  25
ENDBRANCH  18  20
ENDBRANCH   1  16
TORSDOF 8
ENDMDL
MODEL 6
REMARK VINA RESULT:      -6.6     14.736     16.986
REMARK  8 active torsions:
REMARK  status: ('A' for Active; 'I' for Inactive)
REMARK    1  A    between atoms: C_8  and  C_14 
REMARK    2  A    between atoms: C_8  and  C_12 
REMARK    3  A    between atoms: C_8  and  N_16 
REMARK    4  A    between atoms: C_12  and  C_26 
REMARK       I    between atoms: C_13  and  N_16 
REMARK    5  A    between atoms: C_13  and  C_22 
REMARK    6  A    between atoms: N_19  and  C_22 
REMARK    7  A    between atoms: S_20  and  C_21 
REMARK    8  A    between atoms: C_21  and  C_22 
ROOT
HETATM    1  C           1     -36.851  -0.438 -10.947  0.00  0.00     0.190 C 
ENDROOT
BRANCH   1   2
HETATM    2  C           1     -36.991   0.448  -9.734  0.00  0.00     0.197 C 
HETATM    3  O           1     -37.860   1.347  -9.714  0.00  0.00    -0.646 OA
HETATM    4  O           1     -36.241   0.282  -8.748  0.00  0.00    -0.646 OA
ENDBRANCH   1   2
BRANCH   1   5
HETATM    5  C           1     -35.433  -0.988 -11.014  0.00  0.00     0.077 C 
BRANCH   5   6
HETATM    6  C           1     -35.466  -2.477 -10.864  0.00  0.00    -0.028 A 
HETATM    7  C           1     -34.400  -3.374 -11.153  0.00  0.00    -0.002 A 
HETATM    8  C           1     -33.084  -3.211 -11.625  0.00  0.00     0.014 A 
HETATM    9  C           1     -34.859  -4.661 -10.874  0.00  0.00     0.042 A 
HETATM   10  C           1     -32.275  -4.340 -11.803  0.00  0.00     0.001 A 
HETATM   11  C           1     -32.760  -5.614 -11.516  0.00  0.00     0.002 A 
HETATM   12  C           1     -34.064  -5.801 -11.046  0.00  0.00     0.030 A 
HETATM   13  N           1     -36.158  -4.541 -10.433  0.00  0.00    -0.365 N 
HETATM   14  H           1     -36.772  -5.344 -10.147  0.00  0.00     0.165 HD
HETATM   15  C           1     -36.535  -3.224 -10.424  0.00  0.00     0.096 A 
ENDBRANCH   5   6
ENDBRANCH   1   5
BRANCH   1  16
HETATM   16  N           1     -37.125   0.335 -12.143  0.00  0.00    -0.344 N 
HETATM   17  H           1     -37.420   1.300 -12.065  0.00  0.00     0.163 HD
HETATM   18  C           1     -36.986  -0.241 -13.377  0.00  0.00     0.249 C 
HETATM   19  O           1     -37.924  -0.802 -13.891  0.00  0.00    -0.271 OA
BRANCH  18  20
HETATM   20  C           1     -35.660  -0.174 -14.096  0.00  0.00     0.283 C 
BRANCH  20  21
HETATM   21  N           1     -35.074  -1.551 -14.188  0.00  0.00    -0.066 N 
HETATM   22  H           1     -35.808  -2.221 -14.511  0.00  0.00     0.275 HD
HETATM   23  H           1     -34.283  -1.546 -14.870  0.00  0.00     0.275 HD
HETATM   24  H           1     -34.723  -1.844 -13.249  0.00  0.00     0.275 HD
ENDBRANCH  20  21
BRANCH  20  25
HETATM   25  C           1     -35.870   0.384 -15.497  0.00  0.00     0.113 C 
BRANCH  25  26
HETATM   26  S           1     -35.811  -0.970 -16.704  0.00  0.00    -0.180 SA
HETATM   27  H           1     -35.952  -0.194 -17.793  0.00  0.00     0.101 HD
ENDBRANCH  25  26
ENDBRANCH  20  25
ENDBRANCH  18  20
ENDBRANCH   1  16
TORSDOF 8
ENDMDL
MODEL 7
REMARK VINA RESULT:      -6.6     14.229     16.586
REMARK  8 active torsions:
REMARK  status: ('A' for Active; 'I' for Inactive)
REMARK    1  A    between atoms: C_8  and  C_14 
REMARK    2  A    between atoms: C_8  and  C_12 
REMARK    3  A    between atoms: C_8  and  N_16 
REMARK    4  A    between atoms: C_12  and  C_26 
REMARK       I    between atoms: C_13  and  N_16 
REMARK    5  A    between atoms: C_13  and  C_22 
REMARK    6  A    between atoms: N_19  and  C_22 
REMARK    7  A    between atoms: S_20  and  C_21 
REMARK    8  A    between atoms: C_21  and  C_22 
ROOT
HETATM    1  C           1     -35.408  -2.051 -11.669  0.00  0.00     0.190 C 
ENDROOT
BRANCH   1   2
HETATM    2  C           1     -36.403  -1.147 -10.983  0.00  0.00     0.197 C 
HETATM    3  O           1     -37.624  -1.264 -11.226  0.00  0.00    -0.646 OA
HETATM    4  O           1     -36.007  -0.284 -10.171  0.00  0.00    -0.646 OA
ENDBRANCH   1   2
BRANCH   1   5
HETATM    5  C           1     -34.235  -2.316 -10.736  0.00  0.00     0.077 C 
BRANCH   5   6
HETATM    6  C           1     -33.621  -3.641 -11.067  0.00  0.00    -0.028 A 
HETATM    7  C           1     -34.080  -4.913 -10.624  0.00  0.00    -0.002 A 
HETATM    8  C           1     -35.148  -5.341  -9.814  0.00  0.00     0.014 A 
HETATM    9  C           1     -33.222  -5.870 -11.165  0.00  0.00     0.042 A 
HETATM   10  C           1     -35.319  -6.709  -9.571  0.00  0.00     0.001 A 
HETATM   11  C           1     -34.446  -7.643 -10.124  0.00  0.00     0.002 A 
HETATM   12  C           1     -33.378  -7.242 -10.933  0.00  0.00     0.030 A 
HETATM   13  N           1     -32.279  -5.196 -11.907  0.00  0.00    -0.365 N 
HETATM   14  H           1     -31.493  -5.649 -12.436  0.00  0.00     0.165 HD
HETATM   15  C           1     -32.511  -3.846 -11.854  0.00  0.00     0.096 A 
ENDBRANCH   5   6
ENDBRANCH   1   5
BRANCH   1  16
HETATM   16  N           1     -34.928  -1.410 -12.877  0.00  0.00    -0.344 N 
HETATM   17  H           1     -34.118  -1.780 -13.359  0.00  0.00     0.163 HD
HETATM   18  C           1     -35.570  -0.305 -13.367  0.00  0.00     0.249 C 
HETATM   19  O           1     -35.231   0.798 -13.010  0.00  0.00    -0.271 OA
BRANCH  18  20
HETATM   20  C           1     -36.701  -0.464 -14.354  0.00  0.00     0.283 C 
BRANCH  20  21
HETATM   21  N           1     -37.887   0.325 -13.884  0.00  0.00    -0.066 N 
HETATM   22  H           1     -38.755  -0.244 -14.010  0.00  0.00     0.275 HD
HETATM   23  H           1     -37.769   0.561 -12.874  0.00  0.00     0.275 HD
HETATM   24  H           1     -37.963   1.205 -14.443  0.00  0.00     0.275 HD
ENDBRANCH  20  21
BRANCH  20  25
HETATM   25  C           1     -36.260   0.046 -15.719  0.00  0.00     0.113 C 
BRANCH  25  26
HETATM   26  S           1     -35.501  -1.310 -16.657  0.00  0.00    -0.180 SA
HETATM   27  H           1     -35.065  -1.996 -15.586  0.00  0.00     0.101 HD
ENDBRANCH  25  26
ENDBRANCH  20  25
ENDBRANCH  18  20
ENDBRANCH   1  16
TORSDOF 8
ENDMDL
MODEL 8
REMARK VINA RESULT:      -6.6     12.167     14.548
REMARK  8 active torsions:
REMARK  status: ('A' for Active; 'I' for Inactive)
REMARK    1  A    between atoms: C_8  and  C_14 
REMARK    2  A    between atoms: C_8  and  C_12 
REMARK    3  A    between atoms: C_8  and  N_16 
REMARK    4  A    between atoms: C_12  and  C_26 
REMARK       I    between atoms: C_13  and  N_16 
REMARK    5  A    between atoms: C_13  and  C_22 
REMARK    6  A    between atoms: N_19  and  C_22 
REMARK    7  A    between atoms: S_20  and  C_21 
REMARK    8  A    between atoms: C_21  and  C_22 
ROOT
HETATM    1  C           1     -25.891  -6.453 -17.222  0.00  0.00     0.190 C 
ENDROOT
BRANCH   1   2
HETATM    2  C           1     -26.073  -6.694 -15.743  0.00  0.00     0.197 C 
HETATM    3  O           1     -25.363  -6.080 -14.918  0.00  0.00    -0.646 OA
HETATM    4  O           1     -26.934  -7.507 -15.344  0.00  0.00    -0.646 OA
ENDBRANCH   1   2
BRANCH   1   5
HETATM    5  C           1     -27.209  -6.699 -17.943  0.00  0.00     0.077 C 
BRANCH   5   6
HETATM    6  C           1     -28.185  -5.623 -17.583  0.00  0.00    -0.028 A 
HETATM    7  C           1     -29.594  -5.776 -17.456  0.00  0.00    -0.002 A 
HETATM    8  C           1     -30.478  -6.862 -17.602  0.00  0.00     0.014 A 
HETATM    9  C           1     -30.113  -4.529 -17.108  0.00  0.00     0.042 A 
HETATM   10  C           1     -31.849  -6.661 -17.398  0.00  0.00     0.001 A 
HETATM   11  C           1     -32.340  -5.404 -17.052  0.00  0.00     0.002 A 
HETATM   12  C           1     -31.480  -4.311 -16.901  0.00  0.00     0.030 A 
HETATM   13  N           1     -29.051  -3.656 -17.031  0.00  0.00    -0.365 N 
HETATM   14  H           1     -29.128  -2.637 -16.789  0.00  0.00     0.165 HD
HETATM   15  C           1     -27.880  -4.308 -17.316  0.00  0.00     0.096 A 
ENDBRANCH   5   6
ENDBRANCH   1   5
BRANCH   1  16
HETATM   16  N           1     -24.882  -7.358 -17.737  0.00  0.00    -0.344 N 
HETATM   17  H           1     -24.675  -8.218 -17.245  0.00  0.00     0.163 HD
HETATM   18  C           1     -24.211  -7.050 -18.889  0.00  0.00     0.249 C 
HETATM   19  O           1     -23.183  -6.417 -18.839  0.00  0.00    -0.271 OA
BRANCH  18  20
HETATM   20  C           1     -24.755  -7.501 -20.224  0.00  0.00     0.283 C 
BRANCH  20  21
HETATM   21  N           1     -25.231  -6.307 -20.997  0.00  0.00    -0.066 N 
HETATM   22  H           1     -24.714  -5.457 -20.678  0.00  0.00     0.275 HD
HETATM   23  H           1     -25.054  -6.460 -22.015  0.00  0.00     0.275 HD
HETATM   24  H           1     -26.254  -6.173 -20.836  0.00  0.00     0.275 HD
ENDBRANCH  20  21
BRANCH  20  25
HETATM   25  C           1     -23.657  -8.208 -21.007  0.00  0.00     0.113 C 
BRANCH  25  26
HETATM   26  S           1     -23.818  -7.812 -22.770  0.00  0.00    -0.180 SA
HETATM   27  H           1     -24.391  -8.975 -23.125  0.00  0.00     0.101 HD
ENDBRANCH  25  26
ENDBRANCH  20  25
ENDBRANCH  18  20
ENDBRANCH   1  16
TORSDOF 8
ENDMDL
MODEL 9
REMARK VINA RESULT:      -6.5      4.712      8.191
REMARK  8 active torsions:
REMARK  status: ('A' for Active; 'I' for Inactive)
REMARK    1  A    between atoms: C_8  and  C_14 
REMARK    2  A    between atoms: C_8  and  C_12 
REMARK    3  A    between atoms: C_8  and  N_16 
REMARK    4  A    between atoms: C_12  and  C_26 
REMARK       I    between atoms: C_13  and  N_16 
REMARK    5  A    between atoms: C_13  and  C_22 
REMARK    6  A    between atoms: N_19  and  C_22 
REMARK    7  A    between atoms: S_20  and  C_21 
REMARK    8  A    between atoms: C_21  and  C_22 
ROOT
HETATM    1  C           1     -21.236  -7.868  -2.985  0.00  0.00     0.190 C 
ENDROOT
BRANCH   1   2
HETATM    2  C           1     -21.709  -6.435  -3.036  0.00  0.00     0.197 C 
HETATM    3  O           1     -22.457  -5.992  -2.138  0.00  0.00    -0.646 OA
HETATM    4  O           1     -21.352  -5.692  -3.976  0.00  0.00    -0.646 OA
ENDBRANCH   1   2
BRANCH   1   5
HETATM    5  C           1     -20.525  -8.121  -1.663  0.00  0.00     0.077 C 
BRANCH   5   6
HETATM    6  C           1     -20.635  -9.571  -1.306  0.00  0.00    -0.028 A 
HETATM    7  C           1     -21.790 -10.223  -0.790  0.00  0.00    -0.002 A 
HETATM    8  C           1     -23.092  -9.799  -0.468  0.00  0.00     0.014 A 
HETATM    9  C           1     -21.453 -11.564  -0.600  0.00  0.00     0.042 A 
HETATM   10  C           1     -24.011 -10.728   0.034  0.00  0.00     0.001 A 
HETATM   11  C           1     -23.648 -12.061   0.214  0.00  0.00     0.002 A 
HETATM   12  C           1     -22.359 -12.506  -0.099  0.00  0.00     0.030 A 
HETATM   13  N           1     -20.141 -11.710  -0.988  0.00  0.00    -0.365 N 
HETATM   14  H           1     -19.603 -12.612  -0.959  0.00  0.00     0.165 HD
HETATM   15  C           1     -19.635 -10.510  -1.416  0.00  0.00     0.096 A 
ENDBRANCH   5   6
ENDBRANCH   1   5
BRANCH   1  16
HETATM   16  N           1     -20.318  -8.111  -4.080  0.00  0.00    -0.344 N 
HETATM   17  H           1     -19.383  -7.724  -4.053  0.00  0.00     0.163 HD
HETATM   18  C           1     -20.714  -8.866  -5.151  0.00  0.00     0.249 C 
HETATM   19  O           1     -21.234  -8.336  -6.105  0.00  0.00    -0.271 OA
BRANCH  18  20
HETATM   20  C           1     -20.504 -10.361  -5.141  0.00  0.00     0.283 C 
BRANCH  20  21
HETATM   21  N           1     -21.070 -10.952  -6.398  0.00  0.00    -0.066 N 
HETATM   22  H           1     -21.305 -11.957  -6.234  0.00  0.00     0.275 HD
HETATM   23  H           1     -21.934 -10.432  -6.668  0.00  0.00     0.275 HD
HETATM   24  H           1     -20.364 -10.880  -7.165  0.00  0.00     0.275 HD
ENDBRANCH  20  21
BRANCH  20  25
HETATM   25  C           1     -19.013 -10.663  -5.064  0.00  0.00     0.113 C 
BRANCH  25  26
HETATM   26  S           1     -18.509 -11.608  -6.529  0.00  0.00    -0.180 SA
HETATM   27  H           1     -18.811 -12.818  -6.027  0.00  0.00     0.101 HD
ENDBRANCH  25  26
ENDBRANCH  20  25
ENDBRANCH  18  20
ENDBRANCH   1  16
TORSDOF 8
ENDMDL
