MODEL 1
REMARK VINA RESULT:      -6.9      0.000      0.000
REMARK  9 active torsions:
REMARK  status: ('A' for Active; 'I' for Inactive)
REMARK    1  A    between atoms: C_2  and  C_9 
REMARK    2  A    between atoms: N_3  and  C_9 
REMARK       I    between atoms: N_3  and  C_4 
REMARK    3  A    between atoms: C_4  and  C_10 
REMARK    4  A    between atoms: S_5  and  C_11 
REMARK    5  A    between atoms: N_6  and  C_10 
REMARK    6  A    between atoms: C_9  and  C_20 
REMARK    7  A    between atoms: C_10  and  C_11 
REMARK    8  A    between atoms: C_12  and  C_20 
REMARK    9  A    between atoms: O_14  and  C_15 
ROOT
HETATM    1  C           1     -35.729  -1.223 -11.710  0.00  0.00     0.189 C 
ENDROOT
BRANCH   1   2
HETATM    2  C           1     -36.470  -0.485 -10.622  0.00  0.00     0.197 C 
HETATM    3  O           1     -37.478   0.197 -10.905  0.00  0.00    -0.646 OA
HETATM    4  O           1     -36.074  -0.556  -9.438  0.00  0.00    -0.646 OA
ENDBRANCH   1   2
BRANCH   1   5
HETATM    5  N           1     -35.715  -0.419 -12.916  0.00  0.00    -0.344 N 
HETATM    6  C           1     -35.379  -0.989 -14.115  0.00  0.00     0.249 C 
HETATM    7  O           1     -35.093  -2.160 -14.167  0.00  0.00    -0.271 OA
HETATM    8  H           1     -35.954   0.565 -12.872  0.00  0.00     0.163 HD
BRANCH   6   9
HETATM    9  C           1     -35.365  -0.152 -15.371  0.00  0.00     0.283 C 
BRANCH   9  10
HETATM   10  N           1     -35.236  -1.048 -16.567  0.00  0.00    -0.066 N 
HETATM   11  H           1     -36.173  -1.174 -17.012  0.00  0.00     0.275 HD
HETATM   12  H           1     -34.578  -0.617 -17.255  0.00  0.00     0.275 HD
HETATM   13  H           1     -34.866  -1.979 -16.265  0.00  0.00     0.275 HD
ENDBRANCH   9  10
BRANCH   9  14
HETATM   14  C           1     -36.663   0.640 -15.468  0.00  0.00     0.113 C 
BRANCH  14  15
HETATM   15  S           1     -38.020  -0.476 -15.921  0.00  0.00    -0.180 SA
HETATM   16  H           1     -38.380  -0.778 -14.659  0.00  0.00     0.101 HD
ENDBRANCH  14  15
ENDBRANCH   9  14
ENDBRANCH   6   9
ENDBRANCH   1   5
BRANCH   1  17
HETATM   17  C           1     -34.297  -1.487 -11.261  0.00  0.00     0.074 C 
BRANCH  17  18
HETATM   18  C           1     -34.061  -2.964 -11.187  0.00  0.00    -0.056 A 
HETATM   19  C           1     -35.041  -3.800 -10.650  0.00  0.00     0.010 A 
HETATM   20  C           1     -34.821  -5.176 -10.581  0.00  0.00     0.037 A 
HETATM   21  C           1     -33.621  -5.715 -11.047  0.00  0.00     0.065 A 
HETATM   22  C           1     -32.643  -4.878 -11.583  0.00  0.00     0.037 A 
HETATM   23  C           1     -32.863  -3.503 -11.653  0.00  0.00     0.010 A 
BRANCH  21  24
HETATM   24  O           1     -33.408  -7.052 -10.979  0.00  0.00    -0.361 OA
HETATM   25  H           1     -33.216  -7.278 -10.053  0.00  0.00     0.217 HD
ENDBRANCH  21  24
ENDBRANCH  17  18
ENDBRANCH   1  17
TORSDOF 9
ENDMDL
MODEL 2
REMARK VINA RESULT:      -6.7     13.797     16.323
REMARK  9 active torsions:
REMARK  status: ('A' for Active; 'I' for Inactive)
REMARK    1  A    between atoms: C_2  and  C_9 
REMARK    2  A    between atoms: N_3  and  C_9 
REMARK       I    between atoms: N_3  and  C_4 
REMARK    3  A    between atoms: C_4  and  C_10 
REMARK    4  A    between atoms: S_5  and  C_11 
REMARK    5  A    between atoms: N_6  and  C_10 
REMARK    6  A    between atoms: C_9  and  C_20 
REMARK    7  A    between atoms: C_10  and  C_11 
REMARK    8  A    between atoms: C_12  and  C_20 
REMARK    9  A    between atoms: O_14  and  C_15 
ROOT
HETATM    1  C           1     -21.055  -5.255  -6.657  0.00  0.00     0.189 C 
ENDROOT
BRANCH   1   2
HETATM    2  C           1     -19.656  -5.519  -7.154  0.00  0.00     0.197 C 
HETATM    3  O           1     -18.851  -4.573  -7.288  0.00  0.00    -0.646 OA
HETATM    4  O           1     -19.303  -6.686  -7.433  0.00  0.00    -0.646 OA
ENDBRANCH   1   2
BRANCH   1   5
HETATM    5  N           1     -21.050  -5.194  -5.209  0.00  0.00    -0.344 N 
HETATM    6  C           1     -21.287  -6.325  -4.475  0.00  0.00     0.249 C 
HETATM    7  O           1     -21.501  -7.373  -5.034  0.00  0.00    -0.271 OA
HETATM    8  H           1     -20.870  -4.314  -4.739  0.00  0.00     0.163 HD
BRANCH   6   9
HETATM    9  C           1     -21.281  -6.261  -2.967  0.00  0.00     0.283 C 
BRANCH   9  10
HETATM   10  N           1     -22.649  -5.889  -2.477  0.00  0.00    -0.066 N 
HETATM   11  H           1     -22.693  -6.009  -1.440  0.00  0.00     0.275 HD
HETATM   12  H           1     -22.847  -4.892  -2.721  0.00  0.00     0.275 HD
HETATM   13  H           1     -23.361  -6.508  -2.929  0.00  0.00     0.275 HD
ENDBRANCH   9  10
BRANCH   9  14
HETATM   14  C           1     -20.893  -7.622  -2.403  0.00  0.00     0.113 C 
BRANCH  14  15
HETATM   15  S           1     -21.778  -7.907  -0.845  0.00  0.00    -0.180 SA
HETATM   16  H           1     -23.004  -7.633  -1.329  0.00  0.00     0.101 HD
ENDBRANCH  14  15
ENDBRANCH   9  14
ENDBRANCH   6   9
ENDBRANCH   1   5
BRANCH   1  17
HETATM   17  C           1     -21.553  -3.929  -7.218  0.00  0.00     0.074 C 
BRANCH  17  18
HETATM   18  C           1     -22.107  -4.144  -8.593  0.00  0.00    -0.056 A 
HETATM   19  C           1     -23.475  -4.351  -8.769  0.00  0.00     0.010 A 
HETATM   20  C           1     -23.990  -4.551 -10.049  0.00  0.00     0.037 A 
HETATM   21  C           1     -23.137  -4.545 -11.153  0.00  0.00     0.065 A 
HETATM   22  C           1     -21.770  -4.338 -10.976  0.00  0.00     0.037 A 
HETATM   23  C           1     -21.254  -4.138  -9.696  0.00  0.00     0.010 A 
BRANCH  21  24
HETATM   24  O           1     -23.639  -4.740 -12.398  0.00  0.00    -0.361 OA
HETATM   25  H           1     -24.217  -5.521 -12.368  0.00  0.00     0.217 HD
ENDBRANCH  21  24
ENDBRANCH  17  18
ENDBRANCH   1  17
TORSDOF 9
ENDMDL
MODEL 3
REMARK VINA RESULT:      -6.5      9.297     11.307
REMARK  9 active torsions:
REMARK  status: ('A' for Active; 'I' for Inactive)
REMARK    1  A    between atoms: C_2  and  C_9 
REMARK    2  A    between atoms: N_3  and  C_9 
REMARK       I    between atoms: N_3  and  C_4 
REMARK    3  A    between atoms: C_4  and  C_10 
REMARK    4  A    between atoms: S_5  and  C_11 
REMARK    5  A    between atoms: N_6  and  C_10 
REMARK    6  A    between atoms: C_9  and  C_20 
REMARK    7  A    between atoms: C_10  and  C_11 
REMARK    8  A    between atoms: C_12  and  C_20 
REMARK    9  A    between atoms: O_14  and  C_15 
ROOT
HETATM    1  C           1     -27.293  -6.311 -17.131  0.00  0.00     0.189 C 
ENDROOT
BRANCH   1   2
HETATM    2  C           1     -27.210  -6.924 -15.755  0.00  0.00     0.197 C 
HETATM    3  O           1     -26.113  -7.332 -15.317  0.00  0.00    -0.646 OA
HETATM    4  O           1     -28.240  -7.024 -15.052  0.00  0.00    -0.646 OA
ENDBRANCH   1   2
BRANCH   1   5
HETATM    5  N           1     -26.120  -6.683 -17.896  0.00  0.00    -0.344 N 
HETATM    6  C           1     -26.102  -6.500 -19.253  0.00  0.00     0.249 C 
HETATM    7  O           1     -27.064  -6.031 -19.812  0.00  0.00    -0.271 OA
HETATM    8  H           1     -25.313  -7.077 -17.428  0.00  0.00     0.163 HD
BRANCH   6   9
HETATM    9  C           1     -24.880  -6.886 -20.051  0.00  0.00     0.283 C 
BRANCH   9  10
HETATM   10  N           1     -23.886  -7.555 -19.148  0.00  0.00    -0.066 N 
HETATM   11  H           1     -23.088  -7.918 -19.716  0.00  0.00     0.275 HD
HETATM   12  H           1     -23.529  -6.864 -18.450  0.00  0.00     0.275 HD
HETATM   13  H           1     -24.347  -8.349 -18.649  0.00  0.00     0.275 HD
ENDBRANCH   9  10
BRANCH   9  14
HETATM   14  C           1     -25.282  -7.847 -21.162  0.00  0.00     0.113 C 
BRANCH  14  15
HETATM   15  S           1     -23.918  -8.005 -22.348  0.00  0.00    -0.180 SA
HETATM   16  H           1     -24.648  -8.569 -23.328  0.00  0.00     0.101 HD
ENDBRANCH  14  15
ENDBRANCH   9  14
ENDBRANCH   6   9
ENDBRANCH   1   5
BRANCH   1  17
HETATM   17  C           1     -28.542  -6.819 -17.839  0.00  0.00     0.074 C 
BRANCH  17  18
HETATM   18  C           1     -29.645  -5.816 -17.689  0.00  0.00    -0.056 A 
HETATM   19  C           1     -29.414  -4.475 -17.996  0.00  0.00     0.010 A 
HETATM   20  C           1     -30.440  -3.542 -17.856  0.00  0.00     0.037 A 
HETATM   21  C           1     -31.698  -3.950 -17.410  0.00  0.00     0.065 A 
HETATM   22  C           1     -31.928  -5.291 -17.104  0.00  0.00     0.037 A 
HETATM   23  C           1     -30.901  -6.224 -17.243  0.00  0.00     0.010 A 
BRANCH  21  24
HETATM   24  O           1     -32.696  -3.042 -17.274  0.00  0.00    -0.361 OA
HETATM   25  H           1     -32.604  -2.624 -16.401  0.00  0.00     0.217 HD
ENDBRANCH  21  24
ENDBRANCH  17  18
ENDBRANCH   1  17
TORSDOF 9
ENDMDL
MODEL 4
REMARK VINA RESULT:      -6.3      9.038     10.887
REMARK  9 active torsions:
REMARK  status: ('A' for Active; 'I' for Inactive)
REMARK    1  A    between atoms: C_2  and  C_9 
REMARK    2  A    between atoms: N_3  and  C_9 
REMARK       I    between atoms: N_3  and  C_4 
REMARK    3  A    between atoms: C_4  and  C_10 
REMARK    4  A    between atoms: S_5  and  C_11 
REMARK    5  A    between atoms: N_6  and  C_10 
REMARK    6  A    between atoms: C_9  and  C_20 
REMARK    7  A    between atoms: C_10  and  C_11 
REMARK    8  A    between atoms: C_12  and  C_20 
REMARK    9  A    between atoms: O_14  and  C_15 
ROOT
HETATM    1  C           1     -27.548  -6.440 -16.897  0.00  0.00     0.189 C 
ENDROOT
BRANCH   1   2
HETATM    2  C           1     -27.233  -7.212 -15.639  0.00  0.00     0.197 C 
HETATM    3  O           1     -26.045  -7.435 -15.324  0.00  0.00    -0.646 OA
HETATM    4  O           1     -28.162  -7.628 -14.913  0.00  0.00    -0.646 OA
ENDBRANCH   1   2
BRANCH   1   5
HETATM    5  N           1     -28.488  -5.380 -16.590  0.00  0.00    -0.344 N 
HETATM    6  C           1     -29.647  -5.263 -17.311  0.00  0.00     0.249 C 
HETATM    7  O           1     -29.885  -6.043 -18.202  0.00  0.00    -0.271 OA
HETATM    8  H           1     -28.289  -4.726 -15.843  0.00  0.00     0.163 HD
BRANCH   6   9
HETATM    9  C           1     -30.626  -4.160 -16.991  0.00  0.00     0.283 C 
BRANCH   9  10
HETATM   10  N           1     -30.621  -3.152 -18.102  0.00  0.00    -0.066 N 
HETATM   11  H           1     -29.697  -3.172 -18.589  0.00  0.00     0.275 HD
HETATM   12  H           1     -31.379  -3.382 -18.785  0.00  0.00     0.275 HD
HETATM   13  H           1     -30.785  -2.198 -17.707  0.00  0.00     0.275 HD
ENDBRANCH   9  10
BRANCH   9  14
HETATM   14  C           1     -32.023  -4.748 -16.845  0.00  0.00     0.113 C 
BRANCH  14  15
HETATM   15  S           1     -33.259  -3.469 -17.205  0.00  0.00    -0.180 SA
HETATM   16  H           1     -32.644  -2.484 -16.524  0.00  0.00     0.101 HD
ENDBRANCH  14  15
ENDBRANCH   9  14
ENDBRANCH   6   9
ENDBRANCH   1   5
BRANCH   1  17
HETATM   17  C           1     -26.267  -5.835 -17.457  0.00  0.00     0.074 C 
BRANCH  17  18
HETATM   18  C           1     -25.888  -6.547 -18.719  0.00  0.00    -0.056 A 
HETATM   19  C           1     -26.838  -6.744 -19.721  0.00  0.00     0.010 A 
HETATM   20  C           1     -26.485  -7.407 -20.896  0.00  0.00     0.037 A 
HETATM   21  C           1     -25.181  -7.874 -21.068  0.00  0.00     0.065 A 
HETATM   22  C           1     -24.232  -7.677 -20.066  0.00  0.00     0.037 A 
HETATM   23  C           1     -24.585  -7.014 -18.891  0.00  0.00     0.010 A 
BRANCH  21  24
HETATM   24  O           1     -24.838  -8.519 -22.210  0.00  0.00    -0.361 OA
HETATM   25  H           1     -24.506  -9.400 -21.969  0.00  0.00     0.217 HD
ENDBRANCH  21  24
ENDBRANCH  17  18
ENDBRANCH   1  17
TORSDOF 9
ENDMDL
MODEL 5
REMARK VINA RESULT:      -5.9      3.239      4.111
REMARK  9 active torsions:
REMARK  status: ('A' for Active; 'I' for Inactive)
REMARK    1  A    between atoms: C_2  and  C_9 
REMARK    2  A    between atoms: N_3  and  C_9 
REMARK       I    between atoms: N_3  and  C_4 
REMARK    3  A    between atoms: C_4  and  C_10 
REMARK    4  A    between atoms: S_5  and  C_11 
REMARK    5  A    between atoms: N_6  and  C_10 
REMARK    6  A    between atoms: C_9  and  C_20 
REMARK    7  A    between atoms: C_10  and  C_11 
REMARK    8  A    between atoms: C_12  and  C_20 
REMARK    9  A    between atoms: O_14  and  C_15 
ROOT
HETATM    1  C           1     -34.273  -3.791 -13.121  0.00  0.00     0.189 C 
ENDROOT
BRANCH   1   2
HETATM    2  C           1     -35.002  -2.477 -12.993  0.00  0.00     0.197 C 
HETATM    3  O           1     -35.758  -2.274 -12.019  0.00  0.00    -0.646 OA
HETATM    4  O           1     -34.850  -1.591 -13.862  0.00  0.00    -0.646 OA
ENDBRANCH   1   2
BRANCH   1   5
HETATM    5  N           1     -33.507  -3.800 -14.352  0.00  0.00    -0.344 N 
HETATM    6  C           1     -33.985  -4.463 -15.451  0.00  0.00     0.249 C 
HETATM    7  O           1     -35.043  -5.040 -15.395  0.00  0.00    -0.271 OA
HETATM    8  H           1     -32.619  -3.316 -14.399  0.00  0.00     0.163 HD
BRANCH   6   9
HETATM    9  C           1     -33.187  -4.472 -16.732  0.00  0.00     0.283 C 
BRANCH   9  10
HETATM   10  N           1     -33.333  -3.147 -17.421  0.00  0.00    -0.066 N 
HETATM   11  H           1     -33.340  -2.382 -16.708  0.00  0.00     0.275 HD
HETATM   12  H           1     -32.533  -3.005 -18.077  0.00  0.00     0.275 HD
HETATM   13  H           1     -34.231  -3.131 -17.956  0.00  0.00     0.275 HD
ENDBRANCH   9  10
BRANCH   9  14
HETATM   14  C           1     -31.718  -4.719 -16.414  0.00  0.00     0.113 C 
BRANCH  14  15
HETATM   15  S           1     -30.682  -3.754 -17.548  0.00  0.00    -0.180 SA
HETATM   16  H           1     -29.504  -4.221 -17.094  0.00  0.00     0.101 HD
ENDBRANCH  14  15
ENDBRANCH   9  14
ENDBRANCH   6   9
ENDBRANCH   1   5
BRANCH   1  17
HETATM   17  C           1     -33.332  -3.970 -11.937  0.00  0.00     0.074 C 
BRANCH  17  18
HETATM   18  C           1     -33.649  -5.255 -11.236  0.00  0.00    -0.056 A 
HETATM   19  C           1     -32.724  -6.299 -11.243  0.00  0.00     0.010 A 
HETATM   20  C           1     -33.019  -7.495 -10.590  0.00  0.00     0.037 A 
HETATM   21  C           1     -34.239  -7.647  -9.930  0.00  0.00     0.065 A 
HETATM   22  C           1     -35.163  -6.603  -9.923  0.00  0.00     0.037 A 
HETATM   23  C           1     -34.868  -5.406 -10.577  0.00  0.00     0.010 A 
BRANCH  21  24
HETATM   24  O           1     -34.525  -8.811  -9.295  0.00  0.00    -0.361 OA
HETATM   25  H           1     -35.451  -8.770  -9.000  0.00  0.00     0.217 HD
ENDBRANCH  21  24
ENDBRANCH  17  18
ENDBRANCH   1  17
TORSDOF 9
ENDMDL
MODEL 6
REMARK VINA RESULT:      -5.5     15.583     17.587
REMARK  9 active torsions:
REMARK  status: ('A' for Active; 'I' for Inactive)
REMARK    1  A    between atoms: C_2  and  C_9 
REMARK    2  A    between atoms: N_3  and  C_9 
REMARK       I    between atoms: N_3  and  C_4 
REMARK    3  A    between atoms: C_4  and  C_10 
REMARK    4  A    between atoms: S_5  and  C_11 
REMARK    5  A    between atoms: N_6  and  C_10 
REMARK    6  A    between atoms: C_9  and  C_20 
REMARK    7  A    between atoms: C_10  and  C_11 
REMARK    8  A    between atoms: C_12  and  C_20 
REMARK    9  A    between atoms: O_14  and  C_15 
ROOT
HETATM    1  C           1     -21.353  -7.077  -4.136  0.00  0.00     0.189 C 
ENDROOT
BRANCH   1   2
HETATM    2  C           1     -21.509  -6.798  -2.662  0.00  0.00     0.197 C 
HETATM    3  O           1     -20.825  -7.430  -1.830  0.00  0.00    -0.646 OA
HETATM    4  O           1     -22.325  -5.933  -2.274  0.00  0.00    -0.646 OA
ENDBRANCH   1   2
BRANCH   1   5
HETATM    5  N           1     -21.502  -8.499  -4.377  0.00  0.00    -0.344 N 
HETATM    6  C           1     -20.429  -9.238  -4.799  0.00  0.00     0.249 C 
HETATM    7  O           1     -19.359  -8.705  -4.971  0.00  0.00    -0.271 OA
HETATM    8  H           1     -22.399  -8.946  -4.232  0.00  0.00     0.163 HD
BRANCH   6   9
HETATM    9  C           1     -20.584 -10.718  -5.048  0.00  0.00     0.283 C 
BRANCH   9  10
HETATM   10  N           1     -21.200 -10.935  -6.399  0.00  0.00    -0.066 N 
HETATM   11  H           1     -22.147 -10.493  -6.426  0.00  0.00     0.275 HD
HETATM   12  H           1     -20.594 -10.503  -7.132  0.00  0.00     0.275 HD
HETATM   13  H           1     -21.291 -11.961  -6.580  0.00  0.00     0.275 HD
ENDBRANCH   9  10
BRANCH   9  14
HETATM   14  C           1     -19.216 -11.387  -5.001  0.00  0.00     0.113 C 
BRANCH  14  15
HETATM   15  S           1     -18.751 -11.933  -6.668  0.00  0.00    -0.180 SA
HETATM   16  H           1     -18.862 -13.251  -6.420  0.00  0.00     0.101 HD
ENDBRANCH  14  15
ENDBRANCH   9  14
ENDBRANCH   6   9
ENDBRANCH   1   5
BRANCH   1  17
HETATM   17  C           1     -22.419  -6.318  -4.914  0.00  0.00     0.074 C 
BRANCH  17  18
HETATM   18  C           1     -21.787  -5.619  -6.078  0.00  0.00    -0.056 A 
HETATM   19  C           1     -20.424  -5.778  -6.330  0.00  0.00     0.010 A 
HETATM   20  C           1     -19.836  -5.127  -7.414  0.00  0.00     0.037 A 
HETATM   21  C           1     -20.609  -4.316  -8.244  0.00  0.00     0.065 A 
HETATM   22  C           1     -21.972  -4.157  -7.992  0.00  0.00     0.037 A 
HETATM   23  C           1     -22.560  -4.808  -6.908  0.00  0.00     0.010 A 
BRANCH  21  24
HETATM   24  O           1     -20.036  -3.683  -9.298  0.00  0.00    -0.361 OA
HETATM   25  H           1     -20.445  -2.804  -9.377  0.00  0.00     0.217 HD
ENDBRANCH  21  24
ENDBRANCH  17  18
ENDBRANCH   1  17
TORSDOF 9
ENDMDL
MODEL 7
REMARK VINA RESULT:      -5.5      5.163      6.765
REMARK  9 active torsions:
REMARK  status: ('A' for Active; 'I' for Inactive)
REMARK    1  A    between atoms: C_2  and  C_9 
REMARK    2  A    between atoms: N_3  and  C_9 
REMARK       I    between atoms: N_3  and  C_4 
REMARK    3  A    between atoms: C_4  and  C_10 
REMARK    4  A    between atoms: S_5  and  C_11 
REMARK    5  A    between atoms: N_6  and  C_10 
REMARK    6  A    between atoms: C_9  and  C_20 
REMARK    7  A    between atoms: C_10  and  C_11 
REMARK    8  A    between atoms: C_12  and  C_20 
REMARK    9  A    between atoms: O_14  and  C_15 
ROOT
HETATM    1  C           1     -33.383  -3.835 -15.693  0.00  0.00     0.189 C 
ENDROOT
BRANCH   1   2
HETATM    2  C           1     -34.255  -2.820 -16.389  0.00  0.00     0.197 C 
HETATM    3  O           1     -35.236  -2.326 -15.793  0.00  0.00    -0.646 OA
HETATM    4  O           1     -33.997  -2.474 -17.562  0.00  0.00    -0.646 OA
ENDBRANCH   1   2
BRANCH   1   5
HETATM    5  N           1     -34.178  -4.585 -14.742  0.00  0.00    -0.344 N 
HETATM    6  C           1     -34.010  -4.383 -13.398  0.00  0.00     0.249 C 
HETATM    7  O           1     -33.198  -3.580 -13.006  0.00  0.00    -0.271 OA
HETATM    8  H           1     -34.859  -5.259 -15.070  0.00  0.00     0.163 HD
BRANCH   6   9
HETATM    9  C           1     -34.839  -5.163 -12.407  0.00  0.00     0.283 C 
BRANCH   9  10
HETATM   10  N           1     -35.228  -6.480 -13.011  0.00  0.00    -0.066 N 
HETATM   11  H           1     -36.032  -6.884 -12.478  0.00  0.00     0.275 HD
HETATM   12  H           1     -35.508  -6.338 -14.008  0.00  0.00     0.275 HD
HETATM   13  H           1     -34.416  -7.138 -12.966  0.00  0.00     0.275 HD
ENDBRANCH   9  10
BRANCH   9  14
HETATM   14  C           1     -34.024  -5.405 -11.143  0.00  0.00     0.113 C 
BRANCH  14  15
HETATM   15  S           1     -34.656  -6.876 -10.288  0.00  0.00    -0.180 SA
HETATM   16  H           1     -34.848  -7.611 -11.399  0.00  0.00     0.101 HD
ENDBRANCH  14  15
ENDBRANCH   9  14
ENDBRANCH   6   9
ENDBRANCH   1   5
BRANCH   1  17
HETATM   17  C           1     -32.792  -4.789 -16.723  0.00  0.00     0.074 C 
BRANCH  17  18
HETATM   18  C           1     -31.299  -4.668 -16.718  0.00  0.00    -0.056 A 
HETATM   19  C           1     -30.533  -5.516 -15.917  0.00  0.00     0.010 A 
HETATM   20  C           1     -29.144  -5.403 -15.913  0.00  0.00     0.037 A 
HETATM   21  C           1     -28.519  -4.442 -16.709  0.00  0.00     0.065 A 
HETATM   22  C           1     -29.285  -3.595 -17.509  0.00  0.00     0.037 A 
HETATM   23  C           1     -30.675  -3.708 -17.514  0.00  0.00     0.010 A 
BRANCH  21  24
HETATM   24  O           1     -27.168  -4.333 -16.704  0.00  0.00    -0.361 OA
HETATM   25  H           1     -26.888  -4.116 -15.799  0.00  0.00     0.217 HD
ENDBRANCH  21  24
ENDBRANCH  17  18
ENDBRANCH   1  17
TORSDOF 9
ENDMDL
MODEL 8
REMARK VINA RESULT:      -5.5     17.964     19.339
REMARK  9 active torsions:
REMARK  status: ('A' for Active; 'I' for Inactive)
REMARK    1  A    between atoms: C_2  and  C_9 
REMARK    2  A    between atoms: N_3  and  C_9 
REMARK       I    between atoms: N_3  and  C_4 
REMARK    3  A    between atoms: C_4  and  C_10 
REMARK    4  A    between atoms: S_5  and  C_11 
REMARK    5  A    between atoms: N_6  and  C_10 
REMARK    6  A    between atoms: C_9  and  C_20 
REMARK    7  A    between atoms: C_10  and  C_11 
REMARK    8  A    between atoms: C_12  and  C_20 
REMARK    9  A    between atoms: O_14  and  C_15 
ROOT
HETATM    1  C           1     -21.639  -8.047  -1.946  0.00  0.00     0.189 C 
ENDROOT
BRANCH   1   2
HETATM    2  C           1     -21.960  -6.586  -2.140  0.00  0.00     0.197 C 
HETATM    3  O           1     -22.347  -5.898  -1.172  0.00  0.00    -0.646 OA
HETATM    4  O           1     -21.838  -6.065  -3.270  0.00  0.00    -0.646 OA
ENDBRANCH   1   2
BRANCH   1   5
HETATM    5  N           1     -20.425  -8.375  -2.667  0.00  0.00    -0.344 N 
HETATM    6  C           1     -20.426  -9.394  -3.582  0.00  0.00     0.249 C 
HETATM    7  O           1     -21.438 -10.020  -3.787  0.00  0.00    -0.271 OA
HETATM    8  H           1     -19.576  -7.851  -2.495  0.00  0.00     0.163 HD
BRANCH   6   9
HETATM    9  C           1     -19.163  -9.735  -4.333  0.00  0.00     0.283 C 
BRANCH   9  10
HETATM   10  N           1     -19.117  -8.956  -5.614  0.00  0.00    -0.066 N 
HETATM   11  H           1     -18.563  -8.082  -5.471  0.00  0.00     0.275 HD
HETATM   12  H           1     -18.668  -9.535  -6.359  0.00  0.00     0.275 HD
HETATM   13  H           1     -20.091  -8.707  -5.904  0.00  0.00     0.275 HD
ENDBRANCH   9  10
BRANCH   9  14
HETATM   14  C           1     -17.952  -9.379  -3.479  0.00  0.00     0.113 C 
BRANCH  14  15
HETATM   15  S           1     -17.487 -10.808  -2.462  0.00  0.00    -0.180 SA
HETATM   16  H           1     -16.852 -11.477  -3.443  0.00  0.00     0.101 HD
ENDBRANCH  14  15
ENDBRANCH   9  14
ENDBRANCH   6   9
ENDBRANCH   1   5
BRANCH   1  17
HETATM   17  C           1     -21.440  -8.333  -0.463  0.00  0.00     0.074 C 
BRANCH  17  18
HETATM   18  C           1     -21.976  -9.693  -0.139  0.00  0.00    -0.056 A 
HETATM   19  C           1     -21.135 -10.662   0.407  0.00  0.00     0.010 A 
HETATM   20  C           1     -21.634 -11.929   0.709  0.00  0.00     0.037 A 
HETATM   21  C           1     -22.974 -12.227   0.463  0.00  0.00     0.065 A 
HETATM   22  C           1     -23.815 -11.257  -0.084  0.00  0.00     0.037 A 
HETATM   23  C           1     -23.316  -9.991  -0.385  0.00  0.00     0.010 A 
BRANCH  21  24
HETATM   24  O           1     -23.459 -13.459   0.756  0.00  0.00    -0.361 OA
HETATM   25  H           1     -24.359 -13.350   1.109  0.00  0.00     0.217 HD
ENDBRANCH  21  24
ENDBRANCH  17  18
ENDBRANCH   1  17
TORSDOF 9
ENDMDL
MODEL 9
REMARK VINA RESULT:      -5.5     17.151     18.740
REMARK  9 active torsions:
REMARK  status: ('A' for Active; 'I' for Inactive)
REMARK    1  A    between atoms: C_2  and  C_9 
REMARK    2  A    between atoms: N_3  and  C_9 
REMARK       I    between atoms: N_3  and  C_4 
REMARK    3  A    between atoms: C_4  and  C_10 
REMARK    4  A    between atoms: S_5  and  C_11 
REMARK    5  A    between atoms: N_6  and  C_10 
REMARK    6  A    between atoms: C_9  and  C_20 
REMARK    7  A    between atoms: C_10  and  C_11 
REMARK    8  A    between atoms: C_12  and  C_20 
REMARK    9  A    between atoms: O_14  and  C_15 
ROOT
HETATM    1  C           1     -21.892  -8.424  -1.362  0.00  0.00     0.189 C 
ENDROOT
BRANCH   1   2
HETATM    2  C           1     -22.549  -7.194  -0.786  0.00  0.00     0.197 C 
HETATM    3  O           1     -23.247  -7.284   0.246  0.00  0.00    -0.646 OA
HETATM    4  O           1     -22.395  -6.085  -1.343  0.00  0.00    -0.646 OA
ENDBRANCH   1   2
BRANCH   1   5
HETATM    5  N           1     -20.975  -8.034  -2.414  0.00  0.00    -0.344 N 
HETATM    6  C           1     -21.103  -8.571  -3.667  0.00  0.00     0.249 C 
HETATM    7  O           1     -21.978  -9.371  -3.895  0.00  0.00    -0.271 OA
HETATM    8  H           1     -20.241  -7.363  -2.224  0.00  0.00     0.163 HD
BRANCH   6   9
HETATM    9  C           1     -20.148  -8.165  -4.763  0.00  0.00     0.283 C 
BRANCH   9  10
HETATM   10  N           1     -19.629  -9.391  -5.454  0.00  0.00    -0.066 N 
HETATM   11  H           1     -18.629  -9.245  -5.720  0.00  0.00     0.275 HD
HETATM   12  H           1     -19.701 -10.211  -4.810  0.00  0.00     0.275 HD
HETATM   13  H           1     -20.194  -9.572  -6.315  0.00  0.00     0.275 HD
ENDBRANCH   9  10
BRANCH   9  14
HETATM   14  C           1     -20.877  -7.285  -5.771  0.00  0.00     0.113 C 
BRANCH  14  15
HETATM   15  S           1     -20.754  -5.549  -5.260  0.00  0.00    -0.180 SA
HETATM   16  H           1     -21.880  -5.539  -4.523  0.00  0.00     0.101 HD
ENDBRANCH  14  15
ENDBRANCH   9  14
ENDBRANCH   6   9
ENDBRANCH   1   5
BRANCH   1  17
HETATM   17  C           1     -21.125  -9.152  -0.266  0.00  0.00     0.074 C 
BRANCH  17  18
HETATM   18  C           1     -21.794 -10.460   0.028  0.00  0.00    -0.056 A 
HETATM   19  C           1     -21.104 -11.455   0.721  0.00  0.00     0.010 A 
HETATM   20  C           1     -21.726 -12.672   0.995  0.00  0.00     0.037 A 
HETATM   21  C           1     -23.038 -12.895   0.575  0.00  0.00     0.065 A 
HETATM   22  C           1     -23.727 -11.900  -0.118  0.00  0.00     0.037 A 
HETATM   23  C           1     -23.105 -10.682  -0.391  0.00  0.00     0.010 A 
BRANCH  21  24
HETATM   24  O           1     -23.643 -14.079   0.841  0.00  0.00    -0.361 OA
HETATM   25  H           1     -23.596 -14.230   1.800  0.00  0.00     0.217 HD
ENDBRANCH  21  24
ENDBRANCH  17  18
ENDBRANCH   1  17
TORSDOF 9
ENDMDL
