MODEL 1
REMARK VINA RESULT:      -5.6      0.000      0.000
REMARK  6 active torsions:
REMARK  status: ('A' for Active; 'I' for Inactive)
REMARK    1  A    between atoms: N_5  and  C_7 
REMARK       I    between atoms: N_5  and  C_16 
REMARK    2  A    between atoms: O_6  and  C_14 
REMARK    3  A    between atoms: C_7  and  C_14 
REMARK    4  A    between atoms: C_7  and  C_17 
REMARK    5  A    between atoms: C_8  and  C_16 
REMARK    6  A    between atoms: C_8  and  N_9 
ROOT
HETATM    1  N           1     -22.163  -4.781  -9.084  0.00  0.00    -0.343 N 
HETATM    2  O           1     -21.776  -3.408  -7.367  0.00  0.00    -0.272 OA
HETATM    3  H           1     -22.149  -5.727  -9.447  0.00  0.00     0.163 HD
HETATM    4  C           1     -21.759  -4.536  -7.799  0.00  0.00     0.243 C 
ENDROOT
BRANCH   1   5
HETATM    5  C           1     -22.610  -3.689  -9.925  0.00  0.00     0.214 C 
BRANCH   5   6
HETATM    6  C           1     -21.817  -3.694 -11.226  0.00  0.00     0.147 C 
HETATM    7  C           1     -20.438  -4.290 -10.977  0.00  0.00     0.042 C 
BRANCH   6   8
HETATM    8  O           1     -22.494  -4.465 -12.182  0.00  0.00    -0.393 OA
HETATM    9  H           1     -22.365  -5.369 -11.948  0.00  0.00     0.210 HD
ENDBRANCH   6   8
ENDBRANCH   5   6
BRANCH   5  10
HETATM   10  C           1     -24.078  -3.857 -10.229  0.00  0.00     0.199 C 
HETATM   11  O           1     -24.662  -4.919  -9.923  0.00  0.00    -0.646 OA
HETATM   12  O           1     -24.711  -2.934 -10.787  0.00  0.00    -0.646 OA
ENDBRANCH   5  10
ENDBRANCH   1   5
BRANCH   4  13
HETATM   13  C           1     -21.294  -5.674  -6.923  0.00  0.00     0.332 C 
BRANCH  13  14
HETATM   14  N           1     -19.973  -6.182  -7.422  0.00  0.00    -0.071 N 
HETATM   15  H           1     -19.543  -5.470  -8.055  0.00  0.00     0.274 HD
HETATM   16  H           1     -19.338  -6.354  -6.610  0.00  0.00     0.274 HD
HETATM   17  H           1     -20.119  -7.073  -7.948  0.00  0.00     0.274 HD
ENDBRANCH  13  14
ENDBRANCH   4  13
TORSDOF 6
ENDMDL
MODEL 2
REMARK VINA RESULT:      -5.3      8.136      9.202
REMARK  6 active torsions:
REMARK  status: ('A' for Active; 'I' for Inactive)
REMARK    1  A    between atoms: N_5  and  C_7 
REMARK       I    between atoms: N_5  and  C_16 
REMARK    2  A    between atoms: O_6  and  C_14 
REMARK    3  A    between atoms: C_7  and  C_14 
REMARK    4  A    between atoms: C_7  and  C_17 
REMARK    5  A    between atoms: C_8  and  C_16 
REMARK    6  A    between atoms: C_8  and  N_9 
ROOT
HETATM    1  N           1     -26.525  -6.879 -16.940  0.00  0.00    -0.343 N 
HETATM    2  O           1     -25.057  -5.724 -15.718  0.00  0.00    -0.272 OA
HETATM    3  H           1     -26.707  -7.682 -17.530  0.00  0.00     0.163 HD
HETATM    4  C           1     -25.274  -6.682 -16.421  0.00  0.00     0.243 C 
ENDROOT
BRANCH   1   5
HETATM    5  C           1     -27.590  -5.940 -16.646  0.00  0.00     0.214 C 
BRANCH   5   6
HETATM    6  C           1     -28.513  -5.826 -17.852  0.00  0.00     0.147 C 
HETATM    7  C           1     -27.744  -6.193 -19.115  0.00  0.00     0.042 C 
BRANCH   6   8
HETATM    8  O           1     -29.597  -6.700 -17.694  0.00  0.00    -0.393 OA
HETATM    9  H           1     -30.361  -6.167 -17.548  0.00  0.00     0.210 HD
ENDBRANCH   6   8
ENDBRANCH   5   6
BRANCH   5  10
HETATM   10  C           1     -28.375  -6.429 -15.454  0.00  0.00     0.199 C 
HETATM   11  O           1     -28.139  -7.556 -14.969  0.00  0.00    -0.646 OA
HETATM   12  O           1     -29.264  -5.706 -14.952  0.00  0.00    -0.646 OA
ENDBRANCH   5  10
ENDBRANCH   1   5
BRANCH   4  13
HETATM   13  C           1     -24.166  -7.660 -16.727  0.00  0.00     0.332 C 
BRANCH  13  14
HETATM   14  N           1     -23.489  -7.264 -18.006  0.00  0.00    -0.071 N 
HETATM   15  H           1     -23.861  -7.845 -18.791  0.00  0.00     0.274 HD
HETATM   16  H           1     -23.677  -6.255 -18.201  0.00  0.00     0.274 HD
HETATM   17  H           1     -22.459  -7.417 -17.917  0.00  0.00     0.274 HD
ENDBRANCH  13  14
ENDBRANCH   4  13
TORSDOF 6
ENDMDL
MODEL 3
REMARK VINA RESULT:      -5.2      9.105     10.513
REMARK  6 active torsions:
REMARK  status: ('A' for Active; 'I' for Inactive)
REMARK    1  A    between atoms: N_5  and  C_7 
REMARK       I    between atoms: N_5  and  C_16 
REMARK    2  A    between atoms: O_6  and  C_14 
REMARK    3  A    between atoms: C_7  and  C_14 
REMARK    4  A    between atoms: C_7  and  C_17 
REMARK    5  A    between atoms: C_8  and  C_16 
REMARK    6  A    between atoms: C_8  and  N_9 
ROOT
HETATM    1  N           1     -27.937  -6.631 -16.951  0.00  0.00    -0.343 N 
HETATM    2  O           1     -27.678  -7.699 -15.007  0.00  0.00    -0.272 OA
HETATM    3  H           1     -27.527  -6.051 -17.673  0.00  0.00     0.163 HD
HETATM    4  C           1     -27.189  -7.006 -15.868  0.00  0.00     0.243 C 
ENDROOT
BRANCH   1   5
HETATM    5  C           1     -29.317  -7.064 -17.066  0.00  0.00     0.214 C 
BRANCH   5   6
HETATM    6  C           1     -30.242  -5.886 -16.788  0.00  0.00     0.147 C 
HETATM    7  C           1     -29.914  -4.748 -17.745  0.00  0.00     0.042 C 
BRANCH   6   8
HETATM    8  O           1     -31.573  -6.285 -16.972  0.00  0.00    -0.393 OA
HETATM    9  H           1     -31.830  -6.752 -16.194  0.00  0.00     0.210 HD
ENDBRANCH   6   8
ENDBRANCH   5   6
BRANCH   5  10
HETATM   10  C           1     -29.566  -7.583 -18.461  0.00  0.00     0.199 C 
HETATM   11  O           1     -28.686  -7.462 -19.339  0.00  0.00    -0.646 OA
HETATM   12  O           1     -30.654  -8.133 -18.737  0.00  0.00    -0.646 OA
ENDBRANCH   5  10
ENDBRANCH   1   5
BRANCH   4  13
HETATM   13  C           1     -25.753  -6.556 -15.749  0.00  0.00     0.332 C 
BRANCH  13  14
HETATM   14  N           1     -24.879  -7.445 -16.584  0.00  0.00    -0.071 N 
HETATM   15  H           1     -25.473  -8.140 -17.090  0.00  0.00     0.274 HD
HETATM   16  H           1     -24.356  -6.864 -17.278  0.00  0.00     0.274 HD
HETATM   17  H           1     -24.203  -7.947 -15.968  0.00  0.00     0.274 HD
ENDBRANCH  13  14
ENDBRANCH   4  13
TORSDOF 6
ENDMDL
MODEL 4
REMARK VINA RESULT:      -5.1     11.488     13.241
REMARK  6 active torsions:
REMARK  status: ('A' for Active; 'I' for Inactive)
REMARK    1  A    between atoms: N_5  and  C_7 
REMARK       I    between atoms: N_5  and  C_16 
REMARK    2  A    between atoms: O_6  and  C_14 
REMARK    3  A    between atoms: C_7  and  C_14 
REMARK    4  A    between atoms: C_7  and  C_17 
REMARK    5  A    between atoms: C_8  and  C_16 
REMARK    6  A    between atoms: C_8  and  N_9 
ROOT
HETATM    1  N           1     -34.734  -2.193 -12.118  0.00  0.00    -0.343 N 
HETATM    2  O           1     -33.271  -1.692 -10.507  0.00  0.00    -0.272 OA
HETATM    3  H           1     -35.173  -2.907 -12.686  0.00  0.00     0.163 HD
HETATM    4  C           1     -33.795  -2.544 -11.185  0.00  0.00     0.243 C 
ENDROOT
BRANCH   1   5
HETATM    5  C           1     -35.100  -0.801 -12.291  0.00  0.00     0.214 C 
BRANCH   5   6
HETATM    6  C           1     -35.487  -0.556 -13.744  0.00  0.00     0.147 C 
HETATM    7  C           1     -34.787   0.698 -14.250  0.00  0.00     0.042 C 
BRANCH   6   8
HETATM    8  O           1     -35.098  -1.655 -14.522  0.00  0.00    -0.393 OA
HETATM    9  H           1     -34.774  -1.313 -15.339  0.00  0.00     0.210 HD
ENDBRANCH   6   8
ENDBRANCH   5   6
BRANCH   5  10
HETATM   10  C           1     -36.271  -0.475 -11.396  0.00  0.00     0.199 C 
HETATM   11  O           1     -36.145   0.375 -10.488  0.00  0.00    -0.646 OA
HETATM   12  O           1     -37.365  -1.055 -11.562  0.00  0.00    -0.646 OA
ENDBRANCH   5  10
ENDBRANCH   1   5
BRANCH   4  13
HETATM   13  C           1     -33.414  -3.993 -11.005  0.00  0.00     0.332 C 
BRANCH  13  14
HETATM   14  N           1     -32.619  -4.453 -12.191  0.00  0.00    -0.071 N 
HETATM   15  H           1     -31.867  -3.757 -12.397  0.00  0.00     0.274 HD
HETATM   16  H           1     -32.185  -5.380 -11.980  0.00  0.00     0.274 HD
HETATM   17  H           1     -33.248  -4.541 -13.020  0.00  0.00     0.274 HD
ENDBRANCH  13  14
ENDBRANCH   4  13
TORSDOF 6
ENDMDL
MODEL 5
REMARK VINA RESULT:      -5.1      9.027     10.449
REMARK  6 active torsions:
REMARK  status: ('A' for Active; 'I' for Inactive)
REMARK    1  A    between atoms: N_5  and  C_7 
REMARK       I    between atoms: N_5  and  C_16 
REMARK    2  A    between atoms: O_6  and  C_14 
REMARK    3  A    between atoms: C_7  and  C_14 
REMARK    4  A    between atoms: C_7  and  C_17 
REMARK    5  A    between atoms: C_8  and  C_16 
REMARK    6  A    between atoms: C_8  and  N_9 
ROOT
HETATM    1  N           1     -26.965  -6.383 -18.422  0.00  0.00    -0.343 N 
HETATM    2  O           1     -24.759  -6.584 -18.703  0.00  0.00    -0.272 OA
HETATM    3  H           1     -27.893  -6.486 -18.815  0.00  0.00     0.163 HD
HETATM    4  C           1     -25.866  -6.706 -19.172  0.00  0.00     0.243 C 
ENDROOT
BRANCH   1   5
HETATM    5  C           1     -26.801  -5.894 -17.067  0.00  0.00     0.214 C 
BRANCH   5   6
HETATM    6  C           1     -27.742  -4.719 -16.836  0.00  0.00     0.147 C 
HETATM    7  C           1     -28.873  -4.766 -17.854  0.00  0.00     0.042 C 
BRANCH   6   8
HETATM    8  O           1     -28.274  -4.794 -15.542  0.00  0.00    -0.393 OA
HETATM    9  H           1     -28.942  -5.458 -15.557  0.00  0.00     0.210 HD
ENDBRANCH   6   8
ENDBRANCH   5   6
BRANCH   5  10
HETATM   10  C           1     -27.127  -7.000 -16.092  0.00  0.00     0.199 C 
HETATM   11  O           1     -26.256  -7.403 -15.291  0.00  0.00    -0.646 OA
HETATM   12  O           1     -28.267  -7.512 -16.087  0.00  0.00    -0.646 OA
ENDBRANCH   5  10
ENDBRANCH   1   5
BRANCH   4  13
HETATM   13  C           1     -26.036  -7.215 -20.582  0.00  0.00     0.332 C 
BRANCH  13  14
HETATM   14  N           1     -27.169  -8.198 -20.626  0.00  0.00    -0.071 N 
HETATM   15  H           1     -27.238  -8.608 -21.585  0.00  0.00     0.274 HD
HETATM   16  H           1     -26.994  -8.961 -19.934  0.00  0.00     0.274 HD
HETATM   17  H           1     -28.062  -7.711 -20.390  0.00  0.00     0.274 HD
ENDBRANCH  13  14
ENDBRANCH   4  13
TORSDOF 6
ENDMDL
MODEL 6
REMARK VINA RESULT:      -5.1     13.032     14.452
REMARK  6 active torsions:
REMARK  status: ('A' for Active; 'I' for Inactive)
REMARK    1  A    between atoms: N_5  and  C_7 
REMARK       I    between atoms: N_5  and  C_16 
REMARK    2  A    between atoms: O_6  and  C_14 
REMARK    3  A    between atoms: C_7  and  C_14 
REMARK    4  A    between atoms: C_7  and  C_17 
REMARK    5  A    between atoms: C_8  and  C_16 
REMARK    6  A    between atoms: C_8  and  N_9 
ROOT
HETATM    1  N           1     -34.948  -1.272 -13.926  0.00  0.00    -0.343 N 
HETATM    2  O           1     -36.331  -1.739 -12.237  0.00  0.00    -0.272 OA
HETATM    3  H           1     -34.016  -1.343 -14.317  0.00  0.00     0.163 HD
HETATM    4  C           1     -35.219  -1.823 -12.703  0.00  0.00     0.243 C 
ENDROOT
BRANCH   1   5
HETATM    5  C           1     -35.993  -0.589 -14.663  0.00  0.00     0.214 C 
BRANCH   5   6
HETATM    6  C           1     -35.837   0.915 -14.487  0.00  0.00     0.147 C 
HETATM    7  C           1     -34.500   1.211 -13.819  0.00  0.00     0.042 C 
BRANCH   6   8
HETATM    8  O           1     -35.881   1.540 -15.741  0.00  0.00    -0.393 OA
HETATM    9  H           1     -35.363   2.325 -15.675  0.00  0.00     0.210 HD
ENDBRANCH   6   8
ENDBRANCH   5   6
BRANCH   5  10
HETATM   10  C           1     -35.886  -0.939 -16.127  0.00  0.00     0.199 C 
HETATM   11  O           1     -34.811  -1.381 -16.588  0.00  0.00    -0.646 OA
HETATM   12  O           1     -36.872  -0.786 -16.880  0.00  0.00    -0.646 OA
ENDBRANCH   5  10
ENDBRANCH   1   5
BRANCH   4  13
HETATM   13  C           1     -34.131  -2.534 -11.936  0.00  0.00     0.332 C 
BRANCH  13  14
HETATM   14  N           1     -33.736  -1.709 -10.747  0.00  0.00    -0.071 N 
HETATM   15  H           1     -34.573  -1.543 -10.144  0.00  0.00     0.274 HD
HETATM   16  H           1     -33.007  -2.218 -10.197  0.00  0.00     0.274 HD
HETATM   17  H           1     -33.352  -0.793 -11.070  0.00  0.00     0.274 HD
ENDBRANCH  13  14
ENDBRANCH   4  13
TORSDOF 6
ENDMDL
MODEL 7
REMARK VINA RESULT:      -5.0     12.578     14.193
REMARK  6 active torsions:
REMARK  status: ('A' for Active; 'I' for Inactive)
REMARK    1  A    between atoms: N_5  and  C_7 
REMARK       I    between atoms: N_5  and  C_16 
REMARK    2  A    between atoms: O_6  and  C_14 
REMARK    3  A    between atoms: C_7  and  C_14 
REMARK    4  A    between atoms: C_7  and  C_17 
REMARK    5  A    between atoms: C_8  and  C_16 
REMARK    6  A    between atoms: C_8  and  N_9 
ROOT
HETATM    1  N           1     -34.856  -1.200 -13.354  0.00  0.00    -0.343 N 
HETATM    2  O           1     -37.055  -0.830 -13.472  0.00  0.00    -0.272 OA
HETATM    3  H           1     -33.927  -0.958 -13.676  0.00  0.00     0.163 HD
HETATM    4  C           1     -35.946  -0.542 -13.856  0.00  0.00     0.243 C 
ENDROOT
BRANCH   1   5
HETATM    5  C           1     -35.032  -2.243 -12.362  0.00  0.00     0.214 C 
BRANCH   5   6
HETATM    6  C           1     -34.204  -3.460 -12.754  0.00  0.00     0.147 C 
HETATM    7  C           1     -34.757  -4.696 -12.057  0.00  0.00     0.042 C 
BRANCH   6   8
HETATM    8  O           1     -34.266  -3.638 -14.143  0.00  0.00    -0.393 OA
HETATM    9  H           1     -33.384  -3.567 -14.469  0.00  0.00     0.210 HD
ENDBRANCH   6   8
ENDBRANCH   5   6
BRANCH   5  10
HETATM   10  C           1     -34.576  -1.736 -11.015  0.00  0.00     0.199 C 
HETATM   11  O           1     -35.406  -1.255 -10.214  0.00  0.00    -0.646 OA
HETATM   12  O           1     -33.367  -1.796 -10.701  0.00  0.00    -0.646 OA
ENDBRANCH   5  10
ENDBRANCH   1   5
BRANCH   4  13
HETATM   13  C           1     -35.764   0.544 -14.889  0.00  0.00     0.332 C 
BRANCH  13  14
HETATM   14  N           1     -36.640   0.260 -16.073  0.00  0.00    -0.071 N 
HETATM   15  H           1     -37.338   1.030 -16.182  0.00  0.00     0.274 HD
HETATM   16  H           1     -36.051   0.200 -16.934  0.00  0.00     0.274 HD
HETATM   17  H           1     -37.140  -0.646 -15.928  0.00  0.00     0.274 HD
ENDBRANCH  13  14
ENDBRANCH   4  13
TORSDOF 6
ENDMDL
MODEL 8
REMARK VINA RESULT:      -5.0      9.652     11.526
REMARK  6 active torsions:
REMARK  status: ('A' for Active; 'I' for Inactive)
REMARK    1  A    between atoms: N_5  and  C_7 
REMARK       I    between atoms: N_5  and  C_16 
REMARK    2  A    between atoms: O_6  and  C_14 
REMARK    3  A    between atoms: C_7  and  C_14 
REMARK    4  A    between atoms: C_7  and  C_17 
REMARK    5  A    between atoms: C_8  and  C_16 
REMARK    6  A    between atoms: C_8  and  N_9 
ROOT
HETATM    1  N           1     -30.387  -5.216 -17.055  0.00  0.00    -0.343 N 
HETATM    2  O           1     -30.891  -3.098 -17.550  0.00  0.00    -0.272 OA
HETATM    3  H           1     -30.700  -6.113 -16.703  0.00  0.00     0.163 HD
HETATM    4  C           1     -31.265  -4.168 -17.131  0.00  0.00     0.243 C 
ENDROOT
BRANCH   1   5
HETATM    5  C           1     -29.011  -5.043 -17.477  0.00  0.00     0.214 C 
BRANCH   5   6
HETATM    6  C           1     -28.100  -5.070 -16.257  0.00  0.00     0.147 C 
HETATM    7  C           1     -28.506  -6.222 -15.347  0.00  0.00     0.042 C 
BRANCH   6   8
HETATM    8  O           1     -26.772  -5.246 -16.670  0.00  0.00    -0.393 OA
HETATM    9  H           1     -26.728  -6.080 -17.108  0.00  0.00     0.210 HD
ENDBRANCH   6   8
ENDBRANCH   5   6
BRANCH   5  10
HETATM   10  C           1     -28.630  -6.161 -18.417  0.00  0.00     0.199 C 
HETATM   11  O           1     -27.604  -6.061 -19.124  0.00  0.00    -0.646 OA
HETATM   12  O           1     -29.341  -7.187 -18.488  0.00  0.00    -0.646 OA
ENDBRANCH   5  10
ENDBRANCH   1   5
BRANCH   4  13
HETATM   13  C           1     -32.697  -4.349 -16.691  0.00  0.00     0.332 C 
BRANCH  13  14
HETATM   14  N           1     -33.556  -3.307 -17.346  0.00  0.00    -0.071 N 
HETATM   15  H           1     -34.403  -3.761 -17.755  0.00  0.00     0.274 HD
HETATM   16  H           1     -33.850  -2.601 -16.632  0.00  0.00     0.274 HD
HETATM   17  H           1     -33.014  -2.834 -18.103  0.00  0.00     0.274 HD
ENDBRANCH  13  14
ENDBRANCH   4  13
TORSDOF 6
ENDMDL
MODEL 9
REMARK VINA RESULT:      -5.0      9.351     10.614
REMARK  6 active torsions:
REMARK  status: ('A' for Active; 'I' for Inactive)
REMARK    1  A    between atoms: N_5  and  C_7 
REMARK       I    between atoms: N_5  and  C_16 
REMARK    2  A    between atoms: O_6  and  C_14 
REMARK    3  A    between atoms: C_7  and  C_14 
REMARK    4  A    between atoms: C_7  and  C_17 
REMARK    5  A    between atoms: C_8  and  C_16 
REMARK    6  A    between atoms: C_8  and  N_9 
ROOT
HETATM    1  N           1     -26.894  -6.277 -17.981  0.00  0.00    -0.343 N 
HETATM    2  O           1     -27.021  -6.220 -20.209  0.00  0.00    -0.272 OA
HETATM    3  H           1     -26.341  -6.483 -17.158  0.00  0.00     0.163 HD
HETATM    4  C           1     -26.361  -6.466 -19.228  0.00  0.00     0.243 C 
ENDROOT
BRANCH   1   5
HETATM    5  C           1     -28.249  -5.781 -17.838  0.00  0.00     0.214 C 
BRANCH   5   6
HETATM    6  C           1     -29.126  -6.871 -17.236  0.00  0.00     0.147 C 
HETATM    7  C           1     -29.786  -7.667 -18.354  0.00  0.00     0.042 C 
BRANCH   6   8
HETATM    8  O           1     -28.337  -7.727 -16.455  0.00  0.00    -0.393 OA
HETATM    9  H           1     -28.544  -7.545 -15.553  0.00  0.00     0.210 HD
ENDBRANCH   6   8
ENDBRANCH   5   6
BRANCH   5  10
HETATM   10  C           1     -28.249  -4.575 -16.931  0.00  0.00     0.199 C 
HETATM   11  O           1     -28.619  -3.464 -17.369  0.00  0.00    -0.646 OA
HETATM   12  O           1     -27.879  -4.687 -15.743  0.00  0.00    -0.646 OA
ENDBRANCH   5  10
ENDBRANCH   1   5
BRANCH   4  13
HETATM   13  C           1     -24.951  -6.982 -19.376  0.00  0.00     0.332 C 
BRANCH  13  14
HETATM   14  N           1     -24.417  -7.374 -18.030  0.00  0.00    -0.071 N 
HETATM   15  H           1     -24.589  -8.393 -17.871  0.00  0.00     0.274 HD
HETATM   16  H           1     -23.390  -7.185 -17.995  0.00  0.00     0.274 HD
HETATM   17  H           1     -24.900  -6.819 -17.288  0.00  0.00     0.274 HD
ENDBRANCH  13  14
ENDBRANCH   4  13
TORSDOF 6
ENDMDL
