MODEL 1
REMARK VINA RESULT:      -5.6      0.000      0.000
REMARK  9 active torsions:
REMARK  status: ('A' for Active; 'I' for Inactive)
REMARK    1  A    between atoms: N_3  and  C_7 
REMARK    2  A    between atoms: Se_5  and  C_19 
REMARK    3  A    between atoms: C_7  and  C_8 
REMARK    4  A    between atoms: C_7  and  C_20 
REMARK       I    between atoms: C_8  and  N_9 
REMARK    5  A    between atoms: N_9  and  C_13 
REMARK    6  A    between atoms: C_12  and  C_13 
REMARK    7  A    between atoms: C_13  and  C_14 
REMARK    8  A    between atoms: C_14  and  O_15 
REMARK    9  A    between atoms: C_19  and  C_20 
ROOT
HETATM    1  H           1     -21.836  -5.812  -9.557  0.00  0.00     0.163 HD
HETATM    2  O           1     -21.701  -3.627  -7.309  0.00  0.00    -0.271 OA
HETATM    3  C           1     -21.607  -4.721  -7.813  0.00  0.00     0.249 C 
HETATM    4  N           1     -21.915  -4.895  -9.135  0.00  0.00    -0.343 N 
ENDROOT
BRANCH   3   5
HETATM    5  C           1     -21.152  -5.897  -6.983  0.00  0.00     0.274 C 
BRANCH   5   6
HETATM    6  N           1     -19.743  -6.255  -7.356  0.00  0.00    -0.067 N 
HETATM    7  H           1     -19.382  -5.570  -8.058  0.00  0.00     0.275 HD
HETATM    8  H           1     -19.141  -6.230  -6.503  0.00  0.00     0.275 HD
HETATM    9  H           1     -19.726  -7.216  -7.767  0.00  0.00     0.275 HD
ENDBRANCH   5   6
BRANCH   5  10
HETATM   10  C           1     -21.208  -5.530  -5.506  0.00  0.00     0.042 C 
BRANCH  10  11
HETATM   11  C           1     -22.154  -6.479  -4.783  0.00  0.00     0.003 C 
BRANCH  11  12
HETATM   12 Se           1     -21.236  -7.277  -3.261  0.00  0.00     0.000 Se
HETATM   13  C           1     -22.219  -6.256  -1.922  0.00  0.00     0.000 C 
ENDBRANCH  11  12
ENDBRANCH  10  11
ENDBRANCH   5  10
ENDBRANCH   3   5
BRANCH   4  14
HETATM   14  C           1     -22.352  -3.765  -9.932  0.00  0.00     0.209 C 
BRANCH  14  15
HETATM   15  C           1     -23.806  -3.941 -10.298  0.00  0.00     0.198 C 
HETATM   16  O           1     -24.335  -5.071 -10.231  0.00  0.00    -0.646 OA
HETATM   17  O           1     -24.480  -2.955 -10.668  0.00  0.00    -0.646 OA
ENDBRANCH  14  15
BRANCH  14  18
HETATM   18  C           1     -21.515  -3.685 -11.202  0.00  0.00     0.200 C 
BRANCH  18  19
HETATM   19  O           1     -22.230  -4.244 -12.270  0.00  0.00    -0.398 OA
HETATM   20  H           1     -22.758  -3.555 -12.636  0.00  0.00     0.209 HD
ENDBRANCH  18  19
ENDBRANCH  14  18
ENDBRANCH   4  14
TORSDOF 9
ENDMDL
MODEL 2
REMARK VINA RESULT:      -5.2     10.392     11.910
REMARK  9 active torsions:
REMARK  status: ('A' for Active; 'I' for Inactive)
REMARK    1  A    between atoms: N_3  and  C_7 
REMARK    2  A    between atoms: Se_5  and  C_19 
REMARK    3  A    between atoms: C_7  and  C_8 
REMARK    4  A    between atoms: C_7  and  C_20 
REMARK       I    between atoms: C_8  and  N_9 
REMARK    5  A    between atoms: N_9  and  C_13 
REMARK    6  A    between atoms: C_12  and  C_13 
REMARK    7  A    between atoms: C_13  and  C_14 
REMARK    8  A    between atoms: C_14  and  O_15 
REMARK    9  A    between atoms: C_19  and  C_20 
ROOT
HETATM    1  H           1     -27.149  -6.112 -17.892  0.00  0.00     0.163 HD
HETATM    2  O           1     -25.893  -7.391 -15.316  0.00  0.00    -0.271 OA
HETATM    3  C           1     -25.928  -6.919 -16.428  0.00  0.00     0.249 C 
HETATM    4  N           1     -27.120  -6.508 -16.961  0.00  0.00    -0.343 N 
ENDROOT
BRANCH   3   5
HETATM    5  C           1     -24.657  -6.784 -17.230  0.00  0.00     0.274 C 
BRANCH   5   6
HETATM    6  N           1     -23.705  -7.879 -16.847  0.00  0.00    -0.067 N 
HETATM    7  H           1     -24.239  -8.677 -16.435  0.00  0.00     0.275 HD
HETATM    8  H           1     -23.191  -8.205 -17.696  0.00  0.00     0.275 HD
HETATM    9  H           1     -23.023  -7.517 -16.143  0.00  0.00     0.275 HD
ENDBRANCH   5   6
BRANCH   5  10
HETATM   10  C           1     -24.978  -6.887 -18.715  0.00  0.00     0.042 C 
BRANCH  10  11
HETATM   11  C           1     -23.783  -7.476 -19.454  0.00  0.00     0.003 C 
BRANCH  11  12
HETATM   12 Se           1     -24.321  -7.989 -21.255  0.00  0.00     0.000 Se
HETATM   13  C           1     -22.547  -8.597 -21.788  0.00  0.00     0.000 C 
ENDBRANCH  11  12
ENDBRANCH  10  11
ENDBRANCH   5  10
ENDBRANCH   3   5
BRANCH   4  14
HETATM   14  C           1     -28.341  -6.639 -16.190  0.00  0.00     0.209 C 
BRANCH  14  15
HETATM   15  C           1     -29.488  -6.964 -17.115  0.00  0.00     0.198 C 
HETATM   16  O           1     -29.770  -8.155 -17.366  0.00  0.00    -0.646 OA
HETATM   17  O           1     -30.155  -6.040 -17.631  0.00  0.00    -0.646 OA
ENDBRANCH  14  15
BRANCH  14  18
HETATM   18  C           1     -28.627  -5.328 -15.467  0.00  0.00     0.200 C 
BRANCH  18  19
HETATM   19  O           1     -28.132  -4.258 -16.225  0.00  0.00    -0.398 OA
HETATM   20  H           1     -28.857  -3.912 -16.718  0.00  0.00     0.209 HD
ENDBRANCH  18  19
ENDBRANCH  14  18
ENDBRANCH   4  14
TORSDOF 9
ENDMDL
MODEL 3
REMARK VINA RESULT:      -5.2     10.518     12.909
REMARK  9 active torsions:
REMARK  status: ('A' for Active; 'I' for Inactive)
REMARK    1  A    between atoms: N_3  and  C_7 
REMARK    2  A    between atoms: Se_5  and  C_19 
REMARK    3  A    between atoms: C_7  and  C_8 
REMARK    4  A    between atoms: C_7  and  C_20 
REMARK       I    between atoms: C_8  and  N_9 
REMARK    5  A    between atoms: N_9  and  C_13 
REMARK    6  A    between atoms: C_12  and  C_13 
REMARK    7  A    between atoms: C_13  and  C_14 
REMARK    8  A    between atoms: C_14  and  O_15 
REMARK    9  A    between atoms: C_19  and  C_20 
ROOT
HETATM    1  H           1     -27.275  -7.068 -18.699  0.00  0.00     0.163 HD
HETATM    2  O           1     -24.188  -6.525 -18.570  0.00  0.00    -0.271 OA
HETATM    3  C           1     -25.233  -6.939 -19.012  0.00  0.00     0.249 C 
HETATM    4  N           1     -26.399  -6.722 -18.329  0.00  0.00    -0.343 N 
ENDROOT
BRANCH   3   5
HETATM    5  C           1     -25.253  -7.697 -20.317  0.00  0.00     0.274 C 
BRANCH   5   6
HETATM    6  N           1     -26.668  -8.059 -20.662  0.00  0.00    -0.067 N 
HETATM    7  H           1     -26.918  -7.647 -21.589  0.00  0.00     0.275 HD
HETATM    8  H           1     -26.759  -9.099 -20.707  0.00  0.00     0.275 HD
HETATM    9  H           1     -27.312  -7.684 -19.929  0.00  0.00     0.275 HD
ENDBRANCH   5   6
BRANCH   5  10
HETATM   10  C           1     -24.669  -6.824 -21.420  0.00  0.00     0.042 C 
BRANCH  10  11
HETATM   11  C           1     -23.834  -7.684 -22.360  0.00  0.00     0.003 C 
BRANCH  11  12
HETATM   12 Se           1     -22.385  -8.521 -21.360  0.00  0.00     0.000 Se
HETATM   13  C           1     -21.747  -9.589 -22.861  0.00  0.00     0.000 C 
ENDBRANCH  11  12
ENDBRANCH  10  11
ENDBRANCH   5  10
ENDBRANCH   3   5
BRANCH   4  14
HETATM   14  C           1     -26.379  -5.994 -17.075  0.00  0.00     0.209 C 
BRANCH  14  15
HETATM   15  C           1     -26.380  -6.973 -15.925  0.00  0.00     0.198 C 
HETATM   16  O           1     -25.299  -7.345 -15.421  0.00  0.00    -0.646 OA
HETATM   17  O           1     -27.463  -7.410 -15.478  0.00  0.00    -0.646 OA
ENDBRANCH  14  15
BRANCH  14  18
HETATM   18  C           1     -27.612  -5.104 -16.985  0.00  0.00     0.200 C 
BRANCH  18  19
HETATM   19  O           1     -27.829  -4.738 -15.649  0.00  0.00    -0.398 OA
HETATM   20  H           1     -28.715  -4.423 -15.592  0.00  0.00     0.209 HD
ENDBRANCH  18  19
ENDBRANCH  14  18
ENDBRANCH   4  14
TORSDOF 9
ENDMDL
MODEL 4
REMARK VINA RESULT:      -5.2     11.220     12.889
REMARK  9 active torsions:
REMARK  status: ('A' for Active; 'I' for Inactive)
REMARK    1  A    between atoms: N_3  and  C_7 
REMARK    2  A    between atoms: Se_5  and  C_19 
REMARK    3  A    between atoms: C_7  and  C_8 
REMARK    4  A    between atoms: C_7  and  C_20 
REMARK       I    between atoms: C_8  and  N_9 
REMARK    5  A    between atoms: N_9  and  C_13 
REMARK    6  A    between atoms: C_12  and  C_13 
REMARK    7  A    between atoms: C_13  and  C_14 
REMARK    8  A    between atoms: C_14  and  O_15 
REMARK    9  A    between atoms: C_19  and  C_20 
ROOT
HETATM    1  H           1     -25.857  -6.414 -16.996  0.00  0.00     0.163 HD
HETATM    2  O           1     -27.337  -6.565 -19.759  0.00  0.00    -0.271 OA
HETATM    3  C           1     -26.408  -6.550 -18.987  0.00  0.00     0.249 C 
HETATM    4  N           1     -26.636  -6.426 -17.643  0.00  0.00    -0.343 N 
ENDROOT
BRANCH   3   5
HETATM    5  C           1     -24.996  -6.668 -19.505  0.00  0.00     0.274 C 
BRANCH   5   6
HETATM    6  N           1     -24.183  -7.499 -18.556  0.00  0.00    -0.067 N 
HETATM    7  H           1     -24.590  -8.460 -18.497  0.00  0.00     0.275 HD
HETATM    8  H           1     -23.199  -7.557 -18.900  0.00  0.00     0.275 HD
HETATM    9  H           1     -24.196  -7.057 -17.609  0.00  0.00     0.275 HD
ENDBRANCH   5   6
BRANCH   5  10
HETATM   10  C           1     -25.010  -7.331 -20.876  0.00  0.00     0.042 C 
BRANCH  10  11
HETATM   11  C           1     -23.780  -8.216 -21.025  0.00  0.00     0.003 C 
BRANCH  11  12
HETATM   12 Se           1     -23.249  -8.282 -22.899  0.00  0.00     0.000 Se
HETATM   13  C           1     -21.659  -9.364 -22.581  0.00  0.00     0.000 C 
ENDBRANCH  11  12
ENDBRANCH  10  11
ENDBRANCH   5  10
ENDBRANCH   3   5
BRANCH   4  14
HETATM   14  C           1     -27.993  -6.312 -17.146  0.00  0.00     0.209 C 
BRANCH  14  15
HETATM   15  C           1     -28.226  -4.912 -16.633  0.00  0.00     0.198 C 
HETATM   16  O           1     -28.119  -4.668 -15.412  0.00  0.00    -0.646 OA
HETATM   17  O           1     -28.525  -3.997 -17.430  0.00  0.00    -0.646 OA
ENDBRANCH  14  15
BRANCH  14  18
HETATM   18  C           1     -28.203  -7.310 -16.013  0.00  0.00     0.200 C 
BRANCH  18  19
HETATM   19  O           1     -27.028  -7.413 -15.256  0.00  0.00    -0.398 OA
HETATM   20  H           1     -26.995  -6.656 -14.696  0.00  0.00     0.209 HD
ENDBRANCH  18  19
ENDBRANCH  14  18
ENDBRANCH   4  14
TORSDOF 9
ENDMDL
MODEL 5
REMARK VINA RESULT:      -5.1     12.890     14.787
REMARK  9 active torsions:
REMARK  status: ('A' for Active; 'I' for Inactive)
REMARK    1  A    between atoms: N_3  and  C_7 
REMARK    2  A    between atoms: Se_5  and  C_19 
REMARK    3  A    between atoms: C_7  and  C_8 
REMARK    4  A    between atoms: C_7  and  C_20 
REMARK       I    between atoms: C_8  and  N_9 
REMARK    5  A    between atoms: N_9  and  C_13 
REMARK    6  A    between atoms: C_12  and  C_13 
REMARK    7  A    between atoms: C_13  and  C_14 
REMARK    8  A    between atoms: C_14  and  O_15 
REMARK    9  A    between atoms: C_19  and  C_20 
ROOT
HETATM    1  H           1     -36.010  -3.423 -11.869  0.00  0.00     0.163 HD
HETATM    2  O           1     -34.311  -1.499 -10.064  0.00  0.00    -0.271 OA
HETATM    3  C           1     -35.236  -1.862 -10.752  0.00  0.00     0.249 C 
HETATM    4  N           1     -35.235  -3.119 -11.294  0.00  0.00    -0.343 N 
ENDROOT
BRANCH   3   5
HETATM    5  C           1     -36.392  -0.928 -11.013  0.00  0.00     0.274 C 
BRANCH   5   6
HETATM    6  N           1     -36.244   0.300 -10.164  0.00  0.00    -0.067 N 
HETATM    7  H           1     -36.648   1.123 -10.666  0.00  0.00     0.275 HD
HETATM    8  H           1     -36.749   0.161  -9.260  0.00  0.00     0.275 HD
HETATM    9  H           1     -35.231   0.472  -9.975  0.00  0.00     0.275 HD
ENDBRANCH   5   6
BRANCH   5  10
HETATM   10  C           1     -36.404  -0.531 -12.483  0.00  0.00     0.042 C 
BRANCH  10  11
HETATM   11  C           1     -35.171   0.309 -12.792  0.00  0.00     0.003 C 
BRANCH  11  12
HETATM   12 Se           1     -35.180   0.810 -14.675  0.00  0.00     0.000 Se
HETATM   13  C           1     -36.970   0.119 -15.020  0.00  0.00     0.000 C 
ENDBRANCH  11  12
ENDBRANCH  10  11
ENDBRANCH   5  10
ENDBRANCH   3   5
BRANCH   4  14
HETATM   14  C           1     -34.124  -4.015 -11.042  0.00  0.00     0.209 C 
BRANCH  14  15
HETATM   15  C           1     -33.245  -4.083 -12.267  0.00  0.00     0.198 C 
HETATM   16  O           1     -32.069  -4.495 -12.171  0.00  0.00    -0.646 OA
HETATM   17  O           1     -33.694  -3.727 -13.378  0.00  0.00    -0.646 OA
ENDBRANCH  14  15
BRANCH  14  18
HETATM   18  C           1     -34.656  -5.406 -10.721  0.00  0.00     0.200 C 
BRANCH  18  19
HETATM   19  O           1     -34.518  -6.232 -11.846  0.00  0.00    -0.398 OA
HETATM   20  H           1     -33.750  -6.759 -11.706  0.00  0.00     0.209 HD
ENDBRANCH  18  19
ENDBRANCH  14  18
ENDBRANCH   4  14
TORSDOF 9
ENDMDL
MODEL 6
REMARK VINA RESULT:      -4.6      2.996      4.633
REMARK  9 active torsions:
REMARK  status: ('A' for Active; 'I' for Inactive)
REMARK    1  A    between atoms: N_3  and  C_7 
REMARK    2  A    between atoms: Se_5  and  C_19 
REMARK    3  A    between atoms: C_7  and  C_8 
REMARK    4  A    between atoms: C_7  and  C_20 
REMARK       I    between atoms: C_8  and  N_9 
REMARK    5  A    between atoms: N_9  and  C_13 
REMARK    6  A    between atoms: C_12  and  C_13 
REMARK    7  A    between atoms: C_13  and  C_14 
REMARK    8  A    between atoms: C_14  and  O_15 
REMARK    9  A    between atoms: C_19  and  C_20 
ROOT
HETATM    1  H           1     -21.037  -4.546  -4.909  0.00  0.00     0.163 HD
HETATM    2  O           1     -22.090  -7.498  -4.771  0.00  0.00    -0.271 OA
HETATM    3  C           1     -21.633  -6.453  -4.371  0.00  0.00     0.249 C 
HETATM    4  N           1     -21.419  -5.421  -5.244  0.00  0.00    -0.343 N 
ENDROOT
BRANCH   3   5
HETATM    5  C           1     -21.297  -6.287  -2.909  0.00  0.00     0.274 C 
BRANCH   5   6
HETATM    6  N           1     -22.535  -5.902  -2.153  0.00  0.00    -0.067 N 
HETATM    7  H           1     -22.335  -5.911  -1.128  0.00  0.00     0.275 HD
HETATM    8  H           1     -22.835  -4.944  -2.442  0.00  0.00     0.275 HD
HETATM    9  H           1     -23.298  -6.585  -2.365  0.00  0.00     0.275 HD
ENDBRANCH   5   6
BRANCH   5  10
HETATM   10  C           1     -20.755  -7.600  -2.359  0.00  0.00     0.042 C 
BRANCH  10  11
HETATM   11  C           1     -21.701  -8.134  -1.293  0.00  0.00     0.003 C 
BRANCH  11  12
HETATM   12 Se           1     -21.972 -10.045  -1.561  0.00  0.00     0.000 Se
HETATM   13  C           1     -23.412 -10.191  -0.254  0.00  0.00     0.000 C 
ENDBRANCH  11  12
ENDBRANCH  10  11
ENDBRANCH   5  10
ENDBRANCH   3   5
BRANCH   4  14
HETATM   14  C           1     -21.742  -5.581  -6.648  0.00  0.00     0.209 C 
BRANCH  14  15
HETATM   15  C           1     -20.468  -5.716  -7.445  0.00  0.00     0.198 C 
HETATM   16  O           1     -20.223  -4.915  -8.373  0.00  0.00    -0.646 OA
HETATM   17  O           1     -19.656  -6.629  -7.177  0.00  0.00    -0.646 OA
ENDBRANCH  14  15
BRANCH  14  18
HETATM   18  C           1     -22.518  -4.363  -7.133  0.00  0.00     0.200 C 
BRANCH  18  19
HETATM   19  O           1     -23.851  -4.458  -6.711  0.00  0.00    -0.398 OA
HETATM   20  H           1     -23.879  -4.158  -5.819  0.00  0.00     0.209 HD
ENDBRANCH  18  19
ENDBRANCH  14  18
ENDBRANCH   4  14
TORSDOF 9
ENDMDL
MODEL 7
REMARK VINA RESULT:      -4.6     11.276     13.090
REMARK  9 active torsions:
REMARK  status: ('A' for Active; 'I' for Inactive)
REMARK    1  A    between atoms: N_3  and  C_7 
REMARK    2  A    between atoms: Se_5  and  C_19 
REMARK    3  A    between atoms: C_7  and  C_8 
REMARK    4  A    between atoms: C_7  and  C_20 
REMARK       I    between atoms: C_8  and  N_9 
REMARK    5  A    between atoms: N_9  and  C_13 
REMARK    6  A    between atoms: C_12  and  C_13 
REMARK    7  A    between atoms: C_13  and  C_14 
REMARK    8  A    between atoms: C_14  and  O_15 
REMARK    9  A    between atoms: C_19  and  C_20 
ROOT
HETATM    1  H           1     -30.633  -4.546 -16.144  0.00  0.00     0.163 HD
HETATM    2  O           1     -31.693  -7.029 -17.743  0.00  0.00    -0.271 OA
HETATM    3  C           1     -30.897  -6.327 -17.166  0.00  0.00     0.249 C 
HETATM    4  N           1     -31.299  -5.134 -16.629  0.00  0.00    -0.343 N 
ENDROOT
BRANCH   3   5
HETATM    5  C           1     -29.459  -6.766 -17.036  0.00  0.00     0.274 C 
BRANCH   5   6
HETATM    6  N           1     -29.324  -8.182 -17.514  0.00  0.00    -0.067 N 
HETATM    7  H           1     -30.271  -8.573 -17.723  0.00  0.00     0.275 HD
HETATM    8  H           1     -28.740  -8.202 -18.380  0.00  0.00     0.275 HD
HETATM    9  H           1     -28.867  -8.758 -16.771  0.00  0.00     0.275 HD
ENDBRANCH   5   6
BRANCH   5  10
HETATM   10  C           1     -28.572  -5.860 -17.878  0.00  0.00     0.042 C 
BRANCH  10  11
HETATM   11  C           1     -27.121  -6.304 -17.749  0.00  0.00     0.003 C 
BRANCH  11  12
HETATM   12 Se           1     -26.678  -6.539 -15.866  0.00  0.00     0.000 Se
HETATM   13  C           1     -24.883  -7.221 -16.203  0.00  0.00     0.000 C 
ENDBRANCH  11  12
ENDBRANCH  10  11
ENDBRANCH   5  10
ENDBRANCH   3   5
BRANCH   4  14
HETATM   14  C           1     -32.681  -4.713 -16.754  0.00  0.00     0.209 C 
BRANCH  14  15
HETATM   15  C           1     -32.735  -3.345 -17.389  0.00  0.00     0.198 C 
HETATM   16  O           1     -31.736  -2.897 -17.993  0.00  0.00    -0.646 OA
HETATM   17  O           1     -33.778  -2.661 -17.311  0.00  0.00    -0.646 OA
ENDBRANCH  14  15
BRANCH  14  18
HETATM   18  C           1     -33.321  -4.657 -15.372  0.00  0.00     0.200 C 
BRANCH  18  19
HETATM   19  O           1     -34.693  -4.925 -15.480  0.00  0.00    -0.398 OA
HETATM   20  H           1     -35.070  -4.225 -15.983  0.00  0.00     0.209 HD
ENDBRANCH  18  19
ENDBRANCH  14  18
ENDBRANCH   4  14
TORSDOF 9
ENDMDL
MODEL 8
REMARK VINA RESULT:      -4.6      1.550      2.196
REMARK  9 active torsions:
REMARK  status: ('A' for Active; 'I' for Inactive)
REMARK    1  A    between atoms: N_3  and  C_7 
REMARK    2  A    between atoms: Se_5  and  C_19 
REMARK    3  A    between atoms: C_7  and  C_8 
REMARK    4  A    between atoms: C_7  and  C_20 
REMARK       I    between atoms: C_8  and  N_9 
REMARK    5  A    between atoms: N_9  and  C_13 
REMARK    6  A    between atoms: C_12  and  C_13 
REMARK    7  A    between atoms: C_13  and  C_14 
REMARK    8  A    between atoms: C_14  and  O_15 
REMARK    9  A    between atoms: C_19  and  C_20 
ROOT
HETATM    1  H           1     -21.362  -4.714 -10.220  0.00  0.00     0.163 HD
HETATM    2  O           1     -23.184  -4.576  -7.669  0.00  0.00    -0.271 OA
HETATM    3  C           1     -22.163  -4.616  -8.314  0.00  0.00     0.249 C 
HETATM    4  N           1     -22.218  -4.682  -9.680  0.00  0.00    -0.343 N 
ENDROOT
BRANCH   3   5
HETATM    5  C           1     -20.827  -4.591  -7.613  0.00  0.00     0.274 C 
BRANCH   5   6
HETATM    6  N           1     -20.869  -3.595  -6.491  0.00  0.00    -0.067 N 
HETATM    7  H           1     -19.895  -3.372  -6.185  0.00  0.00     0.275 HD
HETATM    8  H           1     -21.340  -2.722  -6.819  0.00  0.00     0.275 HD
HETATM    9  H           1     -21.402  -3.998  -5.688  0.00  0.00     0.275 HD
ENDBRANCH   5   6
BRANCH   5  10
HETATM   10  C           1     -20.521  -5.973  -7.051  0.00  0.00     0.042 C 
BRANCH  10  11
HETATM   11  C           1     -20.437  -5.898  -5.532  0.00  0.00     0.003 C 
BRANCH  11  12
HETATM   12 Se           1     -21.988  -6.780  -4.750  0.00  0.00     0.000 Se
HETATM   13  C           1     -21.552  -6.282  -2.916  0.00  0.00     0.000 C 
ENDBRANCH  11  12
ENDBRANCH  10  11
ENDBRANCH   5  10
ENDBRANCH   3   5
BRANCH   4  14
HETATM   14  C           1     -23.502  -4.706 -10.352  0.00  0.00     0.209 C 
BRANCH  14  15
HETATM   15  C           1     -23.289  -4.662 -11.846  0.00  0.00     0.198 C 
HETATM   16  O           1     -22.317  -4.035 -12.320  0.00  0.00    -0.646 OA
HETATM   17  O           1     -24.084  -5.253 -12.608  0.00  0.00    -0.646 OA
ENDBRANCH  14  15
BRANCH  14  18
HETATM   18  C           1     -24.322  -3.496  -9.921  0.00  0.00     0.200 C 
BRANCH  18  19
HETATM   19  O           1     -25.158  -3.098 -10.973  0.00  0.00    -0.398 OA
HETATM   20  H           1     -25.422  -2.212 -10.794  0.00  0.00     0.209 HD
ENDBRANCH  18  19
ENDBRANCH  14  18
ENDBRANCH   4  14
TORSDOF 9
ENDMDL
MODEL 9
REMARK VINA RESULT:      -4.3      2.555      3.536
REMARK  9 active torsions:
REMARK  status: ('A' for Active; 'I' for Inactive)
REMARK    1  A    between atoms: N_3  and  C_7 
REMARK    2  A    between atoms: Se_5  and  C_19 
REMARK    3  A    between atoms: C_7  and  C_8 
REMARK    4  A    between atoms: C_7  and  C_20 
REMARK       I    between atoms: C_8  and  N_9 
REMARK    5  A    between atoms: N_9  and  C_13 
REMARK    6  A    between atoms: C_12  and  C_13 
REMARK    7  A    between atoms: C_13  and  C_14 
REMARK    8  A    between atoms: C_14  and  O_15 
REMARK    9  A    between atoms: C_19  and  C_20 
ROOT
HETATM    1  H           1     -21.321  -7.122  -6.951  0.00  0.00     0.163 HD
HETATM    2  O           1     -21.309  -5.641  -4.184  0.00  0.00    -0.271 OA
HETATM    3  C           1     -21.370  -6.568  -4.957  0.00  0.00     0.249 C 
HETATM    4  N           1     -21.271  -6.345  -6.304  0.00  0.00    -0.343 N 
ENDROOT
BRANCH   3   5
HETATM    5  C           1     -21.555  -7.973  -4.437  0.00  0.00     0.274 C 
BRANCH   5   6
HETATM    6  N           1     -21.118  -8.955  -5.483  0.00  0.00    -0.067 N 
HETATM    7  H           1     -21.830  -9.715  -5.569  0.00  0.00     0.275 HD
HETATM    8  H           1     -21.019  -8.465  -6.400  0.00  0.00     0.275 HD
HETATM    9  H           1     -20.198  -9.370  -5.208  0.00  0.00     0.275 HD
ENDBRANCH   5   6
BRANCH   5  10
HETATM   10  C           1     -20.717  -8.164  -3.179  0.00  0.00     0.042 C 
BRANCH  10  11
HETATM   11  C           1     -21.604  -8.668  -2.049  0.00  0.00     0.003 C 
BRANCH  11  12
HETATM   12 Se           1     -22.217  -7.158  -0.981  0.00  0.00     0.000 Se
HETATM   13  C           1     -21.944  -8.048   0.733  0.00  0.00     0.000 C 
ENDBRANCH  11  12
ENDBRANCH  10  11
ENDBRANCH   5  10
ENDBRANCH   3   5
BRANCH   4  14
HETATM   14  C           1     -21.093  -4.995  -6.803  0.00  0.00     0.209 C 
BRANCH  14  15
HETATM   15  C           1     -22.406  -4.480  -7.339  0.00  0.00     0.198 C 
HETATM   16  O           1     -23.455  -4.632  -6.676  0.00  0.00    -0.646 OA
HETATM   17  O           1     -22.444  -3.901  -8.446  0.00  0.00    -0.646 OA
ENDBRANCH  14  15
BRANCH  14  18
HETATM   18  C           1     -20.055  -5.000  -7.918  0.00  0.00     0.200 C 
BRANCH  18  19
HETATM   19  O           1     -19.627  -3.688  -8.165  0.00  0.00    -0.398 OA
HETATM   20  H           1     -18.686  -3.703  -8.168  0.00  0.00     0.209 HD
ENDBRANCH  18  19
ENDBRANCH  14  18
ENDBRANCH   4  14
TORSDOF 9
ENDMDL
