MODEL 1
REMARK VINA RESULT:      -5.5      0.000      0.000
REMARK  9 active torsions:
REMARK  status: ('A' for Active; 'I' for Inactive)
REMARK       I    between atoms: C_1  and  N_7 
REMARK    1  A    between atoms: C_1  and  C_3 
REMARK    2  A    between atoms: C_2  and  C_8 
REMARK    3  A    between atoms: C_2  and  C_17 
REMARK    4  A    between atoms: C_2  and  N_7 
REMARK    5  A    between atoms: C_3  and  C_4 
REMARK    6  A    between atoms: C_3  and  N_20 
REMARK    7  A    between atoms: C_4  and  C_13 
REMARK    8  A    between atoms: C_8  and  C_9 
REMARK    9  A    between atoms: C_9  and  Se_10 
ROOT
HETATM    1  C           1     -21.472  -6.557  -4.172  0.00  0.00     0.249 C 
HETATM    2  N           1     -21.031  -5.494  -4.912  0.00  0.00    -0.345 N 
HETATM    3  H           1     -20.592  -4.706  -4.454  0.00  0.00     0.163 HD
HETATM    4  O           1     -21.995  -7.499  -4.720  0.00  0.00    -0.271 OA
ENDROOT
BRANCH   1   5
HETATM    5  C           1     -21.305  -6.554  -2.673  0.00  0.00     0.278 C 
BRANCH   5   6
HETATM    6  C           1     -21.461  -7.973  -2.139  0.00  0.00     0.021 C 
HETATM    7  C           1     -20.084  -8.593  -1.937  0.00  0.00     0.012 C 
BRANCH   6   8
HETATM    8  C           1     -22.201  -7.935  -0.808  0.00  0.00     0.002 C 
HETATM    9  C           1     -21.296  -8.476   0.290  0.00  0.00     0.005 C 
ENDBRANCH   6   8
ENDBRANCH   5   6
BRANCH   5  10
HETATM   10  N           1     -22.350  -5.672  -2.056  0.00  0.00    -0.066 N 
HETATM   11  H           1     -22.121  -5.512  -1.049  0.00  0.00     0.275 HD
HETATM   12  H           1     -23.285  -6.134  -2.131  0.00  0.00     0.275 HD
HETATM   13  H           1     -22.372  -4.756  -2.558  0.00  0.00     0.275 HD
ENDBRANCH   5  10
ENDBRANCH   1   5
BRANCH   2  14
HETATM   14  C           1     -21.191  -5.498  -6.353  0.00  0.00     0.185 C 
BRANCH  14  15
HETATM   15  C           1     -21.709  -4.141  -6.810  0.00  0.00     0.036 C 
BRANCH  15  16
HETATM   16  C           1     -22.855  -4.339  -7.793  0.00  0.00     0.003 C 
BRANCH  16  17
HETATM   17 Se           1     -22.205  -4.065  -9.611  0.00  0.00     0.000 Se
HETATM   18  C           1     -23.789  -4.815 -10.464  0.00  0.00     0.000 C 
ENDBRANCH  16  17
ENDBRANCH  15  16
ENDBRANCH  14  15
BRANCH  14  19
HETATM   19  C           1     -19.859  -5.775  -7.007  0.00  0.00     0.196 C 
HETATM   20  O           1     -19.381  -6.930  -6.987  0.00  0.00    -0.646 OA
HETATM   21  O           1     -19.235  -4.849  -7.570  0.00  0.00    -0.646 OA
ENDBRANCH  14  19
ENDBRANCH   2  14
TORSDOF 9
ENDMDL
MODEL 2
REMARK VINA RESULT:      -5.4      2.966      6.763
REMARK  9 active torsions:
REMARK  status: ('A' for Active; 'I' for Inactive)
REMARK       I    between atoms: C_1  and  N_7 
REMARK    1  A    between atoms: C_1  and  C_3 
REMARK    2  A    between atoms: C_2  and  C_8 
REMARK    3  A    between atoms: C_2  and  C_17 
REMARK    4  A    between atoms: C_2  and  N_7 
REMARK    5  A    between atoms: C_3  and  C_4 
REMARK    6  A    between atoms: C_3  and  N_20 
REMARK    7  A    between atoms: C_4  and  C_13 
REMARK    8  A    between atoms: C_8  and  C_9 
REMARK    9  A    between atoms: C_9  and  Se_10 
ROOT
HETATM    1  C           1     -21.598  -5.133  -6.922  0.00  0.00     0.249 C 
HETATM    2  N           1     -21.661  -6.401  -6.412  0.00  0.00    -0.345 N 
HETATM    3  H           1     -22.149  -7.127  -6.920  0.00  0.00     0.163 HD
HETATM    4  O           1     -21.014  -4.266  -6.316  0.00  0.00    -0.271 OA
ENDROOT
BRANCH   1   5
HETATM    5  C           1     -22.259  -4.816  -8.241  0.00  0.00     0.278 C 
BRANCH   5   6
HETATM    6  C           1     -21.326  -3.956  -9.084  0.00  0.00     0.021 C 
HETATM    7  C           1     -20.099  -4.770  -9.477  0.00  0.00     0.012 C 
BRANCH   6   8
HETATM    8  C           1     -22.056  -3.501 -10.342  0.00  0.00     0.002 C 
HETATM    9  C           1     -21.433  -4.169 -11.560  0.00  0.00     0.005 C 
ENDBRANCH   6   8
ENDBRANCH   5   6
BRANCH   5  10
HETATM   10  N           1     -23.537  -4.072  -7.994  0.00  0.00    -0.066 N 
HETATM   11  H           1     -24.238  -4.716  -7.563  0.00  0.00     0.275 HD
HETATM   12  H           1     -23.909  -3.707  -8.900  0.00  0.00     0.275 HD
HETATM   13  H           1     -23.353  -3.272  -7.345  0.00  0.00     0.275 HD
ENDBRANCH   5  10
ENDBRANCH   1   5
BRANCH   2  14
HETATM   14  C           1     -21.025  -6.705  -5.145  0.00  0.00     0.185 C 
BRANCH  14  15
HETATM   15  C           1     -22.061  -6.638  -4.030  0.00  0.00     0.036 C 
BRANCH  15  16
HETATM   16  C           1     -21.425  -6.043  -2.781  0.00  0.00     0.003 C 
BRANCH  16  17
HETATM   17 Se           1     -22.157  -6.916  -1.199  0.00  0.00     0.000 Se
HETATM   18  C           1     -20.883  -8.391  -1.222  0.00  0.00     0.000 C 
ENDBRANCH  16  17
ENDBRANCH  15  16
ENDBRANCH  14  15
BRANCH  14  19
HETATM   19  C           1     -20.431  -8.090  -5.198  0.00  0.00     0.196 C 
HETATM   20  O           1     -21.000  -8.990  -5.854  0.00  0.00    -0.646 OA
HETATM   21  O           1     -19.367  -8.338  -4.589  0.00  0.00    -0.646 OA
ENDBRANCH  14  19
ENDBRANCH   2  14
TORSDOF 9
ENDMDL
MODEL 3
REMARK VINA RESULT:      -5.3      2.849      6.963
REMARK  9 active torsions:
REMARK  status: ('A' for Active; 'I' for Inactive)
REMARK       I    between atoms: C_1  and  N_7 
REMARK    1  A    between atoms: C_1  and  C_3 
REMARK    2  A    between atoms: C_2  and  C_8 
REMARK    3  A    between atoms: C_2  and  C_17 
REMARK    4  A    between atoms: C_2  and  N_7 
REMARK    5  A    between atoms: C_3  and  C_4 
REMARK    6  A    between atoms: C_3  and  N_20 
REMARK    7  A    between atoms: C_4  and  C_13 
REMARK    8  A    between atoms: C_8  and  C_9 
REMARK    9  A    between atoms: C_9  and  Se_10 
ROOT
HETATM    1  C           1     -22.437  -4.374  -7.891  0.00  0.00     0.249 C 
HETATM    2  N           1     -22.059  -5.584  -7.376  0.00  0.00    -0.345 N 
HETATM    3  H           1     -22.434  -6.440  -7.765  0.00  0.00     0.163 HD
HETATM    4  O           1     -21.990  -3.353  -7.427  0.00  0.00    -0.271 OA
ENDROOT
BRANCH   1   5
HETATM    5  C           1     -23.414  -4.315  -9.040  0.00  0.00     0.278 C 
BRANCH   5   6
HETATM    6  C           1     -22.682  -4.598 -10.346  0.00  0.00     0.021 C 
HETATM    7  C           1     -23.688  -5.009 -11.414  0.00  0.00     0.012 C 
BRANCH   6   8
HETATM    8  C           1     -21.948  -3.342 -10.798  0.00  0.00     0.002 C 
HETATM    9  C           1     -20.496  -3.685 -11.104  0.00  0.00     0.005 C 
ENDBRANCH   6   8
ENDBRANCH   5   6
BRANCH   5  10
HETATM   10  N           1     -24.032  -2.950  -9.101  0.00  0.00    -0.066 N 
HETATM   11  H           1     -23.843  -2.441  -8.208  0.00  0.00     0.275 HD
HETATM   12  H           1     -25.064  -3.040  -9.239  0.00  0.00     0.275 HD
HETATM   13  H           1     -23.618  -2.417  -9.900  0.00  0.00     0.275 HD
ENDBRANCH   5  10
ENDBRANCH   1   5
BRANCH   2  14
HETATM   14  C           1     -21.120  -5.640  -6.272  0.00  0.00     0.185 C 
BRANCH  14  15
HETATM   15  C           1     -21.505  -6.778  -5.336  0.00  0.00     0.036 C 
BRANCH  15  16
HETATM   16  C           1     -21.759  -6.224  -3.941  0.00  0.00     0.003 C 
BRANCH  16  17
HETATM   17 Se           1     -21.167  -7.520  -2.609  0.00  0.00     0.000 Se
HETATM   18  C           1     -22.273  -6.798  -1.176  0.00  0.00     0.000 C 
ENDBRANCH  16  17
ENDBRANCH  15  16
ENDBRANCH  14  15
BRANCH  14  19
HETATM   19  C           1     -19.729  -5.876  -6.806  0.00  0.00     0.196 C 
HETATM   20  O           1     -19.026  -4.907  -7.168  0.00  0.00    -0.646 OA
HETATM   21  O           1     -19.278  -7.040  -6.885  0.00  0.00    -0.646 OA
ENDBRANCH  14  19
ENDBRANCH   2  14
TORSDOF 9
ENDMDL
MODEL 4
REMARK VINA RESULT:      -5.2      3.111      6.527
REMARK  9 active torsions:
REMARK  status: ('A' for Active; 'I' for Inactive)
REMARK       I    between atoms: C_1  and  N_7 
REMARK    1  A    between atoms: C_1  and  C_3 
REMARK    2  A    between atoms: C_2  and  C_8 
REMARK    3  A    between atoms: C_2  and  C_17 
REMARK    4  A    between atoms: C_2  and  N_7 
REMARK    5  A    between atoms: C_3  and  C_4 
REMARK    6  A    between atoms: C_3  and  N_20 
REMARK    7  A    between atoms: C_4  and  C_13 
REMARK    8  A    between atoms: C_8  and  C_9 
REMARK    9  A    between atoms: C_9  and  Se_10 
ROOT
HETATM    1  C           1     -21.709  -5.512  -5.884  0.00  0.00     0.249 C 
HETATM    2  N           1     -20.993  -6.369  -5.094  0.00  0.00    -0.345 N 
HETATM    3  H           1     -19.981  -6.345  -5.109  0.00  0.00     0.163 HD
HETATM    4  O           1     -22.917  -5.540  -5.866  0.00  0.00    -0.271 OA
ENDROOT
BRANCH   1   5
HETATM    5  C           1     -20.991  -4.532  -6.779  0.00  0.00     0.278 C 
BRANCH   5   6
HETATM    6  C           1     -21.357  -4.806  -8.233  0.00  0.00     0.021 C 
HETATM    7  C           1     -22.359  -3.762  -8.709  0.00  0.00     0.012 C 
BRANCH   6   8
HETATM    8  C           1     -20.103  -4.734  -9.094  0.00  0.00     0.002 C 
HETATM    9  C           1     -20.485  -4.343 -10.515  0.00  0.00     0.005 C 
ENDBRANCH   6   8
ENDBRANCH   5   6
BRANCH   5  10
HETATM   10  N           1     -19.510  -4.687  -6.601  0.00  0.00    -0.066 N 
HETATM   11  H           1     -19.181  -5.530  -7.125  0.00  0.00     0.275 HD
HETATM   12  H           1     -19.290  -4.800  -5.586  0.00  0.00     0.275 HD
HETATM   13  H           1     -19.025  -3.837  -6.970  0.00  0.00     0.275 HD
ENDBRANCH   5  10
ENDBRANCH   1   5
BRANCH   2  14
HETATM   14  C           1     -21.683  -7.309  -4.233  0.00  0.00     0.185 C 
BRANCH  14  15
HETATM   15  C           1     -21.022  -8.677  -4.343  0.00  0.00     0.036 C 
BRANCH  15  16
HETATM   16  C           1     -19.695  -8.542  -5.077  0.00  0.00     0.003 C 
BRANCH  16  17
HETATM   17 Se           1     -18.313  -9.518  -4.108  0.00  0.00     0.000 Se
HETATM   18  C           1     -17.290  -9.977  -5.702  0.00  0.00     0.000 C 
ENDBRANCH  16  17
ENDBRANCH  15  16
ENDBRANCH  14  15
BRANCH  14  19
HETATM   19  C           1     -21.615  -6.829  -2.805  0.00  0.00     0.196 C 
HETATM   20  O           1     -20.792  -7.339  -2.012  0.00  0.00    -0.646 OA
HETATM   21  O           1     -22.379  -5.920  -2.413  0.00  0.00    -0.646 OA
ENDBRANCH  14  19
ENDBRANCH   2  14
TORSDOF 9
ENDMDL
MODEL 5
REMARK VINA RESULT:      -5.2      3.267      6.757
REMARK  9 active torsions:
REMARK  status: ('A' for Active; 'I' for Inactive)
REMARK       I    between atoms: C_1  and  N_7 
REMARK    1  A    between atoms: C_1  and  C_3 
REMARK    2  A    between atoms: C_2  and  C_8 
REMARK    3  A    between atoms: C_2  and  C_17 
REMARK    4  A    between atoms: C_2  and  N_7 
REMARK    5  A    between atoms: C_3  and  C_4 
REMARK    6  A    between atoms: C_3  and  N_20 
REMARK    7  A    between atoms: C_4  and  C_13 
REMARK    8  A    between atoms: C_8  and  C_9 
REMARK    9  A    between atoms: C_9  and  Se_10 
ROOT
HETATM    1  C           1     -21.692  -5.597  -5.734  0.00  0.00     0.249 C 
HETATM    2  N           1     -20.934  -6.398  -4.924  0.00  0.00    -0.345 N 
HETATM    3  H           1     -19.926  -6.314  -4.929  0.00  0.00     0.163 HD
HETATM    4  O           1     -22.896  -5.697  -5.727  0.00  0.00    -0.271 OA
ENDROOT
BRANCH   1   5
HETATM    5  C           1     -21.025  -4.588  -6.635  0.00  0.00     0.278 C 
BRANCH   5   6
HETATM    6  C           1     -21.400  -4.872  -8.084  0.00  0.00     0.021 C 
HETATM    7  C           1     -22.373  -3.807  -8.575  0.00  0.00     0.012 C 
BRANCH   6   8
HETATM    8  C           1     -20.144  -4.847  -8.947  0.00  0.00     0.002 C 
HETATM    9  C           1     -20.487  -4.302 -10.326  0.00  0.00     0.005 C 
ENDBRANCH   6   8
ENDBRANCH   5   6
BRANCH   5  10
HETATM   10  N           1     -19.536  -4.685  -6.477  0.00  0.00    -0.066 N 
HETATM   11  H           1     -19.119  -3.727  -6.504  0.00  0.00     0.275 HD
HETATM   12  H           1     -19.140  -5.260  -7.255  0.00  0.00     0.275 HD
HETATM   13  H           1     -19.313  -5.137  -5.561  0.00  0.00     0.275 HD
ENDBRANCH   5  10
ENDBRANCH   1   5
BRANCH   2  14
HETATM   14  C           1     -21.576  -7.367  -4.057  0.00  0.00     0.185 C 
BRANCH  14  15
HETATM   15  C           1     -20.805  -8.680  -4.106  0.00  0.00     0.036 C 
BRANCH  15  16
HETATM   16  C           1     -21.775  -9.844  -3.955  0.00  0.00     0.003 C 
BRANCH  16  17
HETATM   17 Se           1     -21.239 -10.944  -2.437  0.00  0.00     0.000 Se
HETATM   18  C           1     -22.650 -10.295  -1.260  0.00  0.00     0.000 C 
ENDBRANCH  16  17
ENDBRANCH  15  16
ENDBRANCH  14  15
BRANCH  14  19
HETATM   19  C           1     -21.592  -6.845  -2.642  0.00  0.00     0.196 C 
HETATM   20  O           1     -20.797  -7.308  -1.795  0.00  0.00    -0.646 OA
HETATM   21  O           1     -22.399  -5.947  -2.316  0.00  0.00    -0.646 OA
ENDBRANCH  14  19
ENDBRANCH   2  14
TORSDOF 9
ENDMDL
MODEL 6
REMARK VINA RESULT:      -5.1      2.275      3.186
REMARK  9 active torsions:
REMARK  status: ('A' for Active; 'I' for Inactive)
REMARK       I    between atoms: C_1  and  N_7 
REMARK    1  A    between atoms: C_1  and  C_3 
REMARK    2  A    between atoms: C_2  and  C_8 
REMARK    3  A    between atoms: C_2  and  C_17 
REMARK    4  A    between atoms: C_2  and  N_7 
REMARK    5  A    between atoms: C_3  and  C_4 
REMARK    6  A    between atoms: C_3  and  N_20 
REMARK    7  A    between atoms: C_4  and  C_13 
REMARK    8  A    between atoms: C_8  and  C_9 
REMARK    9  A    between atoms: C_9  and  Se_10 
ROOT
HETATM    1  C           1     -21.355  -8.510  -2.328  0.00  0.00     0.249 C 
HETATM    2  N           1     -20.794  -7.789  -3.347  0.00  0.00    -0.345 N 
HETATM    3  H           1     -20.437  -6.858  -3.171  0.00  0.00     0.163 HD
HETATM    4  O           1     -21.780  -9.622  -2.536  0.00  0.00    -0.271 OA
ENDROOT
BRANCH   1   5
HETATM    5  C           1     -21.442  -7.918  -0.942  0.00  0.00     0.278 C 
BRANCH   5   6
HETATM    6  C           1     -21.806  -9.008   0.057  0.00  0.00     0.021 C 
HETATM    7  C           1     -21.086  -8.751   1.375  0.00  0.00     0.012 C 
BRANCH   6   8
HETATM    8  C           1     -23.311  -8.998   0.291  0.00  0.00     0.002 C 
HETATM    9  C           1     -23.875 -10.387   0.026  0.00  0.00     0.005 C 
ENDBRANCH   6   8
ENDBRANCH   5   6
BRANCH   5  10
HETATM   10  N           1     -22.495  -6.850  -0.921  0.00  0.00    -0.066 N 
HETATM   11  H           1     -23.169  -7.010  -1.704  0.00  0.00     0.275 HD
HETATM   12  H           1     -22.045  -5.914  -1.034  0.00  0.00     0.275 HD
HETATM   13  H           1     -23.007  -6.885  -0.010  0.00  0.00     0.275 HD
ENDBRANCH   5  10
ENDBRANCH   1   5
BRANCH   2  14
HETATM   14  C           1     -20.710  -8.359  -4.677  0.00  0.00     0.185 C 
BRANCH  14  15
HETATM   15  C           1     -21.218  -7.347  -5.695  0.00  0.00     0.036 C 
BRANCH  15  16
HETATM   16  C           1     -21.287  -5.969  -5.051  0.00  0.00     0.003 C 
BRANCH  16  17
HETATM   17 Se           1     -20.306  -4.690  -6.148  0.00  0.00     0.000 Se
HETATM   18  C           1     -21.783  -4.363  -7.377  0.00  0.00     0.000 C 
ENDBRANCH  16  17
ENDBRANCH  15  16
ENDBRANCH  14  15
BRANCH  14  19
HETATM   19  C           1     -19.275  -8.707  -4.986  0.00  0.00     0.196 C 
HETATM   20  O           1     -18.508  -9.071  -4.067  0.00  0.00    -0.646 OA
HETATM   21  O           1     -18.852  -8.633  -6.160  0.00  0.00    -0.646 OA
ENDBRANCH  14  19
ENDBRANCH   2  14
TORSDOF 9
ENDMDL
MODEL 7
REMARK VINA RESULT:      -4.9      4.014      5.967
REMARK  9 active torsions:
REMARK  status: ('A' for Active; 'I' for Inactive)
REMARK       I    between atoms: C_1  and  N_7 
REMARK    1  A    between atoms: C_1  and  C_3 
REMARK    2  A    between atoms: C_2  and  C_8 
REMARK    3  A    between atoms: C_2  and  C_17 
REMARK    4  A    between atoms: C_2  and  N_7 
REMARK    5  A    between atoms: C_3  and  C_4 
REMARK    6  A    between atoms: C_3  and  N_20 
REMARK    7  A    between atoms: C_4  and  C_13 
REMARK    8  A    between atoms: C_8  and  C_9 
REMARK    9  A    between atoms: C_9  and  Se_10 
ROOT
HETATM    1  C           1     -21.344 -10.112  -0.488  0.00  0.00     0.249 C 
HETATM    2  N           1     -21.574  -9.245  -1.522  0.00  0.00    -0.345 N 
HETATM    3  H           1     -22.044  -9.568  -2.357  0.00  0.00     0.163 HD
HETATM    4  O           1     -20.783  -9.727   0.510  0.00  0.00    -0.271 OA
ENDROOT
BRANCH   1   5
HETATM    5  C           1     -21.793 -11.549  -0.594  0.00  0.00     0.278 C 
BRANCH   5   6
HETATM    6  C           1     -22.945 -11.796   0.371  0.00  0.00     0.021 C 
HETATM    7  C           1     -24.193 -11.083  -0.136  0.00  0.00     0.012 C 
BRANCH   6   8
HETATM    8  C           1     -23.218 -13.292   0.462  0.00  0.00     0.002 C 
HETATM    9  C           1     -23.325 -13.700   1.925  0.00  0.00     0.005 C 
ENDBRANCH   6   8
ENDBRANCH   5   6
BRANCH   5  10
HETATM   10  N           1     -20.649 -12.456  -0.247  0.00  0.00    -0.066 N 
HETATM   11  H           1     -20.931 -13.089   0.536  0.00  0.00     0.275 HD
HETATM   12  H           1     -19.826 -11.883   0.047  0.00  0.00     0.275 HD
HETATM   13  H           1     -20.394 -13.030  -1.083  0.00  0.00     0.275 HD
ENDBRANCH   5  10
ENDBRANCH   1   5
BRANCH   2  14
HETATM   14  C           1     -21.143  -7.865  -1.418  0.00  0.00     0.185 C 
BRANCH  14  15
HETATM   15  C           1     -20.486  -7.440  -2.725  0.00  0.00     0.036 C 
BRANCH  15  16
HETATM   16  C           1     -20.745  -8.495  -3.791  0.00  0.00     0.003 C 
BRANCH  16  17
HETATM   17 Se           1     -21.407  -7.635  -5.410  0.00  0.00     0.000 Se
HETATM   18  C           1     -20.877  -5.839  -4.869  0.00  0.00     0.000 C 
ENDBRANCH  16  17
ENDBRANCH  15  16
ENDBRANCH  14  15
BRANCH  14  19
HETATM   19  C           1     -22.338  -6.984  -1.145  0.00  0.00     0.196 C 
HETATM   20  O           1     -22.583  -6.014  -1.895  0.00  0.00    -0.646 OA
HETATM   21  O           1     -23.083  -7.225  -0.171  0.00  0.00    -0.646 OA
ENDBRANCH  14  19
ENDBRANCH   2  14
TORSDOF 9
ENDMDL
MODEL 8
REMARK VINA RESULT:      -4.8      3.268      4.478
REMARK  9 active torsions:
REMARK  status: ('A' for Active; 'I' for Inactive)
REMARK       I    between atoms: C_1  and  N_7 
REMARK    1  A    between atoms: C_1  and  C_3 
REMARK    2  A    between atoms: C_2  and  C_8 
REMARK    3  A    between atoms: C_2  and  C_17 
REMARK    4  A    between atoms: C_2  and  N_7 
REMARK    5  A    between atoms: C_3  and  C_4 
REMARK    6  A    between atoms: C_3  and  N_20 
REMARK    7  A    between atoms: C_4  and  C_13 
REMARK    8  A    between atoms: C_8  and  C_9 
REMARK    9  A    between atoms: C_9  and  Se_10 
ROOT
HETATM    1  C           1     -20.754  -8.036  -2.088  0.00  0.00     0.249 C 
HETATM    2  N           1     -21.489  -7.717  -3.198  0.00  0.00    -0.345 N 
HETATM    3  H           1     -22.388  -7.264  -3.096  0.00  0.00     0.163 HD
HETATM    4  O           1     -19.681  -8.576  -2.208  0.00  0.00    -0.271 OA
ENDROOT
BRANCH   1   5
HETATM    5  C           1     -21.285  -7.711  -0.713  0.00  0.00     0.278 C 
BRANCH   5   6
HETATM    6  C           1     -21.644  -9.002   0.012  0.00  0.00     0.021 C 
HETATM    7  C           1     -21.015  -8.998   1.400  0.00  0.00     0.012 C 
BRANCH   6   8
HETATM    8  C           1     -23.158  -9.105   0.143  0.00  0.00     0.002 C 
HETATM    9  C           1     -23.610 -10.498  -0.275  0.00  0.00     0.005 C 
ENDBRANCH   6   8
ENDBRANCH   5   6
BRANCH   5  10
HETATM   10  N           1     -22.509  -6.854  -0.840  0.00  0.00    -0.066 N 
HETATM   11  H           1     -22.444  -6.278  -1.710  0.00  0.00     0.275 HD
HETATM   12  H           1     -22.582  -6.224  -0.009  0.00  0.00     0.275 HD
HETATM   13  H           1     -23.357  -7.464  -0.890  0.00  0.00     0.275 HD
ENDBRANCH   5  10
ENDBRANCH   1   5
BRANCH   2  14
HETATM   14  C           1     -20.978  -8.028  -4.518  0.00  0.00     0.185 C 
BRANCH  14  15
HETATM   15  C           1     -21.507  -9.386  -4.960  0.00  0.00     0.036 C 
BRANCH  15  16
HETATM   16  C           1     -20.337 -10.315  -5.256  0.00  0.00     0.003 C 
BRANCH  16  17
HETATM   17 Se           1     -20.946 -11.790  -6.377  0.00  0.00     0.000 Se
HETATM   18  C           1     -19.187 -12.155  -7.134  0.00  0.00     0.000 C 
ENDBRANCH  16  17
ENDBRANCH  15  16
ENDBRANCH  14  15
BRANCH  14  19
HETATM   19  C           1     -21.429  -6.970  -5.495  0.00  0.00     0.196 C 
HETATM   20  O           1     -22.260  -6.105  -5.140  0.00  0.00    -0.646 OA
HETATM   21  O           1     -20.971  -6.956  -6.658  0.00  0.00    -0.646 OA
ENDBRANCH  14  19
ENDBRANCH   2  14
TORSDOF 9
ENDMDL
MODEL 9
REMARK VINA RESULT:      -4.8      4.396      5.446
REMARK  9 active torsions:
REMARK  status: ('A' for Active; 'I' for Inactive)
REMARK       I    between atoms: C_1  and  N_7 
REMARK    1  A    between atoms: C_1  and  C_3 
REMARK    2  A    between atoms: C_2  and  C_8 
REMARK    3  A    between atoms: C_2  and  C_17 
REMARK    4  A    between atoms: C_2  and  N_7 
REMARK    5  A    between atoms: C_3  and  C_4 
REMARK    6  A    between atoms: C_3  and  N_20 
REMARK    7  A    between atoms: C_4  and  C_13 
REMARK    8  A    between atoms: C_8  and  C_9 
REMARK    9  A    between atoms: C_9  and  Se_10 
ROOT
HETATM    1  C           1     -20.969  -7.830  -1.978  0.00  0.00     0.249 C 
HETATM    2  N           1     -20.330  -8.833  -2.654  0.00  0.00    -0.345 N 
HETATM    3  H           1     -20.191  -9.733  -2.212  0.00  0.00     0.163 HD
HETATM    4  O           1     -21.135  -6.756  -2.505  0.00  0.00    -0.271 OA
ENDROOT
BRANCH   1   5
HETATM    5  C           1     -21.469  -8.066  -0.573  0.00  0.00     0.278 C 
BRANCH   5   6
HETATM    6  C           1     -21.857  -9.530  -0.410  0.00  0.00     0.021 C 
HETATM    7  C           1     -21.021 -10.157   0.699  0.00  0.00     0.012 C 
BRANCH   6   8
HETATM    8  C           1     -23.333  -9.624  -0.045  0.00  0.00     0.002 C 
HETATM    9  C           1     -23.841 -11.028  -0.343  0.00  0.00     0.005 C 
ENDBRANCH   6   8
ENDBRANCH   5   6
BRANCH   5  10
HETATM   10  N           1     -22.667  -7.200  -0.317  0.00  0.00    -0.066 N 
HETATM   11  H           1     -22.360  -6.294   0.104  0.00  0.00     0.275 HD
HETATM   12  H           1     -23.315  -7.689   0.341  0.00  0.00     0.275 HD
HETATM   13  H           1     -23.161  -7.015  -1.220  0.00  0.00     0.275 HD
ENDBRANCH   5  10
ENDBRANCH   1   5
BRANCH   2  14
HETATM   14  C           1     -19.851  -8.606  -4.004  0.00  0.00     0.185 C 
BRANCH  14  15
HETATM   15  C           1     -18.544  -9.359  -4.211  0.00  0.00     0.036 C 
BRANCH  15  16
HETATM   16  C           1     -17.992  -9.801  -2.862  0.00  0.00     0.003 C 
BRANCH  16  17
HETATM   17 Se           1     -16.045  -9.699  -2.891  0.00  0.00     0.000 Se
HETATM   18  C           1     -15.898  -9.927  -4.821  0.00  0.00     0.000 C 
ENDBRANCH  16  17
ENDBRANCH  15  16
ENDBRANCH  14  15
BRANCH  14  19
HETATM   19  C           1     -20.879  -9.099  -4.992  0.00  0.00     0.196 C 
HETATM   20  O           1     -21.376 -10.239  -4.861  0.00  0.00    -0.646 OA
HETATM   21  O           1     -21.235  -8.367  -5.941  0.00  0.00    -0.646 OA
ENDBRANCH  14  19
ENDBRANCH   2  14
TORSDOF 9
ENDMDL
