MODEL 1
REMARK VINA RESULT:      -8.2      0.000      0.000
REMARK  9 active torsions:
REMARK  status: ('A' for Active; 'I' for Inactive)
REMARK    1  A    between atoms: N_9  and  C_20 
REMARK    2  A    between atoms: O_14  and  P_15 
REMARK    3  A    between atoms: P_15  and  O_16 
REMARK    4  A    between atoms: O_16  and  C_17 
REMARK    5  A    between atoms: C_18  and  C_19 
REMARK    6  A    between atoms: C_19  and  C_20 
REMARK    7  A    between atoms: C_20  and  C_21 
REMARK       I    between atoms: C_21  and  N_22 
REMARK    8  A    between atoms: N_22  and  C_23 
REMARK    9  A    between atoms: C_23  and  C_25 
ROOT
HETATM    1  C           1     -20.019  -4.939  -5.771  0.00  0.00     0.081 C 
ENDROOT
BRANCH   1   2
HETATM    2  C           1     -20.626  -4.595  -7.095  0.00  0.00    -0.056 A 
HETATM    3  C           1     -21.880  -3.989  -7.151  0.00  0.00     0.010 A 
HETATM    4  C           1     -22.444  -3.667  -8.386  0.00  0.00     0.038 A 
HETATM    5  C           1     -21.755  -3.952  -9.564  0.00  0.00     0.081 A 
HETATM    6  C           1     -20.499  -4.558  -9.508  0.00  0.00     0.038 A 
HETATM    7  C           1     -19.935  -4.879  -8.273  0.00  0.00     0.010 A 
BRANCH   5   8
HETATM    8  O           1     -22.304  -3.640 -10.763  0.00  0.00    -0.247 OA
BRANCH   8   9
HETATM    9  P           1     -23.710  -4.331 -11.156  0.00  0.00     0.411 P 
HETATM   10  O           1     -24.808  -3.355 -10.970  0.00  0.00    -0.624 OA
HETATM   11  O           1     -23.940  -5.506 -10.287  0.00  0.00    -0.624 OA
BRANCH   9  12
HETATM   12  O           1     -23.667  -4.802 -12.699  0.00  0.00    -0.300 OA
HETATM   13  H           1     -23.250  -5.646 -12.685  0.00  0.00     0.223 HD
ENDBRANCH   9  12
ENDBRANCH   8   9
ENDBRANCH   5   8
ENDBRANCH   1   2
BRANCH   1  14
HETATM   14  C           1     -20.465  -6.335  -5.355  0.00  0.00     0.278 C 
BRANCH  14  15
HETATM   15  N           1     -20.988  -7.070  -6.554  0.00  0.00    -0.066 N 
HETATM   16  H           1     -20.437  -6.796  -7.398  0.00  0.00     0.275 HD
HETATM   17  H           1     -21.994  -6.825  -6.699  0.00  0.00     0.275 HD
HETATM   18  H           1     -20.899  -8.099  -6.398  0.00  0.00     0.275 HD
ENDBRANCH  14  15
BRANCH  14  19
HETATM   19  C           1     -21.553  -6.228  -4.316  0.00  0.00     0.249 C 
HETATM   20  O           1     -22.712  -6.190  -4.656  0.00  0.00    -0.271 OA
HETATM   21  N           1     -21.228  -6.173  -2.987  0.00  0.00    -0.349 N 
HETATM   22  H           1     -20.257  -6.205  -2.701  0.00  0.00     0.163 HD
BRANCH  21  23
HETATM   23  C           1     -22.273  -6.071  -1.988  0.00  0.00     0.235 C 
BRANCH  23  24
HETATM   24  C           1     -22.120  -7.184  -0.982  0.00  0.00     0.191 C 
HETATM   25  O           1     -23.025  -7.400  -0.146  0.00  0.00    -0.647 OA
HETATM   26  O           1     -21.088  -7.890  -0.981  0.00  0.00    -0.647 OA
ENDBRANCH  23  24
ENDBRANCH  21  23
ENDBRANCH  14  19
ENDBRANCH   1  14
TORSDOF 9
ENDMDL
MODEL 2
REMARK VINA RESULT:      -7.7      2.308      3.207
REMARK  9 active torsions:
REMARK  status: ('A' for Active; 'I' for Inactive)
REMARK    1  A    between atoms: N_9  and  C_20 
REMARK    2  A    between atoms: O_14  and  P_15 
REMARK    3  A    between atoms: P_15  and  O_16 
REMARK    4  A    between atoms: O_16  and  C_17 
REMARK    5  A    between atoms: C_18  and  C_19 
REMARK    6  A    between atoms: C_19  and  C_20 
REMARK    7  A    between atoms: C_20  and  C_21 
REMARK       I    between atoms: C_21  and  N_22 
REMARK    8  A    between atoms: N_22  and  C_23 
REMARK    9  A    between atoms: C_23  and  C_25 
ROOT
HETATM    1  C           1     -20.369  -5.182  -5.598  0.00  0.00     0.081 C 
ENDROOT
BRANCH   1   2
HETATM    2  C           1     -20.881  -4.786  -6.947  0.00  0.00    -0.056 A 
HETATM    3  C           1     -20.081  -4.961  -8.076  0.00  0.00     0.010 A 
HETATM    4  C           1     -20.561  -4.592  -9.333  0.00  0.00     0.038 A 
HETATM    5  C           1     -21.839  -4.049  -9.461  0.00  0.00     0.081 A 
HETATM    6  C           1     -22.640  -3.875  -8.332  0.00  0.00     0.038 A 
HETATM    7  C           1     -22.160  -4.244  -7.075  0.00  0.00     0.010 A 
BRANCH   5   8
HETATM    8  O           1     -22.303  -3.691 -10.683  0.00  0.00    -0.247 OA
BRANCH   8   9
HETATM    9  P           1     -23.702  -4.329 -11.178  0.00  0.00     0.411 P 
HETATM   10  O           1     -24.786  -3.334 -11.009  0.00  0.00    -0.624 OA
HETATM   11  O           1     -24.006  -5.533 -10.374  0.00  0.00    -0.624 OA
BRANCH   9  12
HETATM   12  O           1     -23.588  -4.737 -12.736  0.00  0.00    -0.300 OA
HETATM   13  H           1     -22.669  -4.687 -12.935  0.00  0.00     0.223 HD
ENDBRANCH   9  12
ENDBRANCH   8   9
ENDBRANCH   5   8
ENDBRANCH   1   2
BRANCH   1  14
HETATM   14  C           1     -21.348  -6.150  -4.946  0.00  0.00     0.278 C 
BRANCH  14  15
HETATM   15  N           1     -21.393  -5.896  -3.468  0.00  0.00    -0.066 N 
HETATM   16  H           1     -22.075  -5.131  -3.268  0.00  0.00     0.275 HD
HETATM   17  H           1     -20.444  -5.612  -3.135  0.00  0.00     0.275 HD
HETATM   18  H           1     -21.690  -6.766  -2.973  0.00  0.00     0.275 HD
ENDBRANCH  14  15
BRANCH  14  19
HETATM   19  C           1     -20.897  -7.568  -5.199  0.00  0.00     0.249 C 
HETATM   20  O           1     -21.287  -8.161  -6.177  0.00  0.00    -0.271 OA
HETATM   21  N           1     -20.047  -8.183  -4.320  0.00  0.00    -0.349 N 
HETATM   22  H           1     -19.720  -7.687  -3.501  0.00  0.00     0.163 HD
BRANCH  21  23
HETATM   23  C           1     -19.614  -9.545  -4.563  0.00  0.00     0.235 C 
BRANCH  23  24
HETATM   24  C           1     -18.233  -9.535  -5.171  0.00  0.00     0.191 C 
HETATM   25  O           1     -18.097  -9.438  -6.410  0.00  0.00    -0.647 OA
HETATM   26  O           1     -17.225  -9.625  -4.437  0.00  0.00    -0.647 OA
ENDBRANCH  23  24
ENDBRANCH  21  23
ENDBRANCH  14  19
ENDBRANCH   1  14
TORSDOF 9
ENDMDL
MODEL 3
REMARK VINA RESULT:      -7.6     12.163     14.575
REMARK  9 active torsions:
REMARK  status: ('A' for Active; 'I' for Inactive)
REMARK    1  A    between atoms: N_9  and  C_20 
REMARK    2  A    between atoms: O_14  and  P_15 
REMARK    3  A    between atoms: P_15  and  O_16 
REMARK    4  A    between atoms: O_16  and  C_17 
REMARK    5  A    between atoms: C_18  and  C_19 
REMARK    6  A    between atoms: C_19  and  C_20 
REMARK    7  A    between atoms: C_20  and  C_21 
REMARK       I    between atoms: C_21  and  N_22 
REMARK    8  A    between atoms: N_22  and  C_23 
REMARK    9  A    between atoms: C_23  and  C_25 
ROOT
HETATM    1  C           1     -31.571  -4.038 -17.541  0.00  0.00     0.081 C 
ENDROOT
BRANCH   1   2
HETATM    2  C           1     -30.177  -4.580 -17.498  0.00  0.00    -0.056 A 
HETATM    3  C           1     -29.166  -3.855 -16.866  0.00  0.00     0.010 A 
HETATM    4  C           1     -27.867  -4.362 -16.826  0.00  0.00     0.038 A 
HETATM    5  C           1     -27.578  -5.592 -17.417  0.00  0.00     0.081 A 
HETATM    6  C           1     -28.589  -6.317 -18.047  0.00  0.00     0.038 A 
HETATM    7  C           1     -29.889  -5.811 -18.087  0.00  0.00     0.010 A 
BRANCH   5   8
HETATM    8  O           1     -26.316  -6.083 -17.377  0.00  0.00    -0.247 OA
BRANCH   8   9
HETATM    9  P           1     -25.836  -6.832 -16.029  0.00  0.00     0.411 P 
HETATM   10  O           1     -27.015  -7.387 -15.327  0.00  0.00    -0.624 OA
HETATM   11  O           1     -25.146  -5.865 -15.147  0.00  0.00    -0.624 OA
BRANCH   9  12
HETATM   12  O           1     -24.824  -8.031 -16.409  0.00  0.00    -0.300 OA
HETATM   13  H           1     -25.362  -8.803 -16.444  0.00  0.00     0.223 HD
ENDBRANCH   9  12
ENDBRANCH   8   9
ENDBRANCH   5   8
ENDBRANCH   1   2
BRANCH   1  14
HETATM   14  C           1     -32.438  -4.784 -16.534  0.00  0.00     0.278 C 
BRANCH  14  15
HETATM   15  N           1     -32.737  -6.159 -17.054  0.00  0.00    -0.066 N 
HETATM   16  H           1     -31.902  -6.772 -16.916  0.00  0.00     0.275 HD
HETATM   17  H           1     -32.963  -6.103 -18.073  0.00  0.00     0.275 HD
HETATM   18  H           1     -33.552  -6.558 -16.537  0.00  0.00     0.275 HD
ENDBRANCH  14  15
BRANCH  14  19
HETATM   19  C           1     -33.730  -4.033 -16.327  0.00  0.00     0.249 C 
HETATM   20  O           1     -34.596  -4.501 -15.627  0.00  0.00    -0.271 OA
HETATM   21  N           1     -33.921  -2.819 -16.931  0.00  0.00    -0.349 N 
HETATM   22  H           1     -33.195  -2.426 -17.517  0.00  0.00     0.163 HD
BRANCH  21  23
HETATM   23  C           1     -35.161  -2.097 -16.732  0.00  0.00     0.235 C 
BRANCH  23  24
HETATM   24  C           1     -35.021  -1.170 -15.549  0.00  0.00     0.191 C 
HETATM   25  O           1     -35.319  -1.570 -14.403  0.00  0.00    -0.647 OA
HETATM   26  O           1     -34.610  -0.001 -15.716  0.00  0.00    -0.647 OA
ENDBRANCH  23  24
ENDBRANCH  21  23
ENDBRANCH  14  19
ENDBRANCH   1  14
TORSDOF 9
ENDMDL
MODEL 4
REMARK VINA RESULT:      -7.5     12.015     13.470
REMARK  9 active torsions:
REMARK  status: ('A' for Active; 'I' for Inactive)
REMARK    1  A    between atoms: N_9  and  C_20 
REMARK    2  A    between atoms: O_14  and  P_15 
REMARK    3  A    between atoms: P_15  and  O_16 
REMARK    4  A    between atoms: O_16  and  C_17 
REMARK    5  A    between atoms: C_18  and  C_19 
REMARK    6  A    between atoms: C_19  and  C_20 
REMARK    7  A    between atoms: C_20  and  C_21 
REMARK       I    between atoms: C_21  and  N_22 
REMARK    8  A    between atoms: N_22  and  C_23 
REMARK    9  A    between atoms: C_23  and  C_25 
ROOT
HETATM    1  C           1     -31.652  -4.232 -17.265  0.00  0.00     0.081 C 
ENDROOT
BRANCH   1   2
HETATM    2  C           1     -30.247  -4.746 -17.322  0.00  0.00    -0.056 A 
HETATM    3  C           1     -29.204  -3.985 -16.794  0.00  0.00     0.010 A 
HETATM    4  C           1     -27.896  -4.465 -16.847  0.00  0.00     0.038 A 
HETATM    5  C           1     -27.630  -5.705 -17.428  0.00  0.00     0.081 A 
HETATM    6  C           1     -28.673  -6.467 -17.955  0.00  0.00     0.038 A 
HETATM    7  C           1     -29.982  -5.986 -17.902  0.00  0.00     0.010 A 
BRANCH   5   8
HETATM    8  O           1     -26.358  -6.171 -17.479  0.00  0.00    -0.247 OA
BRANCH   8   9
HETATM    9  P           1     -25.735  -6.822 -16.139  0.00  0.00     0.411 P 
HETATM   10  O           1     -26.826  -7.381 -15.309  0.00  0.00    -0.624 OA
HETATM   11  O           1     -25.016  -5.779 -15.374  0.00  0.00    -0.624 OA
BRANCH   9  12
HETATM   12  O           1     -24.707  -8.001 -16.539  0.00  0.00    -0.300 OA
HETATM   13  H           1     -24.946  -8.729 -15.991  0.00  0.00     0.223 HD
ENDBRANCH   9  12
ENDBRANCH   8   9
ENDBRANCH   5   8
ENDBRANCH   1   2
BRANCH   1  14
HETATM   14  C           1     -32.457  -5.063 -16.275  0.00  0.00     0.278 C 
BRANCH  14  15
HETATM   15  N           1     -33.229  -6.113 -17.016  0.00  0.00    -0.066 N 
HETATM   16  H           1     -32.597  -6.598 -17.691  0.00  0.00     0.275 HD
HETATM   17  H           1     -34.016  -5.664 -17.537  0.00  0.00     0.275 HD
HETATM   18  H           1     -33.613  -6.809 -16.337  0.00  0.00     0.275 HD
ENDBRANCH  14  15
BRANCH  14  19
HETATM   19  C           1     -33.415  -4.168 -15.527  0.00  0.00     0.249 C 
HETATM   20  O           1     -34.135  -3.411 -16.135  0.00  0.00    -0.271 OA
HETATM   21  N           1     -33.469  -4.213 -14.161  0.00  0.00    -0.349 N 
HETATM   22  H           1     -32.867  -4.847 -13.650  0.00  0.00     0.163 HD
BRANCH  21  23
HETATM   23  C           1     -34.390  -3.354 -13.442  0.00  0.00     0.235 C 
BRANCH  23  24
HETATM   24  C           1     -33.882  -3.130 -12.040  0.00  0.00     0.191 C 
HETATM   25  O           1     -32.756  -3.561 -11.707  0.00  0.00    -0.647 OA
HETATM   26  O           1     -34.586  -2.515 -11.209  0.00  0.00    -0.647 OA
ENDBRANCH  23  24
ENDBRANCH  21  23
ENDBRANCH  14  19
ENDBRANCH   1  14
TORSDOF 9
ENDMDL
MODEL 5
REMARK VINA RESULT:      -7.4      3.329      8.348
REMARK  9 active torsions:
REMARK  status: ('A' for Active; 'I' for Inactive)
REMARK    1  A    between atoms: N_9  and  C_20 
REMARK    2  A    between atoms: O_14  and  P_15 
REMARK    3  A    between atoms: P_15  and  O_16 
REMARK    4  A    between atoms: O_16  and  C_17 
REMARK    5  A    between atoms: C_18  and  C_19 
REMARK    6  A    between atoms: C_19  and  C_20 
REMARK    7  A    between atoms: C_20  and  C_21 
REMARK       I    between atoms: C_21  and  N_22 
REMARK    8  A    between atoms: N_22  and  C_23 
REMARK    9  A    between atoms: C_23  and  C_25 
ROOT
HETATM    1  C           1     -21.616  -6.401  -6.338  0.00  0.00     0.081 C 
ENDROOT
BRANCH   1   2
HETATM    2  C           1     -21.437  -6.902  -4.939  0.00  0.00    -0.056 A 
HETATM    3  C           1     -21.195  -6.001  -3.902  0.00  0.00     0.010 A 
HETATM    4  C           1     -21.029  -6.469  -2.598  0.00  0.00     0.038 A 
HETATM    5  C           1     -21.105  -7.836  -2.331  0.00  0.00     0.081 A 
HETATM    6  C           1     -21.348  -8.736  -3.368  0.00  0.00     0.038 A 
HETATM    7  C           1     -21.514  -8.269  -4.672  0.00  0.00     0.010 A 
BRANCH   5   8
HETATM    8  O           1     -20.943  -8.289  -1.064  0.00  0.00    -0.247 OA
BRANCH   8   9
HETATM    9  P           1     -22.229  -8.280  -0.087  0.00  0.00     0.411 P 
HETATM   10  O           1     -23.074  -7.104  -0.393  0.00  0.00    -0.624 OA
HETATM   11  O           1     -21.777  -8.211   1.320  0.00  0.00    -0.624 OA
BRANCH   9  12
HETATM   12  O           1     -23.086  -9.630  -0.311  0.00  0.00    -0.300 OA
HETATM   13  H           1     -23.796  -9.573   0.306  0.00  0.00     0.223 HD
ENDBRANCH   9  12
ENDBRANCH   8   9
ENDBRANCH   5   8
ENDBRANCH   1   2
BRANCH   1  14
HETATM   14  C           1     -22.379  -5.083  -6.312  0.00  0.00     0.278 C 
BRANCH  14  15
HETATM   15  N           1     -23.825  -5.348  -6.013  0.00  0.00    -0.066 N 
HETATM   16  H           1     -24.300  -4.450  -5.769  0.00  0.00     0.275 HD
HETATM   17  H           1     -23.897  -6.010  -5.207  0.00  0.00     0.275 HD
HETATM   18  H           1     -24.283  -5.768  -6.852  0.00  0.00     0.275 HD
ENDBRANCH  14  15
BRANCH  14  19
HETATM   19  C           1     -22.259  -4.405  -7.655  0.00  0.00     0.249 C 
HETATM   20  O           1     -21.170  -4.221  -8.144  0.00  0.00    -0.271 OA
HETATM   21  N           1     -23.385  -4.000  -8.320  0.00  0.00    -0.349 N 
HETATM   22  H           1     -24.298  -4.154  -7.911  0.00  0.00     0.163 HD
BRANCH  21  23
HETATM   23  C           1     -23.271  -3.349  -9.611  0.00  0.00     0.235 C 
BRANCH  23  24
HETATM   24  C           1     -24.571  -3.488 -10.362  0.00  0.00     0.191 C 
HETATM   25  O           1     -24.580  -3.988 -11.508  0.00  0.00    -0.647 OA
HETATM   26  O           1     -25.640  -3.102  -9.841  0.00  0.00    -0.647 OA
ENDBRANCH  23  24
ENDBRANCH  21  23
ENDBRANCH  14  19
ENDBRANCH   1  14
TORSDOF 9
ENDMDL
MODEL 6
REMARK VINA RESULT:      -7.4      2.275      2.737
REMARK  9 active torsions:
REMARK  status: ('A' for Active; 'I' for Inactive)
REMARK    1  A    between atoms: N_9  and  C_20 
REMARK    2  A    between atoms: O_14  and  P_15 
REMARK    3  A    between atoms: P_15  and  O_16 
REMARK    4  A    between atoms: O_16  and  C_17 
REMARK    5  A    between atoms: C_18  and  C_19 
REMARK    6  A    between atoms: C_19  and  C_20 
REMARK    7  A    between atoms: C_20  and  C_21 
REMARK       I    between atoms: C_21  and  N_22 
REMARK    8  A    between atoms: N_22  and  C_23 
REMARK    9  A    between atoms: C_23  and  C_25 
ROOT
HETATM    1  C           1     -20.444  -5.393  -5.529  0.00  0.00     0.081 C 
ENDROOT
BRANCH   1   2
HETATM    2  C           1     -20.955  -4.925  -6.856  0.00  0.00    -0.056 A 
HETATM    3  C           1     -20.134  -4.991  -7.982  0.00  0.00     0.010 A 
HETATM    4  C           1     -20.611  -4.554  -9.218  0.00  0.00     0.038 A 
HETATM    5  C           1     -21.908  -4.052  -9.328  0.00  0.00     0.081 A 
HETATM    6  C           1     -22.729  -3.987  -8.202  0.00  0.00     0.038 A 
HETATM    7  C           1     -22.252  -4.423  -6.966  0.00  0.00     0.010 A 
BRANCH   5   8
HETATM    8  O           1     -22.370  -3.628 -10.529  0.00  0.00    -0.247 OA
BRANCH   8   9
HETATM    9  P           1     -23.715  -4.310 -11.107  0.00  0.00     0.411 P 
HETATM   10  O           1     -24.845  -3.361 -10.977  0.00  0.00    -0.624 OA
HETATM   11  O           1     -24.012  -5.540 -10.340  0.00  0.00    -0.624 OA
BRANCH   9  12
HETATM   12  O           1     -23.506  -4.684 -12.663  0.00  0.00    -0.300 OA
HETATM   13  H           1     -23.604  -3.870 -13.126  0.00  0.00     0.223 HD
ENDBRANCH   9  12
ENDBRANCH   8   9
ENDBRANCH   5   8
ENDBRANCH   1   2
BRANCH   1  14
HETATM   14  C           1     -21.475  -6.311  -4.883  0.00  0.00     0.278 C 
BRANCH  14  15
HETATM   15  N           1     -21.613  -5.962  -3.431  0.00  0.00    -0.066 N 
HETATM   16  H           1     -21.139  -6.692  -2.852  0.00  0.00     0.275 HD
HETATM   17  H           1     -22.626  -5.921  -3.178  0.00  0.00     0.275 HD
HETATM   18  H           1     -21.170  -5.033  -3.251  0.00  0.00     0.275 HD
ENDBRANCH  14  15
BRANCH  14  19
HETATM   19  C           1     -21.026  -7.745  -5.016  0.00  0.00     0.249 C 
HETATM   20  O           1     -20.080  -8.020  -5.716  0.00  0.00    -0.271 OA
HETATM   21  N           1     -21.691  -8.735  -4.345  0.00  0.00    -0.349 N 
HETATM   22  H           1     -22.484  -8.506  -3.758  0.00  0.00     0.163 HD
BRANCH  21  23
HETATM   23  C           1     -21.260 -10.114  -4.472  0.00  0.00     0.235 C 
BRANCH  23  24
HETATM   24  C           1     -22.293 -11.024  -3.855  0.00  0.00     0.191 C 
HETATM   25  O           1     -22.681 -10.826  -2.684  0.00  0.00    -0.647 OA
HETATM   26  O           1     -22.759 -11.978  -4.515  0.00  0.00    -0.647 OA
ENDBRANCH  23  24
ENDBRANCH  21  23
ENDBRANCH  14  19
ENDBRANCH   1  14
TORSDOF 9
ENDMDL
MODEL 7
REMARK VINA RESULT:      -7.2     11.686     14.025
REMARK  9 active torsions:
REMARK  status: ('A' for Active; 'I' for Inactive)
REMARK    1  A    between atoms: N_9  and  C_20 
REMARK    2  A    between atoms: O_14  and  P_15 
REMARK    3  A    between atoms: P_15  and  O_16 
REMARK    4  A    between atoms: O_16  and  C_17 
REMARK    5  A    between atoms: C_18  and  C_19 
REMARK    6  A    between atoms: C_19  and  C_20 
REMARK    7  A    between atoms: C_20  and  C_21 
REMARK       I    between atoms: C_21  and  N_22 
REMARK    8  A    between atoms: N_22  and  C_23 
REMARK    9  A    between atoms: C_23  and  C_25 
ROOT
HETATM    1  C           1     -25.573  -6.299 -16.162  0.00  0.00     0.081 C 
ENDROOT
BRANCH   1   2
HETATM    2  C           1     -26.999  -6.121 -16.581  0.00  0.00    -0.056 A 
HETATM    3  C           1     -27.923  -7.142 -16.358  0.00  0.00     0.010 A 
HETATM    4  C           1     -29.252  -6.975 -16.747  0.00  0.00     0.038 A 
HETATM    5  C           1     -29.657  -5.789 -17.360  0.00  0.00     0.081 A 
HETATM    6  C           1     -28.732  -4.768 -17.582  0.00  0.00     0.038 A 
HETATM    7  C           1     -27.403  -4.935 -17.192  0.00  0.00     0.010 A 
BRANCH   5   8
HETATM    8  O           1     -30.948  -5.628 -17.738  0.00  0.00    -0.247 OA
BRANCH   8   9
HETATM    9  P           1     -31.881  -4.652 -16.852  0.00  0.00     0.411 P 
HETATM   10  O           1     -31.947  -3.318 -17.491  0.00  0.00    -0.624 OA
HETATM   11  O           1     -31.308  -4.522 -15.494  0.00  0.00    -0.624 OA
BRANCH   9  12
HETATM   12  O           1     -33.369  -5.273 -16.751  0.00  0.00    -0.300 OA
HETATM   13  H           1     -33.823  -4.720 -16.139  0.00  0.00     0.223 HD
ENDBRANCH   9  12
ENDBRANCH   8   9
ENDBRANCH   5   8
ENDBRANCH   1   2
BRANCH   1  14
HETATM   14  C           1     -24.957  -7.458 -16.935  0.00  0.00     0.278 C 
BRANCH  14  15
HETATM   15  N           1     -23.706  -7.911 -16.242  0.00  0.00    -0.066 N 
HETATM   16  H           1     -23.786  -8.927 -16.009  0.00  0.00     0.275 HD
HETATM   17  H           1     -23.577  -7.362 -15.362  0.00  0.00     0.275 HD
HETATM   18  H           1     -22.885  -7.761 -16.870  0.00  0.00     0.275 HD
ENDBRANCH  14  15
BRANCH  14  19
HETATM   19  C           1     -24.621  -7.008 -18.335  0.00  0.00     0.249 C 
HETATM   20  O           1     -23.524  -6.564 -18.581  0.00  0.00    -0.271 OA
HETATM   21  N           1     -25.558  -7.102 -19.328  0.00  0.00    -0.349 N 
HETATM   22  H           1     -26.477  -7.474 -19.124  0.00  0.00     0.163 HD
BRANCH  21  23
HETATM   23  C           1     -25.235  -6.671 -20.674  0.00  0.00     0.235 C 
BRANCH  23  24
HETATM   24  C           1     -25.304  -7.850 -21.612  0.00  0.00     0.191 C 
HETATM   25  O           1     -24.408  -8.022 -22.467  0.00  0.00    -0.647 OA
HETATM   26  O           1     -26.258  -8.655 -21.537  0.00  0.00    -0.647 OA
ENDBRANCH  23  24
ENDBRANCH  21  23
ENDBRANCH  14  19
ENDBRANCH   1  14
TORSDOF 9
ENDMDL
MODEL 8
REMARK VINA RESULT:      -7.2     12.708     14.157
REMARK  9 active torsions:
REMARK  status: ('A' for Active; 'I' for Inactive)
REMARK    1  A    between atoms: N_9  and  C_20 
REMARK    2  A    between atoms: O_14  and  P_15 
REMARK    3  A    between atoms: P_15  and  O_16 
REMARK    4  A    between atoms: O_16  and  C_17 
REMARK    5  A    between atoms: C_18  and  C_19 
REMARK    6  A    between atoms: C_19  and  C_20 
REMARK    7  A    between atoms: C_20  and  C_21 
REMARK       I    between atoms: C_21  and  N_22 
REMARK    8  A    between atoms: N_22  and  C_23 
REMARK    9  A    between atoms: C_23  and  C_25 
ROOT
HETATM    1  C           1     -30.350  -5.066 -16.575  0.00  0.00     0.081 C 
ENDROOT
BRANCH   1   2
HETATM    2  C           1     -29.025  -5.471 -17.143  0.00  0.00    -0.056 A 
HETATM    3  C           1     -27.912  -5.576 -16.311  0.00  0.00     0.010 A 
HETATM    4  C           1     -26.678  -5.954 -16.842  0.00  0.00     0.038 A 
HETATM    5  C           1     -26.559  -6.228 -18.204  0.00  0.00     0.081 A 
HETATM    6  C           1     -27.673  -6.124 -19.037  0.00  0.00     0.038 A 
HETATM    7  C           1     -28.907  -5.746 -18.506  0.00  0.00     0.010 A 
BRANCH   5   8
HETATM    8  O           1     -25.360  -6.595 -18.719  0.00  0.00    -0.247 OA
BRANCH   8   9
HETATM    9  P           1     -25.316  -7.094 -20.254  0.00  0.00     0.411 P 
HETATM   10  O           1     -24.066  -7.852 -20.491  0.00  0.00    -0.624 OA
HETATM   11  O           1     -25.360  -5.920 -21.154  0.00  0.00    -0.624 OA
BRANCH   9  12
HETATM   12  O           1     -26.586  -8.046 -20.550  0.00  0.00    -0.300 OA
HETATM   13  H           1     -26.879  -7.802 -21.410  0.00  0.00     0.223 HD
ENDBRANCH   9  12
ENDBRANCH   8   9
ENDBRANCH   5   8
ENDBRANCH   1   2
BRANCH   1  14
HETATM   14  C           1     -30.998  -4.031 -17.484  0.00  0.00     0.278 C 
BRANCH  14  15
HETATM   15  N           1     -30.210  -2.756 -17.431  0.00  0.00    -0.066 N 
HETATM   16  H           1     -30.379  -2.206 -18.303  0.00  0.00     0.275 HD
HETATM   17  H           1     -29.192  -2.980 -17.353  0.00  0.00     0.275 HD
HETATM   18  H           1     -30.508  -2.195 -16.602  0.00  0.00     0.275 HD
ENDBRANCH  14  15
BRANCH  14  19
HETATM   19  C           1     -32.410  -3.769 -17.023  0.00  0.00     0.249 C 
HETATM   20  O           1     -33.105  -2.980 -17.619  0.00  0.00    -0.271 OA
HETATM   21  N           1     -32.906  -4.424 -15.928  0.00  0.00    -0.349 N 
HETATM   22  H           1     -32.325  -5.086 -15.428  0.00  0.00     0.163 HD
BRANCH  21  23
HETATM   23  C           1     -34.263  -4.173 -15.485  0.00  0.00     0.235 C 
BRANCH  23  24
HETATM   24  C           1     -34.326  -4.258 -13.980  0.00  0.00     0.191 C 
HETATM   25  O           1     -35.039  -5.127 -13.432  0.00  0.00    -0.647 OA
HETATM   26  O           1     -33.668  -3.458 -13.280  0.00  0.00    -0.647 OA
ENDBRANCH  23  24
ENDBRANCH  21  23
ENDBRANCH  14  19
ENDBRANCH   1  14
TORSDOF 9
ENDMDL
MODEL 9
REMARK VINA RESULT:      -7.1     12.388     14.641
REMARK  9 active torsions:
REMARK  status: ('A' for Active; 'I' for Inactive)
REMARK    1  A    between atoms: N_9  and  C_20 
REMARK    2  A    between atoms: O_14  and  P_15 
REMARK    3  A    between atoms: P_15  and  O_16 
REMARK    4  A    between atoms: O_16  and  C_17 
REMARK    5  A    between atoms: C_18  and  C_19 
REMARK    6  A    between atoms: C_19  and  C_20 
REMARK    7  A    between atoms: C_20  and  C_21 
REMARK       I    between atoms: C_21  and  N_22 
REMARK    8  A    between atoms: N_22  and  C_23 
REMARK    9  A    between atoms: C_23  and  C_25 
ROOT
HETATM    1  C           1     -27.539  -4.994 -16.942  0.00  0.00     0.081 C 
ENDROOT
BRANCH   1   2
HETATM    2  C           1     -29.020  -4.795 -17.033  0.00  0.00    -0.056 A 
HETATM    3  C           1     -29.883  -5.861 -16.784  0.00  0.00     0.010 A 
HETATM    4  C           1     -31.263  -5.675 -16.868  0.00  0.00     0.038 A 
HETATM    5  C           1     -31.780  -4.422 -17.201  0.00  0.00     0.081 A 
HETATM    6  C           1     -30.916  -3.355 -17.449  0.00  0.00     0.038 A 
HETATM    7  C           1     -29.536  -3.542 -17.365  0.00  0.00     0.010 A 
BRANCH   5   8
HETATM    8  O           1     -33.120  -4.242 -17.282  0.00  0.00    -0.247 OA
BRANCH   8   9
HETATM    9  P           1     -33.955  -4.131 -15.904  0.00  0.00     0.411 P 
HETATM   10  O           1     -34.732  -2.871 -15.898  0.00  0.00    -0.624 OA
HETATM   11  O           1     -33.018  -4.140 -14.759  0.00  0.00    -0.624 OA
BRANCH   9  12
HETATM   12  O           1     -34.965  -5.385 -15.782  0.00  0.00    -0.300 OA
HETATM   13  H           1     -34.438  -6.092 -15.451  0.00  0.00     0.223 HD
ENDBRANCH   9  12
ENDBRANCH   8   9
ENDBRANCH   5   8
ENDBRANCH   1   2
BRANCH   1  14
HETATM   14  C           1     -27.212  -6.470 -17.127  0.00  0.00     0.278 C 
BRANCH  14  15
HETATM   15  N           1     -26.885  -7.079 -15.796  0.00  0.00    -0.066 N 
HETATM   16  H           1     -27.736  -7.068 -15.190  0.00  0.00     0.275 HD
HETATM   17  H           1     -26.124  -6.528 -15.339  0.00  0.00     0.275 HD
HETATM   18  H           1     -26.568  -8.065 -15.932  0.00  0.00     0.275 HD
ENDBRANCH  14  15
BRANCH  14  19
HETATM   19  C           1     -26.027  -6.612 -18.050  0.00  0.00     0.249 C 
HETATM   20  O           1     -24.905  -6.570 -17.604  0.00  0.00    -0.271 OA
HETATM   21  N           1     -26.223  -6.789 -19.393  0.00  0.00    -0.349 N 
HETATM   22  H           1     -27.163  -6.825 -19.768  0.00  0.00     0.163 HD
BRANCH  21  23
HETATM   23  C           1     -25.085  -6.926 -20.281  0.00  0.00     0.235 C 
BRANCH  23  24
HETATM   24  C           1     -25.396  -7.948 -21.346  0.00  0.00     0.191 C 
HETATM   25  O           1     -26.475  -8.577 -21.313  0.00  0.00    -0.647 OA
HETATM   26  O           1     -24.573  -8.168 -22.261  0.00  0.00    -0.647 OA
ENDBRANCH  23  24
ENDBRANCH  21  23
ENDBRANCH  14  19
ENDBRANCH   1  14
TORSDOF 9
ENDMDL
