MODEL 1
REMARK VINA RESULT:      -5.0      0.000      0.000
REMARK  6 active torsions:
REMARK  status: ('A' for Active; 'I' for Inactive)
REMARK    1  A    between atoms: C_5  and  C_6 
REMARK    2  A    between atoms: C_5  and  C_12 
REMARK    3  A    between atoms: C_5  and  N_14 
REMARK       I    between atoms: C_6  and  N_7 
REMARK    4  A    between atoms: N_7  and  C_8 
REMARK    5  A    between atoms: C_8  and  C_10 
REMARK    6  A    between atoms: C_12  and  Se_13 
ROOT
HETATM    1  C           1     -29.101  -5.976 -17.267  0.00  0.00     0.274 C 
ENDROOT
BRANCH   1   2
HETATM    2  C           1     -27.724  -5.780 -16.681  0.00  0.00     0.248 C 
HETATM    3  N           1     -26.993  -6.863 -16.272  0.00  0.00    -0.349 N 
HETATM    4  H           1     -27.377  -7.795 -16.363  0.00  0.00     0.163 HD
HETATM    5  O           1     -27.266  -4.667 -16.572  0.00  0.00    -0.271 OA
BRANCH   3   6
HETATM    6  C           1     -25.671  -6.675 -15.710  0.00  0.00     0.235 C 
BRANCH   6   7
HETATM    7  C           1     -24.645  -7.322 -16.608  0.00  0.00     0.191 C 
HETATM    8  O           1     -24.100  -8.393 -16.265  0.00  0.00    -0.647 OA
HETATM    9  O           1     -24.340  -6.786 -17.696  0.00  0.00    -0.647 OA
ENDBRANCH   6   7
ENDBRANCH   3   6
ENDBRANCH   1   2
BRANCH   1  10
HETATM   10  C           1     -29.383  -4.875 -18.281  0.00  0.00     0.045 C 
BRANCH  10  11
HETATM   11 Se           1     -30.769  -3.693 -17.588  0.00  0.00     0.000 Se
HETATM   12  H           1     -30.762  -2.806 -18.763  0.00  0.00     0.000 HD
ENDBRANCH  10  11
ENDBRANCH   1  10
BRANCH   1  13
HETATM   13  N           1     -30.123  -5.919 -16.170  0.00  0.00    -0.067 N 
HETATM   14  H           1     -30.434  -4.931 -16.034  0.00  0.00     0.275 HD
HETATM   15  H           1     -30.945  -6.510 -16.430  0.00  0.00     0.275 HD
HETATM   16  H           1     -29.702  -6.278 -15.283  0.00  0.00     0.275 HD
ENDBRANCH   1  13
TORSDOF 6
ENDMDL
MODEL 2
REMARK VINA RESULT:      -4.9      9.647     10.674
REMARK  6 active torsions:
REMARK  status: ('A' for Active; 'I' for Inactive)
REMARK    1  A    between atoms: C_5  and  C_6 
REMARK    2  A    between atoms: C_5  and  C_12 
REMARK    3  A    between atoms: C_5  and  N_14 
REMARK       I    between atoms: C_6  and  N_7 
REMARK    4  A    between atoms: N_7  and  C_8 
REMARK    5  A    between atoms: C_8  and  C_10 
REMARK    6  A    between atoms: C_12  and  Se_13 
ROOT
HETATM    1  C           1     -34.659  -1.673 -12.014  0.00  0.00     0.274 C 
ENDROOT
BRANCH   1   2
HETATM    2  C           1     -35.498  -1.040 -13.096  0.00  0.00     0.248 C 
HETATM    3  N           1     -34.894  -0.449 -14.174  0.00  0.00    -0.349 N 
HETATM    4  H           1     -33.885  -0.439 -14.244  0.00  0.00     0.163 HD
HETATM    5  O           1     -36.704  -1.053 -13.011  0.00  0.00    -0.271 OA
BRANCH   3   6
HETATM    6  C           1     -35.701   0.159 -15.213  0.00  0.00     0.235 C 
BRANCH   6   7
HETATM    7  C           1     -35.846  -0.804 -16.366  0.00  0.00     0.191 C 
HETATM    8  O           1     -34.946  -1.640 -16.600  0.00  0.00    -0.647 OA
HETATM    9  O           1     -36.866  -0.767 -17.087  0.00  0.00    -0.647 OA
ENDBRANCH   6   7
ENDBRANCH   3   6
ENDBRANCH   1   2
BRANCH   1  10
HETATM   10  C           1     -34.714  -3.189 -12.150  0.00  0.00     0.045 C 
BRANCH  10  11
HETATM   11 Se           1     -32.961  -3.941 -11.750  0.00  0.00     0.000 Se
HETATM   12  H           1     -32.537  -2.807 -10.913  0.00  0.00     0.000 HD
ENDBRANCH  10  11
ENDBRANCH   1  10
BRANCH   1  13
HETATM   13  N           1     -35.191  -1.273 -10.670  0.00  0.00    -0.067 N 
HETATM   14  H           1     -34.601  -1.699  -9.920  0.00  0.00     0.275 HD
HETATM   15  H           1     -35.168  -0.232 -10.582  0.00  0.00     0.275 HD
HETATM   16  H           1     -36.176  -1.610 -10.571  0.00  0.00     0.275 HD
ENDBRANCH   1  13
TORSDOF 6
ENDMDL
MODEL 3
REMARK VINA RESULT:      -4.7      1.758      2.086
REMARK  6 active torsions:
REMARK  status: ('A' for Active; 'I' for Inactive)
REMARK    1  A    between atoms: C_5  and  C_6 
REMARK    2  A    between atoms: C_5  and  C_12 
REMARK    3  A    between atoms: C_5  and  N_14 
REMARK       I    between atoms: C_6  and  N_7 
REMARK    4  A    between atoms: N_7  and  C_8 
REMARK    5  A    between atoms: C_8  and  C_10 
REMARK    6  A    between atoms: C_12  and  Se_13 
ROOT
HETATM    1  C           1     -30.401  -5.770 -17.307  0.00  0.00     0.274 C 
ENDROOT
BRANCH   1   2
HETATM    2  C           1     -29.430  -6.163 -16.222  0.00  0.00     0.248 C 
HETATM    3  N           1     -28.335  -6.928 -16.527  0.00  0.00    -0.349 N 
HETATM    4  H           1     -28.179  -7.229 -17.481  0.00  0.00     0.163 HD
HETATM    5  O           1     -29.616  -5.803 -15.084  0.00  0.00    -0.271 OA
BRANCH   3   6
HETATM    6  C           1     -27.402  -7.306 -15.484  0.00  0.00     0.235 C 
BRANCH   6   7
HETATM    7  C           1     -26.012  -6.861 -15.869  0.00  0.00     0.191 C 
HETATM    8  O           1     -25.857  -5.933 -16.693  0.00  0.00    -0.647 OA
HETATM    9  O           1     -25.014  -7.420 -15.364  0.00  0.00    -0.647 OA
ENDBRANCH   6   7
ENDBRANCH   3   6
ENDBRANCH   1   2
BRANCH   1  10
HETATM   10  C           1     -30.645  -4.268 -17.252  0.00  0.00     0.045 C 
BRANCH  10  11
HETATM   11 Se           1     -28.936  -3.331 -17.269  0.00  0.00     0.000 Se
HETATM   12  H           1     -28.293  -4.280 -18.194  0.00  0.00     0.000 HD
ENDBRANCH  10  11
ENDBRANCH   1  10
BRANCH   1  13
HETATM   13  N           1     -31.699  -6.494 -17.102  0.00  0.00    -0.067 N 
HETATM   14  H           1     -31.838  -6.681 -16.084  0.00  0.00     0.275 HD
HETATM   15  H           1     -32.486  -5.905 -17.458  0.00  0.00     0.275 HD
HETATM   16  H           1     -31.678  -7.400 -17.623  0.00  0.00     0.275 HD
ENDBRANCH   1  13
TORSDOF 6
ENDMDL
MODEL 4
REMARK VINA RESULT:      -4.7      9.133     10.136
REMARK  6 active torsions:
REMARK  status: ('A' for Active; 'I' for Inactive)
REMARK    1  A    between atoms: C_5  and  C_6 
REMARK    2  A    between atoms: C_5  and  C_12 
REMARK    3  A    between atoms: C_5  and  N_14 
REMARK       I    between atoms: C_6  and  N_7 
REMARK    4  A    between atoms: N_7  and  C_8 
REMARK    5  A    between atoms: C_8  and  C_10 
REMARK    6  A    between atoms: C_12  and  Se_13 
ROOT
HETATM    1  C           1     -35.841   0.451 -14.211  0.00  0.00     0.274 C 
ENDROOT
BRANCH   1   2
HETATM    2  C           1     -35.886  -0.749 -13.298  0.00  0.00     0.248 C 
HETATM    3  N           1     -34.755  -1.490 -13.086  0.00  0.00    -0.349 N 
HETATM    4  H           1     -33.889  -1.233 -13.542  0.00  0.00     0.163 HD
HETATM    5  O           1     -36.920  -1.055 -12.754  0.00  0.00    -0.271 OA
BRANCH   3   6
HETATM    6  C           1     -34.798  -2.643 -12.208  0.00  0.00     0.235 C 
BRANCH   6   7
HETATM    7  C           1     -33.574  -2.649 -11.324  0.00  0.00     0.191 C 
HETATM    8  O           1     -32.678  -3.502 -11.504  0.00  0.00    -0.647 OA
HETATM    9  O           1     -33.456  -1.801 -10.413  0.00  0.00    -0.647 OA
ENDBRANCH   6   7
ENDBRANCH   3   6
ENDBRANCH   1   2
BRANCH   1  10
HETATM   10  C           1     -36.787   0.232 -15.385  0.00  0.00     0.045 C 
BRANCH  10  11
HETATM   11 Se           1     -35.982  -1.019 -16.644  0.00  0.00     0.000 Se
HETATM   12  H           1     -34.628  -0.895 -16.080  0.00  0.00     0.000 HD
ENDBRANCH  10  11
ENDBRANCH   1  10
BRANCH   1  13
HETATM   13  N           1     -34.444   0.637 -14.724  0.00  0.00    -0.067 N 
HETATM   14  H           1     -33.781   0.074 -14.145  0.00  0.00     0.275 HD
HETATM   15  H           1     -34.393   0.319 -15.719  0.00  0.00     0.275 HD
HETATM   16  H           1     -34.184   1.648 -14.667  0.00  0.00     0.275 HD
ENDBRANCH   1  13
TORSDOF 6
ENDMDL
MODEL 5
REMARK VINA RESULT:      -4.6     11.622     13.300
REMARK  6 active torsions:
REMARK  status: ('A' for Active; 'I' for Inactive)
REMARK    1  A    between atoms: C_5  and  C_6 
REMARK    2  A    between atoms: C_5  and  C_12 
REMARK    3  A    between atoms: C_5  and  N_14 
REMARK       I    between atoms: C_6  and  N_7 
REMARK    4  A    between atoms: N_7  and  C_8 
REMARK    5  A    between atoms: C_8  and  C_10 
REMARK    6  A    between atoms: C_12  and  Se_13 
ROOT
HETATM    1  C           1     -35.842  -1.031 -12.188  0.00  0.00     0.274 C 
ENDROOT
BRANCH   1   2
HETATM    2  C           1     -36.803  -0.504 -11.151  0.00  0.00     0.248 C 
HETATM    3  N           1     -36.457   0.575 -10.382  0.00  0.00    -0.349 N 
HETATM    4  H           1     -35.557   1.018 -10.509  0.00  0.00     0.163 HD
HETATM    5  O           1     -37.878  -1.034 -11.000  0.00  0.00    -0.271 OA
BRANCH   3   6
HETATM    6  C           1     -37.381   1.080  -9.386  0.00  0.00     0.235 C 
BRANCH   6   7
HETATM    7  C           1     -36.718   1.064  -8.030  0.00  0.00     0.191 C 
HETATM    8  O           1     -37.128   1.822  -7.124  0.00  0.00    -0.647 OA
HETATM    9  O           1     -35.759   0.292  -7.813  0.00  0.00    -0.647 OA
ENDBRANCH   6   7
ENDBRANCH   3   6
ENDBRANCH   1   2
BRANCH   1  10
HETATM   10  C           1     -35.366  -2.419 -11.782  0.00  0.00     0.045 C 
BRANCH  10  11
HETATM   11 Se           1     -33.691  -2.270 -10.796  0.00  0.00     0.000 Se
HETATM   12  H           1     -33.299  -0.998 -11.427  0.00  0.00     0.000 HD
ENDBRANCH  10  11
ENDBRANCH   1  10
BRANCH   1  13
HETATM   13  N           1     -34.663  -0.109 -12.290  0.00  0.00    -0.067 N 
HETATM   14  H           1     -33.854  -0.517 -11.769  0.00  0.00     0.275 HD
HETATM   15  H           1     -34.403   0.014 -13.295  0.00  0.00     0.275 HD
HETATM   16  H           1     -34.910   0.819 -11.878  0.00  0.00     0.275 HD
ENDBRANCH   1  13
TORSDOF 6
ENDMDL
MODEL 6
REMARK VINA RESULT:      -4.6      2.207      2.423
REMARK  6 active torsions:
REMARK  status: ('A' for Active; 'I' for Inactive)
REMARK    1  A    between atoms: C_5  and  C_6 
REMARK    2  A    between atoms: C_5  and  C_12 
REMARK    3  A    between atoms: C_5  and  N_14 
REMARK       I    between atoms: C_6  and  N_7 
REMARK    4  A    between atoms: N_7  and  C_8 
REMARK    5  A    between atoms: C_8  and  C_10 
REMARK    6  A    between atoms: C_12  and  Se_13 
ROOT
HETATM    1  C           1     -30.101  -3.995 -17.115  0.00  0.00     0.274 C 
ENDROOT
BRANCH   1   2
HETATM    2  C           1     -28.909  -4.765 -17.628  0.00  0.00     0.248 C 
HETATM    3  N           1     -28.005  -5.295 -16.746  0.00  0.00    -0.349 N 
HETATM    4  H           1     -28.137  -5.169 -15.751  0.00  0.00     0.163 HD
HETATM    5  O           1     -28.752  -4.914 -18.817  0.00  0.00    -0.271 OA
BRANCH   3   6
HETATM    6  C           1     -26.860  -6.034 -17.240  0.00  0.00     0.235 C 
BRANCH   6   7
HETATM    7  C           1     -25.984  -6.438 -16.079  0.00  0.00     0.191 C 
HETATM    8  O           1     -26.251  -7.469 -15.424  0.00  0.00    -0.647 OA
HETATM    9  O           1     -24.992  -5.743 -15.773  0.00  0.00    -0.647 OA
ENDBRANCH   6   7
ENDBRANCH   3   6
ENDBRANCH   1   2
BRANCH   1  10
HETATM   10  C           1     -31.122  -4.965 -16.536  0.00  0.00     0.045 C 
BRANCH  10  11
HETATM   11 Se           1     -31.010  -6.666 -17.480  0.00  0.00     0.000 Se
HETATM   12  H           1     -30.706  -6.055 -18.784  0.00  0.00     0.000 HD
ENDBRANCH  10  11
ENDBRANCH   1  10
BRANCH   1  13
HETATM   13  N           1     -30.724  -3.228 -18.243  0.00  0.00    -0.067 N 
HETATM   14  H           1     -30.099  -2.436 -18.514  0.00  0.00     0.275 HD
HETATM   15  H           1     -30.858  -3.862 -19.063  0.00  0.00     0.275 HD
HETATM   16  H           1     -31.651  -2.852 -17.938  0.00  0.00     0.275 HD
ENDBRANCH   1  13
TORSDOF 6
ENDMDL
MODEL 7
REMARK VINA RESULT:      -4.5      9.930     11.255
REMARK  6 active torsions:
REMARK  status: ('A' for Active; 'I' for Inactive)
REMARK    1  A    between atoms: C_5  and  C_6 
REMARK    2  A    between atoms: C_5  and  C_12 
REMARK    3  A    between atoms: C_5  and  N_14 
REMARK       I    between atoms: C_6  and  N_7 
REMARK    4  A    between atoms: N_7  and  C_8 
REMARK    5  A    between atoms: C_8  and  C_10 
REMARK    6  A    between atoms: C_12  and  Se_13 
ROOT
HETATM    1  C           1     -20.682  -5.220  -7.272  0.00  0.00     0.274 C 
ENDROOT
BRANCH   1   2
HETATM    2  C           1     -22.088  -4.724  -7.500  0.00  0.00     0.248 C 
HETATM    3  N           1     -22.467  -4.284  -8.741  0.00  0.00    -0.349 N 
HETATM    4  H           1     -21.803  -4.293  -9.504  0.00  0.00     0.163 HD
HETATM    5  O           1     -22.880  -4.713  -6.588  0.00  0.00    -0.271 OA
BRANCH   3   6
HETATM    6  C           1     -23.818  -3.808  -8.959  0.00  0.00     0.235 C 
BRANCH   6   7
HETATM    7  C           1     -24.056  -3.629 -10.439  0.00  0.00     0.191 C 
HETATM    8  O           1     -23.154  -3.918 -11.256  0.00  0.00    -0.647 OA
HETATM    9  O           1     -25.154  -3.193 -10.848  0.00  0.00    -0.647 OA
ENDBRANCH   6   7
ENDBRANCH   3   6
ENDBRANCH   1   2
BRANCH   1  10
HETATM   10  C           1     -20.420  -5.338  -5.777  0.00  0.00     0.045 C 
BRANCH  10  11
HETATM   11 Se           1     -20.540  -7.208  -5.242  0.00  0.00     0.000 Se
HETATM   12  H           1     -20.440  -6.922  -3.801  0.00  0.00     0.000 HD
ENDBRANCH  10  11
ENDBRANCH   1  10
BRANCH   1  13
HETATM   13  N           1     -19.706  -4.252  -7.875  0.00  0.00    -0.067 N 
HETATM   14  H           1     -18.876  -4.773  -8.237  0.00  0.00     0.275 HD
HETATM   15  H           1     -20.166  -3.739  -8.662  0.00  0.00     0.275 HD
HETATM   16  H           1     -19.399  -3.569  -7.146  0.00  0.00     0.275 HD
ENDBRANCH   1  13
TORSDOF 6
ENDMDL
MODEL 8
REMARK VINA RESULT:      -4.4      4.265      5.913
REMARK  6 active torsions:
REMARK  status: ('A' for Active; 'I' for Inactive)
REMARK    1  A    between atoms: C_5  and  C_6 
REMARK    2  A    between atoms: C_5  and  C_12 
REMARK    3  A    between atoms: C_5  and  N_14 
REMARK       I    between atoms: C_6  and  N_7 
REMARK    4  A    between atoms: N_7  and  C_8 
REMARK    5  A    between atoms: C_8  and  C_10 
REMARK    6  A    between atoms: C_12  and  Se_13 
ROOT
HETATM    1  C           1     -29.648  -7.540 -17.232  0.00  0.00     0.274 C 
ENDROOT
BRANCH   1   2
HETATM    2  C           1     -30.954  -6.788 -17.293  0.00  0.00     0.248 C 
HETATM    3  N           1     -31.105  -5.619 -16.595  0.00  0.00    -0.349 N 
HETATM    4  H           1     -30.340  -5.261 -16.038  0.00  0.00     0.163 HD
HETATM    5  O           1     -31.868  -7.215 -17.959  0.00  0.00    -0.271 OA
BRANCH   3   6
HETATM    6  C           1     -32.360  -4.896 -16.654  0.00  0.00     0.235 C 
BRANCH   6   7
HETATM    7  C           1     -32.136  -3.553 -17.306  0.00  0.00     0.191 C 
HETATM    8  O           1     -33.114  -2.844 -17.628  0.00  0.00    -0.647 OA
HETATM    9  O           1     -30.973  -3.150 -17.525  0.00  0.00    -0.647 OA
ENDBRANCH   6   7
ENDBRANCH   3   6
ENDBRANCH   1   2
BRANCH   1  10
HETATM   10  C           1     -28.498  -6.552 -17.092  0.00  0.00     0.045 C 
BRANCH  10  11
HETATM   11 Se           1     -27.964  -5.923 -18.858  0.00  0.00     0.000 Se
HETATM   12  H           1     -28.528  -7.082 -19.569  0.00  0.00     0.000 HD
ENDBRANCH  10  11
ENDBRANCH   1  10
BRANCH   1  13
HETATM   13  N           1     -29.472  -8.338 -18.490  0.00  0.00    -0.067 N 
HETATM   14  H           1     -28.686  -7.938 -19.050  0.00  0.00     0.275 HD
HETATM   15  H           1     -29.253  -9.331 -18.245  0.00  0.00     0.275 HD
HETATM   16  H           1     -30.353  -8.303 -19.051  0.00  0.00     0.275 HD
ENDBRANCH   1  13
TORSDOF 6
ENDMDL
MODEL 9
REMARK VINA RESULT:      -4.3     18.977     20.052
REMARK  6 active torsions:
REMARK  status: ('A' for Active; 'I' for Inactive)
REMARK    1  A    between atoms: C_5  and  C_6 
REMARK    2  A    between atoms: C_5  and  C_12 
REMARK    3  A    between atoms: C_5  and  N_14 
REMARK       I    between atoms: C_6  and  N_7 
REMARK    4  A    between atoms: N_7  and  C_8 
REMARK    5  A    between atoms: C_8  and  C_10 
REMARK    6  A    between atoms: C_12  and  Se_13 
ROOT
HETATM    1  C           1     -10.357   6.173 -19.513  0.00  0.00     0.274 C 
ENDROOT
BRANCH   1   2
HETATM    2  C           1     -11.562   5.279 -19.665  0.00  0.00     0.248 C 
HETATM    3  N           1     -12.171   5.152 -20.886  0.00  0.00    -0.349 N 
HETATM    4  H           1     -11.812   5.659 -21.684  0.00  0.00     0.163 HD
HETATM    5  O           1     -11.991   4.674 -18.711  0.00  0.00    -0.271 OA
BRANCH   3   6
HETATM    6  C           1     -13.329   4.293 -21.032  0.00  0.00     0.235 C 
BRANCH   6   7
HETATM    7  C           1     -14.586   5.110 -20.859  0.00  0.00     0.191 C 
HETATM    8  O           1     -15.128   5.643 -21.852  0.00  0.00    -0.647 OA
HETATM    9  O           1     -15.087   5.254 -19.722  0.00  0.00    -0.647 OA
ENDBRANCH   6   7
ENDBRANCH   3   6
ENDBRANCH   1   2
BRANCH   1  10
HETATM   10  C           1      -9.817   6.538 -20.889  0.00  0.00     0.045 C 
BRANCH  10  11
HETATM   11 Se           1      -9.586   8.470 -21.005  0.00  0.00     0.000 Se
HETATM   12  H           1     -10.230   8.585 -22.324  0.00  0.00     0.000 HD
ENDBRANCH  10  11
ENDBRANCH   1  10
BRANCH   1  13
HETATM   13  N           1      -9.295   5.452 -18.735  0.00  0.00    -0.067 N 
HETATM   14  H           1      -8.946   6.068 -17.967  0.00  0.00     0.275 HD
HETATM   15  H           1      -9.696   4.579 -18.326  0.00  0.00     0.275 HD
HETATM   16  H           1      -8.503   5.207 -19.373  0.00  0.00     0.275 HD
ENDBRANCH   1  13
TORSDOF 6
ENDMDL
