MODEL 1
REMARK VINA RESULT:      -7.9      0.000      0.000
REMARK  8 active torsions:
REMARK  status: ('A' for Active; 'I' for Inactive)
REMARK    1  A    between atoms: C_5  and  Se_21 
REMARK    2  A    between atoms: C_5  and  C_6 
REMARK    3  A    between atoms: C_6  and  C_7 
REMARK    4  A    between atoms: C_6  and  N_24 
REMARK    5  A    between atoms: C_13  and  C_26 
REMARK    6  A    between atoms: C_13  and  C_17 
REMARK    7  A    between atoms: C_13  and  N_25 
REMARK    8  A    between atoms: C_17  and  C_19 
REMARK       I    between atoms: N_24  and  C_26 
ROOT
HETATM    1  C           1     -21.234  -5.824  -7.007  0.00  0.00     0.278 C 
ENDROOT
BRANCH   1   2
HETATM    2  C           1     -21.819  -4.629  -7.720  0.00  0.00     0.249 C 
HETATM    3  O           1     -21.840  -3.551  -7.174  0.00  0.00    -0.271 OA
HETATM    4  N           1     -22.324  -4.766  -8.985  0.00  0.00    -0.345 N 
HETATM    5  H           1     -22.306  -5.669  -9.442  0.00  0.00     0.163 HD
BRANCH   4   6
HETATM    6  C           1     -22.885  -3.617  -9.669  0.00  0.00     0.185 C 
BRANCH   6   7
HETATM    7  C           1     -22.036  -3.287 -10.889  0.00  0.00     0.039 C 
BRANCH   7   8
HETATM    8 Se           1     -20.413  -4.367 -10.864  0.00  0.00     0.000 Se
HETATM    9  H           1     -19.711  -3.499  -9.905  0.00  0.00     0.000 HD
ENDBRANCH   7   8
ENDBRANCH   6   7
BRANCH   6  10
HETATM   10  C           1     -24.294  -3.934 -10.110  0.00  0.00     0.196 C 
HETATM   11  O           1     -24.828  -5.011  -9.769  0.00  0.00    -0.646 OA
HETATM   12  O           1     -24.925  -3.119 -10.816  0.00  0.00    -0.646 OA
ENDBRANCH   6  10
ENDBRANCH   4   6
ENDBRANCH   1   2
BRANCH   1  13
HETATM   13  C           1     -21.200  -5.555  -5.509  0.00  0.00     0.083 C 
BRANCH  13  14
HETATM   14  C           1     -21.240  -6.855  -4.767  0.00  0.00    -0.028 A 
HETATM   15  C           1     -20.955  -8.096  -5.288  0.00  0.00     0.096 A 
HETATM   16  N           1     -21.109  -9.017  -4.286  0.00  0.00    -0.365 N 
HETATM   17  C           1     -21.490  -8.393  -3.120  0.00  0.00     0.042 A 
HETATM   18  H           1     -20.958 -10.050  -4.393  0.00  0.00     0.165 HD
HETATM   19  C           1     -21.760  -8.926  -1.855  0.00  0.00     0.030 A 
HETATM   20  C           1     -21.580  -7.028  -3.397  0.00  0.00    -0.002 A 
HETATM   21  C           1     -22.132  -8.035  -0.843  0.00  0.00     0.002 A 
HETATM   22  C           1     -22.230  -6.667  -1.090  0.00  0.00     0.001 A 
HETATM   23  C           1     -21.956  -6.150  -2.362  0.00  0.00     0.014 A 
ENDBRANCH  13  14
ENDBRANCH   1  13
BRANCH   1  24
HETATM   24  N           1     -19.840  -6.068  -7.504  0.00  0.00    -0.066 N 
HETATM   25  H           1     -19.259  -5.216  -7.342  0.00  0.00     0.275 HD
HETATM   26  H           1     -19.867  -6.283  -8.526  0.00  0.00     0.275 HD
HETATM   27  H           1     -19.424  -6.878  -6.990  0.00  0.00     0.275 HD
ENDBRANCH   1  24
TORSDOF 8
ENDMDL
MODEL 2
REMARK VINA RESULT:      -7.4      4.015      7.667
REMARK  8 active torsions:
REMARK  status: ('A' for Active; 'I' for Inactive)
REMARK    1  A    between atoms: C_5  and  Se_21 
REMARK    2  A    between atoms: C_5  and  C_6 
REMARK    3  A    between atoms: C_6  and  C_7 
REMARK    4  A    between atoms: C_6  and  N_24 
REMARK    5  A    between atoms: C_13  and  C_26 
REMARK    6  A    between atoms: C_13  and  C_17 
REMARK    7  A    between atoms: C_13  and  N_25 
REMARK    8  A    between atoms: C_17  and  C_19 
REMARK       I    between atoms: N_24  and  C_26 
ROOT
HETATM    1  C           1     -21.343  -6.283  -5.469  0.00  0.00     0.278 C 
ENDROOT
BRANCH   1   2
HETATM    2  C           1     -20.220  -7.290  -5.502  0.00  0.00     0.249 C 
HETATM    3  O           1     -19.460  -7.317  -6.441  0.00  0.00    -0.271 OA
HETATM    4  N           1     -20.061  -8.172  -4.468  0.00  0.00    -0.345 N 
HETATM    5  H           1     -20.697  -8.150  -3.680  0.00  0.00     0.163 HD
BRANCH   4   6
HETATM    6  C           1     -18.981  -9.139  -4.500  0.00  0.00     0.185 C 
BRANCH   6   7
HETATM    7  C           1     -18.434  -9.339  -3.094  0.00  0.00     0.039 C 
BRANCH   7   8
HETATM    8 Se           1     -16.522  -9.708  -3.184  0.00  0.00     0.000 Se
HETATM    9  H           1     -16.552 -10.132  -4.593  0.00  0.00     0.000 HD
ENDBRANCH   7   8
ENDBRANCH   6   7
BRANCH   6  10
HETATM   10  C           1     -19.500 -10.455  -5.028  0.00  0.00     0.196 C 
HETATM   11  O           1     -19.412 -10.719  -6.246  0.00  0.00    -0.646 OA
HETATM   12  O           1     -20.018 -11.280  -4.245  0.00  0.00    -0.646 OA
ENDBRANCH   6  10
ENDBRANCH   4   6
ENDBRANCH   1   2
BRANCH   1  13
HETATM   13  C           1     -20.886  -4.989  -6.127  0.00  0.00     0.083 C 
BRANCH  13  14
HETATM   14  C           1     -21.828  -4.632  -7.236  0.00  0.00    -0.028 A 
HETATM   15  C           1     -23.179  -4.405  -7.111  0.00  0.00     0.096 A 
HETATM   16  N           1     -23.671  -4.108  -8.354  0.00  0.00    -0.365 N 
HETATM   17  C           1     -22.659  -4.140  -9.287  0.00  0.00     0.042 A 
HETATM   18  H           1     -24.676  -3.889  -8.565  0.00  0.00     0.165 HD
HETATM   19  C           1     -22.692  -3.906 -10.666  0.00  0.00     0.030 A 
HETATM   20  C           1     -21.486  -4.468  -8.607  0.00  0.00    -0.002 A 
HETATM   21  C           1     -21.488  -4.011 -11.369  0.00  0.00     0.002 A 
HETATM   22  C           1     -20.301  -4.337 -10.717  0.00  0.00     0.001 A 
HETATM   23  C           1     -20.285  -4.568  -9.336  0.00  0.00     0.014 A 
ENDBRANCH  13  14
ENDBRANCH   1  13
BRANCH   1  24
HETATM   24  N           1     -21.728  -6.010  -4.045  0.00  0.00    -0.066 N 
HETATM   25  H           1     -22.088  -6.888  -3.608  0.00  0.00     0.275 HD
HETATM   26  H           1     -22.473  -5.277  -4.019  0.00  0.00     0.275 HD
HETATM   27  H           1     -20.892  -5.674  -3.516  0.00  0.00     0.275 HD
ENDBRANCH   1  24
TORSDOF 8
ENDMDL
MODEL 3
REMARK VINA RESULT:      -7.3      3.713      7.951
REMARK  8 active torsions:
REMARK  status: ('A' for Active; 'I' for Inactive)
REMARK    1  A    between atoms: C_5  and  Se_21 
REMARK    2  A    between atoms: C_5  and  C_6 
REMARK    3  A    between atoms: C_6  and  C_7 
REMARK    4  A    between atoms: C_6  and  N_24 
REMARK    5  A    between atoms: C_13  and  C_26 
REMARK    6  A    between atoms: C_13  and  C_17 
REMARK    7  A    between atoms: C_13  and  N_25 
REMARK    8  A    between atoms: C_17  and  C_19 
REMARK       I    between atoms: N_24  and  C_26 
ROOT
HETATM    1  C           1     -21.255  -5.527  -5.396  0.00  0.00     0.278 C 
ENDROOT
BRANCH   1   2
HETATM    2  C           1     -21.393  -6.769  -4.551  0.00  0.00     0.249 C 
HETATM    3  O           1     -21.709  -7.817  -5.064  0.00  0.00    -0.271 OA
HETATM    4  N           1     -21.160  -6.711  -3.204  0.00  0.00    -0.345 N 
HETATM    5  H           1     -20.895  -5.834  -2.773  0.00  0.00     0.163 HD
BRANCH   4   6
HETATM    6  C           1     -21.293  -7.905  -2.392  0.00  0.00     0.185 C 
BRANCH   6   7
HETATM    7  C           1     -19.929  -8.561  -2.225  0.00  0.00     0.039 C 
BRANCH   7   8
HETATM    8 Se           1     -20.094 -10.485  -2.486  0.00  0.00     0.000 Se
HETATM    9  H           1     -19.101 -10.828  -1.456  0.00  0.00     0.000 HD
ENDBRANCH   7   8
ENDBRANCH   6   7
BRANCH   6  10
HETATM   10  C           1     -21.841  -7.533  -1.036  0.00  0.00     0.196 C 
HETATM   11  O           1     -22.724  -6.654  -0.938  0.00  0.00    -0.646 OA
HETATM   12  O           1     -21.411  -8.104  -0.011  0.00  0.00    -0.646 OA
ENDBRANCH   6  10
ENDBRANCH   4   6
ENDBRANCH   1   2
BRANCH   1  13
HETATM   13  C           1     -21.033  -5.922  -6.849  0.00  0.00     0.083 C 
BRANCH  13  14
HETATM   14  C           1     -21.828  -5.018  -7.740  0.00  0.00    -0.028 A 
HETATM   15  C           1     -23.065  -4.485  -7.459  0.00  0.00     0.096 A 
HETATM   16  N           1     -23.443  -3.716  -8.528  0.00  0.00    -0.365 N 
HETATM   17  C           1     -22.469  -3.742  -9.501  0.00  0.00     0.042 A 
HETATM   18  H           1     -24.345  -3.185  -8.597  0.00  0.00     0.165 HD
HETATM   19  C           1     -22.421  -3.114 -10.750  0.00  0.00     0.030 A 
HETATM   20  C           1     -21.439  -4.556  -9.028  0.00  0.00    -0.002 A 
HETATM   21  C           1     -21.285  -3.326 -11.539  0.00  0.00     0.002 A 
HETATM   22  C           1     -20.241  -4.134 -11.092  0.00  0.00     0.001 A 
HETATM   23  C           1     -20.305  -4.755  -9.839  0.00  0.00     0.014 A 
ENDBRANCH  13  14
ENDBRANCH   1  13
BRANCH   1  24
HETATM   24  N           1     -20.085  -4.722  -4.913  0.00  0.00    -0.066 N 
HETATM   25  H           1     -20.245  -3.713  -5.126  0.00  0.00     0.275 HD
HETATM   26  H           1     -19.215  -5.047  -5.395  0.00  0.00     0.275 HD
HETATM   27  H           1     -19.977  -4.848  -3.881  0.00  0.00     0.275 HD
ENDBRANCH   1  24
TORSDOF 8
ENDMDL
MODEL 4
REMARK VINA RESULT:      -6.9      2.066      3.292
REMARK  8 active torsions:
REMARK  status: ('A' for Active; 'I' for Inactive)
REMARK    1  A    between atoms: C_5  and  Se_21 
REMARK    2  A    between atoms: C_5  and  C_6 
REMARK    3  A    between atoms: C_6  and  C_7 
REMARK    4  A    between atoms: C_6  and  N_24 
REMARK    5  A    between atoms: C_13  and  C_26 
REMARK    6  A    between atoms: C_13  and  C_17 
REMARK    7  A    between atoms: C_13  and  N_25 
REMARK    8  A    between atoms: C_17  and  C_19 
REMARK       I    between atoms: N_24  and  C_26 
ROOT
HETATM    1  C           1     -21.249  -7.754  -5.420  0.00  0.00     0.278 C 
ENDROOT
BRANCH   1   2
HETATM    2  C           1     -20.769  -6.868  -6.544  0.00  0.00     0.249 C 
HETATM    3  O           1     -19.616  -6.919  -6.904  0.00  0.00    -0.271 OA
HETATM    4  N           1     -21.638  -6.007  -7.156  0.00  0.00    -0.345 N 
HETATM    5  H           1     -22.604  -5.963  -6.856  0.00  0.00     0.163 HD
BRANCH   4   6
HETATM    6  C           1     -21.177  -5.156  -8.236  0.00  0.00     0.185 C 
BRANCH   6   7
HETATM    7  C           1     -22.353  -4.780  -9.126  0.00  0.00     0.039 C 
BRANCH   7   8
HETATM    8 Se           1     -21.701  -3.841 -10.705  0.00  0.00     0.000 Se
HETATM    9  H           1     -20.681  -3.074  -9.972  0.00  0.00     0.000 HD
ENDBRANCH   7   8
ENDBRANCH   6   7
BRANCH   6  10
HETATM   10  C           1     -20.562  -3.903  -7.661  0.00  0.00     0.196 C 
HETATM   11  O           1     -19.360  -3.638  -7.879  0.00  0.00    -0.646 OA
HETATM   12  O           1     -21.256  -3.130  -6.965  0.00  0.00    -0.646 OA
ENDBRANCH   6  10
ENDBRANCH   4   6
ENDBRANCH   1   2
BRANCH   1  13
HETATM   13  C           1     -20.335  -7.585  -4.215  0.00  0.00     0.083 C 
BRANCH  13  14
HETATM   14  C           1     -21.139  -7.121  -3.040  0.00  0.00    -0.028 A 
HETATM   15  C           1     -21.527  -5.826  -2.783  0.00  0.00     0.096 A 
HETATM   16  N           1     -22.243  -5.826  -1.615  0.00  0.00    -0.365 N 
HETATM   17  C           1     -22.326  -7.103  -1.108  0.00  0.00     0.042 A 
HETATM   18  H           1     -22.667  -4.974  -1.171  0.00  0.00     0.165 HD
HETATM   19  C           1     -22.952  -7.577   0.050  0.00  0.00     0.030 A 
HETATM   20  C           1     -21.638  -7.939  -1.988  0.00  0.00    -0.002 A 
HETATM   21  C           1     -22.870  -8.948   0.315  0.00  0.00     0.002 A 
HETATM   22  C           1     -22.189  -9.806  -0.546  0.00  0.00     0.001 A 
HETATM   23  C           1     -21.569  -9.316  -1.701  0.00  0.00     0.014 A 
ENDBRANCH  13  14
ENDBRANCH   1  13
BRANCH   1  24
HETATM   24  N           1     -21.227  -9.185  -5.869  0.00  0.00    -0.066 N 
HETATM   25  H           1     -22.199  -9.495  -6.089  0.00  0.00     0.275 HD
HETATM   26  H           1     -20.834  -9.783  -5.107  0.00  0.00     0.275 HD
HETATM   27  H           1     -20.630  -9.274  -6.723  0.00  0.00     0.275 HD
ENDBRANCH   1  24
TORSDOF 8
ENDMDL
MODEL 5
REMARK VINA RESULT:      -6.8      3.887      7.628
REMARK  8 active torsions:
REMARK  status: ('A' for Active; 'I' for Inactive)
REMARK    1  A    between atoms: C_5  and  Se_21 
REMARK    2  A    between atoms: C_5  and  C_6 
REMARK    3  A    between atoms: C_6  and  C_7 
REMARK    4  A    between atoms: C_6  and  N_24 
REMARK    5  A    between atoms: C_13  and  C_26 
REMARK    6  A    between atoms: C_13  and  C_17 
REMARK    7  A    between atoms: C_13  and  N_25 
REMARK    8  A    between atoms: C_17  and  C_19 
REMARK       I    between atoms: N_24  and  C_26 
ROOT
HETATM    1  C           1     -21.666  -6.431  -5.503  0.00  0.00     0.278 C 
ENDROOT
BRANCH   1   2
HETATM    2  C           1     -20.883  -7.375  -4.625  0.00  0.00     0.249 C 
HETATM    3  O           1     -19.800  -7.775  -4.982  0.00  0.00    -0.271 OA
HETATM    4  N           1     -21.397  -7.776  -3.421  0.00  0.00    -0.345 N 
HETATM    5  H           1     -22.304  -7.441  -3.121  0.00  0.00     0.163 HD
BRANCH   4   6
HETATM    6  C           1     -20.643  -8.683  -2.577  0.00  0.00     0.185 C 
BRANCH   6   7
HETATM    7  C           1     -20.784  -8.259  -1.122  0.00  0.00     0.039 C 
BRANCH   7   8
HETATM    8 Se           1     -22.263  -7.001  -0.950  0.00  0.00     0.000 Se
HETATM    9  H           1     -23.275  -7.941  -1.459  0.00  0.00     0.000 HD
ENDBRANCH   7   8
ENDBRANCH   6   7
BRANCH   6  10
HETATM   10  C           1     -21.176 -10.085  -2.745  0.00  0.00     0.196 C 
HETATM   11  O           1     -20.477 -10.957  -3.307  0.00  0.00    -0.646 OA
HETATM   12  O           1     -22.315 -10.375  -2.321  0.00  0.00    -0.646 OA
ENDBRANCH   6  10
ENDBRANCH   4   6
ENDBRANCH   1   2
BRANCH   1  13
HETATM   13  C           1     -20.925  -5.106  -5.614  0.00  0.00     0.083 C 
BRANCH  13  14
HETATM   14  C           1     -20.707  -4.775  -7.058  0.00  0.00    -0.028 A 
HETATM   15  C           1     -19.498  -4.767  -7.715  0.00  0.00     0.096 A 
HETATM   16  N           1     -19.730  -4.412  -9.017  0.00  0.00    -0.365 N 
HETATM   17  C           1     -21.074  -4.189  -9.217  0.00  0.00     0.042 A 
HETATM   18  H           1     -18.990  -4.323  -9.756  0.00  0.00     0.165 HD
HETATM   19  C           1     -21.766  -3.811 -10.373  0.00  0.00     0.030 A 
HETATM   20  C           1     -21.712  -4.411  -7.997  0.00  0.00    -0.002 A 
HETATM   21  C           1     -23.153  -3.657 -10.276  0.00  0.00     0.002 A 
HETATM   22  C           1     -23.817  -3.872  -9.070  0.00  0.00     0.001 A 
HETATM   23  C           1     -23.109  -4.250  -7.923  0.00  0.00     0.014 A 
ENDBRANCH  13  14
ENDBRANCH   1  13
BRANCH   1  24
HETATM   24  N           1     -23.021  -6.198  -4.903  0.00  0.00    -0.066 N 
HETATM   25  H           1     -23.198  -5.171  -4.833  0.00  0.00     0.275 HD
HETATM   26  H           1     -23.057  -6.624  -3.949  0.00  0.00     0.275 HD
HETATM   27  H           1     -23.751  -6.638  -5.508  0.00  0.00     0.275 HD
ENDBRANCH   1  24
TORSDOF 8
ENDMDL
MODEL 6
REMARK VINA RESULT:      -6.6      5.019      7.854
REMARK  8 active torsions:
REMARK  status: ('A' for Active; 'I' for Inactive)
REMARK    1  A    between atoms: C_5  and  Se_21 
REMARK    2  A    between atoms: C_5  and  C_6 
REMARK    3  A    between atoms: C_6  and  C_7 
REMARK    4  A    between atoms: C_6  and  N_24 
REMARK    5  A    between atoms: C_13  and  C_26 
REMARK    6  A    between atoms: C_13  and  C_17 
REMARK    7  A    between atoms: C_13  and  N_25 
REMARK    8  A    between atoms: C_17  and  C_19 
REMARK       I    between atoms: N_24  and  C_26 
ROOT
HETATM    1  C           1     -19.575  -8.521  -3.796  0.00  0.00     0.278 C 
ENDROOT
BRANCH   1   2
HETATM    2  C           1     -20.576  -9.078  -2.814  0.00  0.00     0.249 C 
HETATM    3  O           1     -21.161 -10.106  -3.063  0.00  0.00    -0.271 OA
HETATM    4  N           1     -20.822  -8.420  -1.639  0.00  0.00    -0.345 N 
HETATM    5  H           1     -20.333  -7.558  -1.429  0.00  0.00     0.163 HD
BRANCH   4   6
HETATM    6  C           1     -21.784  -8.955  -0.695  0.00  0.00     0.185 C 
BRANCH   6   7
HETATM    7  C           1     -21.048  -9.568   0.488  0.00  0.00     0.039 C 
BRANCH   7   8
HETATM    8 Se           1     -21.347 -11.494   0.515  0.00  0.00     0.000 Se
HETATM    9  H           1     -22.147 -11.505  -0.720  0.00  0.00     0.000 HD
ENDBRANCH   7   8
ENDBRANCH   6   7
BRANCH   6  10
HETATM   10  C           1     -22.682  -7.844  -0.207  0.00  0.00     0.196 C 
HETATM   11  O           1     -23.384  -8.010   0.814  0.00  0.00    -0.646 OA
HETATM   12  O           1     -22.723  -6.758  -0.824  0.00  0.00    -0.646 OA
ENDBRANCH   6  10
ENDBRANCH   4   6
ENDBRANCH   1   2
BRANCH   1  13
HETATM   13  C           1     -20.159  -8.573  -5.201  0.00  0.00     0.083 C 
BRANCH  13  14
HETATM   14  C           1     -20.991  -7.351  -5.441  0.00  0.00    -0.028 A 
HETATM   15  C           1     -22.238  -7.102  -4.915  0.00  0.00     0.096 A 
HETATM   16  N           1     -22.653  -5.881  -5.378  0.00  0.00    -0.365 N 
HETATM   17  C           1     -21.693  -5.333  -6.199  0.00  0.00     0.042 A 
HETATM   18  H           1     -23.570  -5.430  -5.141  0.00  0.00     0.165 HD
HETATM   19  C           1     -21.682  -4.116  -6.889  0.00  0.00     0.030 A 
HETATM   20  C           1     -20.635  -6.240  -6.255  0.00  0.00    -0.002 A 
HETATM   21  C           1     -20.552  -3.819  -7.659  0.00  0.00     0.002 A 
HETATM   22  C           1     -19.481  -4.706  -7.734  0.00  0.00     0.001 A 
HETATM   23  C           1     -19.508  -5.920  -7.037  0.00  0.00     0.014 A 
ENDBRANCH  13  14
ENDBRANCH   1  13
BRANCH   1  24
HETATM   24  N           1     -18.319  -9.339  -3.746  0.00  0.00    -0.066 N 
HETATM   25  H           1     -18.515 -10.248  -3.270  0.00  0.00     0.275 HD
HETATM   26  H           1     -17.585  -8.818  -3.215  0.00  0.00     0.275 HD
HETATM   27  H           1     -17.982  -9.521  -4.719  0.00  0.00     0.275 HD
ENDBRANCH   1  24
TORSDOF 8
ENDMDL
MODEL 7
REMARK VINA RESULT:      -6.6      4.187      7.445
REMARK  8 active torsions:
REMARK  status: ('A' for Active; 'I' for Inactive)
REMARK    1  A    between atoms: C_5  and  Se_21 
REMARK    2  A    between atoms: C_5  and  C_6 
REMARK    3  A    between atoms: C_6  and  C_7 
REMARK    4  A    between atoms: C_6  and  N_24 
REMARK    5  A    between atoms: C_13  and  C_26 
REMARK    6  A    between atoms: C_13  and  C_17 
REMARK    7  A    between atoms: C_13  and  N_25 
REMARK    8  A    between atoms: C_17  and  C_19 
REMARK       I    between atoms: N_24  and  C_26 
ROOT
HETATM    1  C           1     -21.671  -6.462  -5.562  0.00  0.00     0.278 C 
ENDROOT
BRANCH   1   2
HETATM    2  C           1     -20.823  -7.440  -4.786  0.00  0.00     0.249 C 
HETATM    3  O           1     -20.721  -7.332  -3.587  0.00  0.00    -0.271 OA
HETATM    4  N           1     -20.171  -8.449  -5.440  0.00  0.00    -0.345 N 
HETATM    5  H           1     -20.255  -8.540  -6.445  0.00  0.00     0.163 HD
BRANCH   4   6
HETATM    6  C           1     -19.356  -9.389  -4.694  0.00  0.00     0.185 C 
BRANCH   6   7
HETATM    7  C           1     -20.114 -10.699  -4.528  0.00  0.00     0.039 C 
BRANCH   7   8
HETATM    8 Se           1     -20.587 -10.945  -2.653  0.00  0.00     0.000 Se
HETATM    9  H           1     -21.937 -11.455  -2.940  0.00  0.00     0.000 HD
ENDBRANCH   7   8
ENDBRANCH   6   7
BRANCH   6  10
HETATM   10  C           1     -18.070  -9.644  -5.443  0.00  0.00     0.196 C 
HETATM   11  O           1     -17.146 -10.285  -4.897  0.00  0.00    -0.646 OA
HETATM   12  O           1     -17.930  -9.215  -6.608  0.00  0.00    -0.646 OA
ENDBRANCH   6  10
ENDBRANCH   4   6
ENDBRANCH   1   2
BRANCH   1  13
HETATM   13  C           1     -20.942  -5.131  -5.670  0.00  0.00     0.083 C 
BRANCH  13  14
HETATM   14  C           1     -20.731  -4.792  -7.114  0.00  0.00    -0.028 A 
HETATM   15  C           1     -19.526  -4.783  -7.777  0.00  0.00     0.096 A 
HETATM   16  N           1     -19.764  -4.421  -9.076  0.00  0.00    -0.365 N 
HETATM   17  C           1     -21.109  -4.194  -9.267  0.00  0.00     0.042 A 
HETATM   18  H           1     -19.029  -4.330  -9.819  0.00  0.00     0.165 HD
HETATM   19  C           1     -21.807  -3.808 -10.417  0.00  0.00     0.030 A 
HETATM   20  C           1     -21.741  -4.421  -8.044  0.00  0.00    -0.002 A 
HETATM   21  C           1     -23.193  -3.651 -10.311  0.00  0.00     0.002 A 
HETATM   22  C           1     -23.850  -3.871  -9.103  0.00  0.00     0.001 A 
HETATM   23  C           1     -23.137  -4.257  -7.962  0.00  0.00     0.014 A 
ENDBRANCH  13  14
ENDBRANCH   1  13
BRANCH   1  24
HETATM   24  N           1     -22.977  -6.261  -4.852  0.00  0.00    -0.066 N 
HETATM   25  H           1     -22.825  -6.320  -3.820  0.00  0.00     0.275 HD
HETATM   26  H           1     -23.653  -7.001  -5.148  0.00  0.00     0.275 HD
HETATM   27  H           1     -23.365  -5.320  -5.093  0.00  0.00     0.275 HD
ENDBRANCH   1  24
TORSDOF 8
ENDMDL
MODEL 8
REMARK VINA RESULT:      -6.5      4.207      8.055
REMARK  8 active torsions:
REMARK  status: ('A' for Active; 'I' for Inactive)
REMARK    1  A    between atoms: C_5  and  Se_21 
REMARK    2  A    between atoms: C_5  and  C_6 
REMARK    3  A    between atoms: C_6  and  C_7 
REMARK    4  A    between atoms: C_6  and  N_24 
REMARK    5  A    between atoms: C_13  and  C_26 
REMARK    6  A    between atoms: C_13  and  C_17 
REMARK    7  A    between atoms: C_13  and  N_25 
REMARK    8  A    between atoms: C_17  and  C_19 
REMARK       I    between atoms: N_24  and  C_26 
ROOT
HETATM    1  C           1     -20.909  -6.975  -5.048  0.00  0.00     0.278 C 
ENDROOT
BRANCH   1   2
HETATM    2  C           1     -21.490  -7.384  -3.717  0.00  0.00     0.249 C 
HETATM    3  O           1     -22.018  -6.559  -3.009  0.00  0.00    -0.271 OA
HETATM    4  N           1     -21.420  -8.689  -3.312  0.00  0.00    -0.345 N 
HETATM    5  H           1     -20.978  -9.381  -3.904  0.00  0.00     0.163 HD
BRANCH   4   6
HETATM    6  C           1     -21.979  -9.082  -2.033  0.00  0.00     0.185 C 
BRANCH   6   7
HETATM    7  C           1     -22.626 -10.454  -2.160  0.00  0.00     0.039 C 
BRANCH   7   8
HETATM    8 Se           1     -23.530 -10.905  -0.492  0.00  0.00     0.000 Se
HETATM    9  H           1     -22.624 -10.108   0.350  0.00  0.00     0.000 HD
ENDBRANCH   7   8
ENDBRANCH   6   7
BRANCH   6  10
HETATM   10  C           1     -20.879  -9.140  -1.000  0.00  0.00     0.196 C 
HETATM   11  O           1     -20.907  -8.373  -0.014  0.00  0.00    -0.646 OA
HETATM   12  O           1     -19.941  -9.955  -1.132  0.00  0.00    -0.646 OA
ENDBRANCH   6  10
ENDBRANCH   4   6
ENDBRANCH   1   2
BRANCH   1  13
HETATM   13  C           1     -21.591  -5.702  -5.530  0.00  0.00     0.083 C 
BRANCH  13  14
HETATM   14  C           1     -20.824  -5.130  -6.682  0.00  0.00    -0.028 A 
HETATM   15  C           1     -19.475  -4.862  -6.706  0.00  0.00     0.096 A 
HETATM   16  N           1     -19.170  -4.349  -7.939  0.00  0.00    -0.365 N 
HETATM   17  C           1     -20.303  -4.278  -8.718  0.00  0.00     0.042 A 
HETATM   18  H           1     -18.211  -4.051  -8.245  0.00  0.00     0.165 HD
HETATM   19  C           1     -20.471  -3.825 -10.031  0.00  0.00     0.030 A 
HETATM   20  C           1     -21.360  -4.765  -7.948  0.00  0.00    -0.002 A 
HETATM   21  C           1     -21.760  -3.873 -10.572  0.00  0.00     0.002 A 
HETATM   22  C           1     -22.835  -4.354  -9.827  0.00  0.00     0.001 A 
HETATM   23  C           1     -22.649  -4.804  -8.514  0.00  0.00     0.014 A 
ENDBRANCH  13  14
ENDBRANCH   1  13
BRANCH   1  24
HETATM   24  N           1     -21.132  -8.070  -6.048  0.00  0.00    -0.066 N 
HETATM   25  H           1     -21.142  -7.665  -7.011  0.00  0.00     0.275 HD
HETATM   26  H           1     -22.047  -8.537  -5.856  0.00  0.00     0.275 HD
HETATM   27  H           1     -20.361  -8.772  -5.974  0.00  0.00     0.275 HD
ENDBRANCH   1  24
TORSDOF 8
ENDMDL
MODEL 9
REMARK VINA RESULT:      -6.4      1.720      2.680
REMARK  8 active torsions:
REMARK  status: ('A' for Active; 'I' for Inactive)
REMARK    1  A    between atoms: C_5  and  Se_21 
REMARK    2  A    between atoms: C_5  and  C_6 
REMARK    3  A    between atoms: C_6  and  C_7 
REMARK    4  A    between atoms: C_6  and  N_24 
REMARK    5  A    between atoms: C_13  and  C_26 
REMARK    6  A    between atoms: C_13  and  C_17 
REMARK    7  A    between atoms: C_13  and  N_25 
REMARK    8  A    between atoms: C_17  and  C_19 
REMARK       I    between atoms: N_24  and  C_26 
ROOT
HETATM    1  C           1     -21.462  -7.050  -5.248  0.00  0.00     0.278 C 
ENDROOT
BRANCH   1   2
HETATM    2  C           1     -21.245  -5.826  -6.103  0.00  0.00     0.249 C 
HETATM    3  O           1     -20.787  -4.820  -5.612  0.00  0.00    -0.271 OA
HETATM    4  N           1     -21.563  -5.854  -7.434  0.00  0.00    -0.345 N 
HETATM    5  H           1     -21.945  -6.696  -7.845  0.00  0.00     0.163 HD
BRANCH   4   6
HETATM    6  C           1     -21.353  -4.677  -8.254  0.00  0.00     0.185 C 
BRANCH   6   7
HETATM    7  C           1     -20.216  -4.936  -9.234  0.00  0.00     0.039 C 
BRANCH   7   8
HETATM    8 Se           1     -20.390  -3.741 -10.764  0.00  0.00     0.000 Se
HETATM    9  H           1     -21.658  -3.151 -10.307  0.00  0.00     0.000 HD
ENDBRANCH   7   8
ENDBRANCH   6   7
BRANCH   6  10
HETATM   10  C           1     -22.615  -4.368  -9.022  0.00  0.00     0.196 C 
HETATM   11  O           1     -23.241  -3.309  -8.796  0.00  0.00    -0.646 OA
HETATM   12  O           1     -23.035  -5.170  -9.883  0.00  0.00    -0.646 OA
ENDBRANCH   6  10
ENDBRANCH   4   6
ENDBRANCH   1   2
BRANCH   1  13
HETATM   13  C           1     -20.443  -7.069  -4.118  0.00  0.00     0.083 C 
BRANCH  13  14
HETATM   14  C           1     -21.157  -7.096  -2.802  0.00  0.00    -0.028 A 
HETATM   15  C           1     -22.002  -6.124  -2.317  0.00  0.00     0.096 A 
HETATM   16  N           1     -22.444  -6.528  -1.085  0.00  0.00    -0.365 N 
HETATM   17  C           1     -21.899  -7.750  -0.762  0.00  0.00     0.042 A 
HETATM   18  H           1     -23.104  -5.985  -0.476  0.00  0.00     0.165 HD
HETATM   19  C           1     -22.065  -8.541   0.381  0.00  0.00     0.030 A 
HETATM   20  C           1     -21.084  -8.130  -1.828  0.00  0.00    -0.002 A 
HETATM   21  C           1     -21.374  -9.756   0.433  0.00  0.00     0.002 A 
HETATM   22  C           1     -20.552 -10.161  -0.617  0.00  0.00     0.001 A 
HETATM   23  C           1     -20.398  -9.358  -1.754  0.00  0.00     0.014 A 
ENDBRANCH  13  14
ENDBRANCH   1  13
BRANCH   1  24
HETATM   24  N           1     -21.299  -8.282  -6.089  0.00  0.00    -0.066 N 
HETATM   25  H           1     -20.285  -8.441  -6.279  0.00  0.00     0.275 HD
HETATM   26  H           1     -21.808  -8.156  -6.994  0.00  0.00     0.275 HD
HETATM   27  H           1     -21.692  -9.106  -5.581  0.00  0.00     0.275 HD
ENDBRANCH   1  24
TORSDOF 8
ENDMDL
