MODEL 1
REMARK VINA RESULT:      -6.1      0.000      0.000
REMARK  16 active torsions:
REMARK  status: ('A' for Active; 'I' for Inactive)
REMARK    1  A    between atoms: C_1  and  C_29 
REMARK    2  A    between atoms: C_1  and  C_21 
REMARK    3  A    between atoms: C_2  and  C_33 
REMARK    4  A    between atoms: N_5  and  C_33 
REMARK    5  A    between atoms: N_5  and  C_6 
REMARK    6  A    between atoms: C_6  and  C_7 
REMARK    7  A    between atoms: C_7  and  C_8 
REMARK    8  A    between atoms: C_8  and  C_30 
REMARK    9  A    between atoms: C_8  and  N_27 
REMARK       I    between atoms: C_9  and  N_10 
REMARK       I    between atoms: C_9  and  N_11 
REMARK   10  A    between atoms: N_12  and  C_29 
REMARK   11  A    between atoms: C_21  and  C_22 
REMARK   12  A    between atoms: C_22  and  N_23 
REMARK   13  A    between atoms: Se_25  and  C_35 
REMARK       I    between atoms: N_27  and  C_28 
REMARK   14  A    between atoms: C_28  and  C_29 
REMARK   15  A    between atoms: C_33  and  C_34 
REMARK   16  A    between atoms: C_34  and  C_35 
ROOT
HETATM    1  O           1     -21.643  -7.826  -5.528  0.00  0.00    -0.271 OA
HETATM    2  H           1     -20.566  -5.725  -3.462  0.00  0.00     0.163 HD
HETATM    3  N           1     -20.977  -6.589  -3.792  0.00  0.00    -0.345 N 
HETATM    4  C           1     -21.152  -6.795  -5.135  0.00  0.00     0.249 C 
ENDROOT
BRANCH   4   5
HETATM    5  C           1     -20.731  -5.734  -6.122  0.00  0.00     0.274 C 
BRANCH   5   6
HETATM    6  C           1     -21.969  -5.086  -6.728  0.00  0.00     0.044 C 
BRANCH   6   7
HETATM    7  C           1     -21.570  -3.803  -7.445  0.00  0.00     0.023 C 
BRANCH   7   8
HETATM    8  C           1     -22.110  -3.826  -8.869  0.00  0.00     0.138 C 
BRANCH   8   9
HETATM    9  N           1     -23.524  -3.425  -8.864  0.00  0.00    -0.227 N 
HETATM   10  C           1     -24.328  -3.931  -9.701  0.00  0.00     0.665 C 
HETATM   11  N           1     -25.546  -3.585  -9.697  0.00  0.00    -0.235 N 
HETATM   12  N           1     -23.903  -4.805 -10.564  0.00  0.00    -0.235 N 
HETATM   13  H           1     -26.213  -4.005 -10.391  0.00  0.00     0.174 HD
HETATM   14  H           1     -25.889  -2.879  -9.000  0.00  0.00     0.174 HD
HETATM   15  H           1     -24.566  -5.222 -11.255  0.00  0.00     0.174 HD
HETATM   16  H           1     -22.898  -5.091 -10.567  0.00  0.00     0.174 HD
HETATM   17  H           1     -23.867  -2.719  -8.166  0.00  0.00     0.177 HD
ENDBRANCH   8   9
ENDBRANCH   7   8
ENDBRANCH   6   7
ENDBRANCH   5   6
BRANCH   5  18
HETATM   18  N           1     -19.912  -6.361  -7.210  0.00  0.00    -0.067 N 
HETATM   19  H           1     -18.916  -6.058  -7.115  0.00  0.00     0.275 HD
HETATM   20  H           1     -19.968  -7.401  -7.132  0.00  0.00     0.275 HD
HETATM   21  H           1     -20.280  -6.059  -8.140  0.00  0.00     0.275 HD
ENDBRANCH   5  18
ENDBRANCH   4   5
BRANCH   3  22
HETATM   22  C           1     -21.381  -7.608  -2.843  0.00  0.00     0.187 C 
BRANCH  22  23
HETATM   23  C           1     -20.165  -8.426  -2.429  0.00  0.00     0.066 C 
BRANCH  23  24
HETATM   24  C           1     -20.357  -9.874  -2.862  0.00  0.00     0.273 C 
BRANCH  24  25
HETATM   25  N           1     -19.076 -10.466  -3.139  0.00  0.00     0.098 N 
HETATM   26  H           1     -19.207 -11.331  -3.663  0.00  0.00     0.317 HD
BRANCH  25  27
HETATM   27  C           1     -18.326  -9.533  -3.936  0.00  0.00     0.320 C 
BRANCH  27  28
HETATM   28  C           1     -18.575  -9.808  -5.399  0.00  0.00     0.207 C 
HETATM   29  O           1     -18.489  -8.881  -6.233  0.00  0.00    -0.646 OA
HETATM   30  O           1     -18.866 -10.964  -5.776  0.00  0.00    -0.646 OA
ENDBRANCH  27  28
BRANCH  27  31
HETATM   31  C           1     -16.842  -9.686  -3.635  0.00  0.00     0.047 C 
BRANCH  31  32
HETATM   32  C           1     -16.641 -10.815  -2.631  0.00  0.00     0.003 C 
BRANCH  32  33
HETATM   33 Se           1     -15.086 -11.872  -3.143  0.00  0.00     0.000 Se
HETATM   34  C           1     -15.527 -11.902  -5.041  0.00  0.00     0.000 C 
ENDBRANCH  32  33
ENDBRANCH  31  32
ENDBRANCH  27  31
ENDBRANCH  25  27
ENDBRANCH  24  25
ENDBRANCH  23  24
ENDBRANCH  22  23
BRANCH  22  35
HETATM   35  C           1     -21.984  -6.951  -1.626  0.00  0.00     0.196 C 
HETATM   36  O           1     -22.530  -5.830  -1.726  0.00  0.00    -0.646 OA
HETATM   37  O           1     -21.937  -7.526  -0.517  0.00  0.00    -0.646 OA
ENDBRANCH  22  35
ENDBRANCH   3  22
TORSDOF 16
ENDMDL
MODEL 2
REMARK VINA RESULT:      -6.1      2.723      4.851
REMARK  16 active torsions:
REMARK  status: ('A' for Active; 'I' for Inactive)
REMARK    1  A    between atoms: C_1  and  C_29 
REMARK    2  A    between atoms: C_1  and  C_21 
REMARK    3  A    between atoms: C_2  and  C_33 
REMARK    4  A    between atoms: N_5  and  C_33 
REMARK    5  A    between atoms: N_5  and  C_6 
REMARK    6  A    between atoms: C_6  and  C_7 
REMARK    7  A    between atoms: C_7  and  C_8 
REMARK    8  A    between atoms: C_8  and  C_30 
REMARK    9  A    between atoms: C_8  and  N_27 
REMARK       I    between atoms: C_9  and  N_10 
REMARK       I    between atoms: C_9  and  N_11 
REMARK   10  A    between atoms: N_12  and  C_29 
REMARK   11  A    between atoms: C_21  and  C_22 
REMARK   12  A    between atoms: C_22  and  N_23 
REMARK   13  A    between atoms: Se_25  and  C_35 
REMARK       I    between atoms: N_27  and  C_28 
REMARK   14  A    between atoms: C_28  and  C_29 
REMARK   15  A    between atoms: C_33  and  C_34 
REMARK   16  A    between atoms: C_34  and  C_35 
ROOT
HETATM    1  O           1     -19.871  -7.621  -6.161  0.00  0.00    -0.271 OA
HETATM    2  H           1     -21.476  -8.237  -3.537  0.00  0.00     0.163 HD
HETATM    3  N           1     -20.841  -8.402  -4.308  0.00  0.00    -0.345 N 
HETATM    4  C           1     -20.629  -7.424  -5.242  0.00  0.00     0.249 C 
ENDROOT
BRANCH   4   5
HETATM    5  C           1     -21.343  -6.100  -5.124  0.00  0.00     0.274 C 
BRANCH   5   6
HETATM    6  C           1     -20.355  -4.966  -5.365  0.00  0.00     0.044 C 
BRANCH   6   7
HETATM    7  C           1     -20.755  -4.202  -6.619  0.00  0.00     0.023 C 
BRANCH   7   8
HETATM    8  C           1     -22.125  -4.674  -7.088  0.00  0.00     0.138 C 
BRANCH   8   9
HETATM    9  N           1     -22.146  -4.740  -8.557  0.00  0.00    -0.227 N 
HETATM   10  C           1     -23.143  -4.293  -9.196  0.00  0.00     0.665 C 
HETATM   11  N           1     -23.160  -4.350 -10.460  0.00  0.00    -0.235 N 
HETATM   12  N           1     -24.148  -3.776  -8.554  0.00  0.00    -0.235 N 
HETATM   13  H           1     -23.987  -3.979 -10.991  0.00  0.00     0.174 HD
HETATM   14  H           1     -22.349  -4.767 -10.979  0.00  0.00     0.174 HD
HETATM   15  H           1     -24.972  -3.408  -9.082  0.00  0.00     0.174 HD
HETATM   16  H           1     -24.134  -3.729  -7.510  0.00  0.00     0.174 HD
HETATM   17  H           1     -21.333  -5.156  -9.075  0.00  0.00     0.177 HD
ENDBRANCH   8   9
ENDBRANCH   7   8
ENDBRANCH   6   7
ENDBRANCH   5   6
BRANCH   5  18
HETATM   18  N           1     -21.928  -5.969  -3.749  0.00  0.00    -0.067 N 
HETATM   19  H           1     -21.564  -5.100  -3.296  0.00  0.00     0.275 HD
HETATM   20  H           1     -22.969  -5.915  -3.818  0.00  0.00     0.275 HD
HETATM   21  H           1     -21.658  -6.800  -3.175  0.00  0.00     0.275 HD
ENDBRANCH   5  18
ENDBRANCH   4   5
BRANCH   3  22
HETATM   22  C           1     -20.155  -9.674  -4.421  0.00  0.00     0.187 C 
BRANCH  22  23
HETATM   23  C           1     -19.792 -10.180  -3.031  0.00  0.00     0.066 C 
BRANCH  23  24
HETATM   24  C           1     -20.158  -9.125  -1.995  0.00  0.00     0.273 C 
BRANCH  24  25
HETATM   25  N           1     -20.907  -9.738  -0.931  0.00  0.00     0.098 N 
HETATM   26  H           1     -20.489  -9.489  -0.034  0.00  0.00     0.317 HD
BRANCH  25  27
HETATM   27  C           1     -22.250  -9.229  -0.991  0.00  0.00     0.320 C 
BRANCH  27  28
HETATM   28  C           1     -22.316  -7.901  -0.277  0.00  0.00     0.207 C 
HETATM   29  O           1     -22.706  -6.882  -0.887  0.00  0.00    -0.646 OA
HETATM   30  O           1     -21.981  -7.820   0.925  0.00  0.00    -0.646 OA
ENDBRANCH  27  28
BRANCH  27  31
HETATM   31  C           1     -23.196 -10.214  -0.320  0.00  0.00     0.047 C 
BRANCH  31  32
HETATM   32  C           1     -23.774 -11.158  -1.367  0.00  0.00     0.003 C 
BRANCH  32  33
HETATM   33 Se           1     -23.654 -12.994  -0.726  0.00  0.00     0.000 Se
HETATM   34  C           1     -22.477 -12.568   0.768  0.00  0.00     0.000 C 
ENDBRANCH  32  33
ENDBRANCH  31  32
ENDBRANCH  27  31
ENDBRANCH  25  27
ENDBRANCH  24  25
ENDBRANCH  23  24
ENDBRANCH  22  23
BRANCH  22  35
HETATM   35  C           1     -21.058 -10.673  -5.101  0.00  0.00     0.196 C 
HETATM   36  O           1     -21.935 -11.273  -4.442  0.00  0.00    -0.646 OA
HETATM   37  O           1     -20.930 -10.902  -6.323  0.00  0.00    -0.646 OA
ENDBRANCH  22  35
ENDBRANCH   3  22
TORSDOF 16
ENDMDL
MODEL 3
REMARK VINA RESULT:      -6.0     15.407     18.033
REMARK  16 active torsions:
REMARK  status: ('A' for Active; 'I' for Inactive)
REMARK    1  A    between atoms: C_1  and  C_29 
REMARK    2  A    between atoms: C_1  and  C_21 
REMARK    3  A    between atoms: C_2  and  C_33 
REMARK    4  A    between atoms: N_5  and  C_33 
REMARK    5  A    between atoms: N_5  and  C_6 
REMARK    6  A    between atoms: C_6  and  C_7 
REMARK    7  A    between atoms: C_7  and  C_8 
REMARK    8  A    between atoms: C_8  and  C_30 
REMARK    9  A    between atoms: C_8  and  N_27 
REMARK       I    between atoms: C_9  and  N_10 
REMARK       I    between atoms: C_9  and  N_11 
REMARK   10  A    between atoms: N_12  and  C_29 
REMARK   11  A    between atoms: C_21  and  C_22 
REMARK   12  A    between atoms: C_22  and  N_23 
REMARK   13  A    between atoms: Se_25  and  C_35 
REMARK       I    between atoms: N_27  and  C_28 
REMARK   14  A    between atoms: C_28  and  C_29 
REMARK   15  A    between atoms: C_33  and  C_34 
REMARK   16  A    between atoms: C_34  and  C_35 
ROOT
HETATM    1  O           1     -34.816  -0.176 -12.183  0.00  0.00    -0.271 OA
HETATM    2  H           1     -35.014  -2.566 -14.205  0.00  0.00     0.163 HD
HETATM    3  N           1     -35.089  -1.615 -13.869  0.00  0.00    -0.345 N 
HETATM    4  C           1     -34.726  -1.312 -12.583  0.00  0.00     0.249 C 
ENDROOT
BRANCH   4   5
HETATM    5  C           1     -34.215  -2.397 -11.669  0.00  0.00     0.274 C 
BRANCH   5   6
HETATM    6  C           1     -35.368  -3.307 -11.265  0.00  0.00     0.044 C 
BRANCH   6   7
HETATM    7  C           1     -34.996  -4.756 -11.549  0.00  0.00     0.023 C 
BRANCH   7   8
HETATM    8  C           1     -34.061  -5.264 -10.459  0.00  0.00     0.138 C 
BRANCH   8   9
HETATM    9  N           1     -33.629  -6.632 -10.782  0.00  0.00    -0.227 N 
HETATM   10  C           1     -34.162  -7.619 -10.197  0.00  0.00     0.665 C 
HETATM   11  N           1     -33.790  -8.796 -10.476  0.00  0.00    -0.235 N 
HETATM   12  N           1     -35.094  -7.424  -9.311  0.00  0.00    -0.235 N 
HETATM   13  H           1     -34.233  -9.616  -9.990  0.00  0.00     0.174 HD
HETATM   14  H           1     -33.038  -8.954 -11.191  0.00  0.00     0.174 HD
HETATM   15  H           1     -35.534  -8.239  -8.827  0.00  0.00     0.174 HD
HETATM   16  H           1     -35.401  -6.452  -9.081  0.00  0.00     0.174 HD
HETATM   17  H           1     -32.877  -6.789 -11.499  0.00  0.00     0.177 HD
ENDBRANCH   8   9
ENDBRANCH   7   8
ENDBRANCH   6   7
ENDBRANCH   5   6
BRANCH   5  18
HETATM   18  N           1     -33.615  -1.776 -10.443  0.00  0.00    -0.067 N 
HETATM   19  H           1     -34.357  -1.270  -9.909  0.00  0.00     0.275 HD
HETATM   20  H           1     -33.203  -2.524  -9.841  0.00  0.00     0.275 HD
HETATM   21  H           1     -32.867  -1.102 -10.724  0.00  0.00     0.275 HD
ENDBRANCH   5  18
ENDBRANCH   4   5
BRANCH   3  22
HETATM   22  C           1     -35.581  -0.572 -14.748  0.00  0.00     0.187 C 
BRANCH  22  23
HETATM   23  C           1     -35.011  -0.776 -16.145  0.00  0.00     0.066 C 
BRANCH  23  24
HETATM   24  C           1     -35.054  -2.257 -16.500  0.00  0.00     0.273 C 
BRANCH  24  25
HETATM   25  N           1     -33.754  -2.683 -16.942  0.00  0.00     0.098 N 
HETATM   26  H           1     -33.037  -2.243 -16.364  0.00  0.00     0.317 HD
BRANCH  25  27
HETATM   27  C           1     -33.685  -4.110 -16.788  0.00  0.00     0.320 C 
BRANCH  27  28
HETATM   28  C           1     -34.145  -4.488 -15.401  0.00  0.00     0.207 C 
HETATM   29  O           1     -35.129  -5.244 -15.253  0.00  0.00    -0.646 OA
HETATM   30  O           1     -33.540  -4.045 -14.400  0.00  0.00    -0.646 OA
ENDBRANCH  27  28
BRANCH  27  31
HETATM   31  C           1     -32.249  -4.574 -16.991  0.00  0.00     0.047 C 
BRANCH  31  32
HETATM   32  C           1     -31.433  -3.444 -17.607  0.00  0.00     0.003 C 
BRANCH  32  33
HETATM   33 Se           1     -29.555  -3.963 -17.678  0.00  0.00     0.000 Se
HETATM   34  C           1     -29.702  -5.299 -16.267  0.00  0.00     0.000 C 
ENDBRANCH  32  33
ENDBRANCH  31  32
ENDBRANCH  27  31
ENDBRANCH  25  27
ENDBRANCH  24  25
ENDBRANCH  23  24
ENDBRANCH  22  23
BRANCH  22  35
HETATM   35  C           1     -37.088  -0.633 -14.806  0.00  0.00     0.196 C 
HETATM   36  O           1     -37.671  -0.651 -15.912  0.00  0.00    -0.646 OA
HETATM   37  O           1     -37.753  -0.665 -13.749  0.00  0.00    -0.646 OA
ENDBRANCH  22  35
ENDBRANCH   3  22
TORSDOF 16
ENDMDL
MODEL 4
REMARK VINA RESULT:      -6.0      2.501      4.605
REMARK  16 active torsions:
REMARK  status: ('A' for Active; 'I' for Inactive)
REMARK    1  A    between atoms: C_1  and  C_29 
REMARK    2  A    between atoms: C_1  and  C_21 
REMARK    3  A    between atoms: C_2  and  C_33 
REMARK    4  A    between atoms: N_5  and  C_33 
REMARK    5  A    between atoms: N_5  and  C_6 
REMARK    6  A    between atoms: C_6  and  C_7 
REMARK    7  A    between atoms: C_7  and  C_8 
REMARK    8  A    between atoms: C_8  and  C_30 
REMARK    9  A    between atoms: C_8  and  N_27 
REMARK       I    between atoms: C_9  and  N_10 
REMARK       I    between atoms: C_9  and  N_11 
REMARK   10  A    between atoms: N_12  and  C_29 
REMARK   11  A    between atoms: C_21  and  C_22 
REMARK   12  A    between atoms: C_22  and  N_23 
REMARK   13  A    between atoms: Se_25  and  C_35 
REMARK       I    between atoms: N_27  and  C_28 
REMARK   14  A    between atoms: C_28  and  C_29 
REMARK   15  A    between atoms: C_33  and  C_34 
REMARK   16  A    between atoms: C_34  and  C_35 
ROOT
HETATM    1  O           1     -20.895  -5.655  -4.576  0.00  0.00    -0.271 OA
HETATM    2  H           1     -19.714  -7.339  -6.945  0.00  0.00     0.163 HD
HETATM    3  N           1     -20.033  -7.138  -6.006  0.00  0.00    -0.345 N 
HETATM    4  C           1     -20.513  -5.893  -5.697  0.00  0.00     0.249 C 
ENDROOT
BRANCH   4   5
HETATM    5  C           1     -20.565  -4.821  -6.757  0.00  0.00     0.274 C 
BRANCH   5   6
HETATM    6  C           1     -21.509  -5.254  -7.872  0.00  0.00     0.044 C 
BRANCH   6   7
HETATM    7  C           1     -22.662  -4.266  -7.974  0.00  0.00     0.023 C 
BRANCH   7   8
HETATM    8  C           1     -23.238  -4.300  -9.384  0.00  0.00     0.138 C 
BRANCH   8   9
HETATM    9  N           1     -22.194  -3.932 -10.351  0.00  0.00    -0.227 N 
HETATM   10  C           1     -22.279  -4.320 -11.553  0.00  0.00     0.665 C 
HETATM   11  N           1     -21.380  -4.002 -12.385  0.00  0.00    -0.235 N 
HETATM   12  N           1     -23.290  -5.042 -11.932  0.00  0.00    -0.235 N 
HETATM   13  H           1     -21.450  -4.323 -13.382  0.00  0.00     0.174 HD
HETATM   14  H           1     -20.563  -3.418 -12.078  0.00  0.00     0.174 HD
HETATM   15  H           1     -23.361  -5.363 -12.924  0.00  0.00     0.174 HD
HETATM   16  H           1     -24.033  -5.305 -11.245  0.00  0.00     0.174 HD
HETATM   17  H           1     -21.378  -3.347 -10.044  0.00  0.00     0.177 HD
ENDBRANCH   8   9
ENDBRANCH   7   8
ENDBRANCH   6   7
ENDBRANCH   5   6
BRANCH   5  18
HETATM   18  N           1     -19.192  -4.607  -7.320  0.00  0.00    -0.067 N 
HETATM   19  H           1     -18.657  -5.505  -7.286  0.00  0.00     0.275 HD
HETATM   20  H           1     -19.269  -4.285  -8.310  0.00  0.00     0.275 HD
HETATM   21  H           1     -18.693  -3.884  -6.754  0.00  0.00     0.275 HD
ENDBRANCH   5  18
ENDBRANCH   4   5
BRANCH   3  22
HETATM   22  C           1     -19.983  -8.169  -4.988  0.00  0.00     0.187 C 
BRANCH  22  23
HETATM   23  C           1     -21.228  -9.041  -5.087  0.00  0.00     0.066 C 
BRANCH  23  24
HETATM   24  C           1     -21.818  -9.244  -3.697  0.00  0.00     0.273 C 
BRANCH  24  25
HETATM   25  N           1     -21.488  -8.118  -2.867  0.00  0.00     0.098 N 
HETATM   26  H           1     -22.012  -7.300  -3.179  0.00  0.00     0.317 HD
BRANCH  25  27
HETATM   27  C           1     -21.865  -8.442  -1.518  0.00  0.00     0.320 C 
BRANCH  27  28
HETATM   28  C           1     -22.531  -7.247  -0.881  0.00  0.00     0.207 C 
HETATM   29  O           1     -23.260  -7.399   0.123  0.00  0.00    -0.646 OA
HETATM   30  O           1     -22.354  -6.105  -1.359  0.00  0.00    -0.646 OA
ENDBRANCH  27  28
BRANCH  27  31
HETATM   31  C           1     -20.624  -8.818  -0.720  0.00  0.00     0.047 C 
BRANCH  31  32
HETATM   32  C           1     -21.000  -9.819   0.365  0.00  0.00     0.003 C 
BRANCH  32  33
HETATM   33 Se           1     -22.306 -11.083  -0.341  0.00  0.00     0.000 Se
HETATM   34  C           1     -21.782 -12.538   0.845  0.00  0.00     0.000 C 
ENDBRANCH  32  33
ENDBRANCH  31  32
ENDBRANCH  27  31
ENDBRANCH  25  27
ENDBRANCH  24  25
ENDBRANCH  23  24
ENDBRANCH  22  23
BRANCH  22  35
HETATM   35  C           1     -18.755  -9.021  -5.195  0.00  0.00     0.196 C 
HETATM   36  O           1     -18.239  -9.108  -6.330  0.00  0.00    -0.646 OA
HETATM   37  O           1     -18.253  -9.639  -4.231  0.00  0.00    -0.646 OA
ENDBRANCH  22  35
ENDBRANCH   3  22
TORSDOF 16
ENDMDL
MODEL 5
REMARK VINA RESULT:      -5.9      2.400      3.190
REMARK  16 active torsions:
REMARK  status: ('A' for Active; 'I' for Inactive)
REMARK    1  A    between atoms: C_1  and  C_29 
REMARK    2  A    between atoms: C_1  and  C_21 
REMARK    3  A    between atoms: C_2  and  C_33 
REMARK    4  A    between atoms: N_5  and  C_33 
REMARK    5  A    between atoms: N_5  and  C_6 
REMARK    6  A    between atoms: C_6  and  C_7 
REMARK    7  A    between atoms: C_7  and  C_8 
REMARK    8  A    between atoms: C_8  and  C_30 
REMARK    9  A    between atoms: C_8  and  N_27 
REMARK       I    between atoms: C_9  and  N_10 
REMARK       I    between atoms: C_9  and  N_11 
REMARK   10  A    between atoms: N_12  and  C_29 
REMARK   11  A    between atoms: C_21  and  C_22 
REMARK   12  A    between atoms: C_22  and  N_23 
REMARK   13  A    between atoms: Se_25  and  C_35 
REMARK       I    between atoms: N_27  and  C_28 
REMARK   14  A    between atoms: C_28  and  C_29 
REMARK   15  A    between atoms: C_33  and  C_34 
REMARK   16  A    between atoms: C_34  and  C_35 
ROOT
HETATM    1  O           1     -21.841  -7.629  -5.556  0.00  0.00    -0.271 OA
HETATM    2  H           1     -20.338  -5.785  -3.511  0.00  0.00     0.163 HD
HETATM    3  N           1     -20.877  -6.576  -3.839  0.00  0.00    -0.345 N 
HETATM    4  C           1     -21.199  -6.684  -5.166  0.00  0.00     0.249 C 
ENDROOT
BRANCH   4   5
HETATM    5  C           1     -20.750  -5.622  -6.139  0.00  0.00     0.274 C 
BRANCH   5   6
HETATM    6  C           1     -21.970  -4.937  -6.741  0.00  0.00     0.044 C 
BRANCH   6   7
HETATM    7  C           1     -21.523  -3.742  -7.572  0.00  0.00     0.023 C 
BRANCH   7   8
HETATM    8  C           1     -22.164  -3.814  -8.952  0.00  0.00     0.138 C 
BRANCH   8   9
HETATM    9  N           1     -23.594  -3.489  -8.846  0.00  0.00    -0.227 N 
HETATM   10  C           1     -24.392  -3.843  -9.763  0.00  0.00     0.665 C 
HETATM   11  N           1     -25.623  -3.564  -9.671  0.00  0.00    -0.235 N 
HETATM   12  N           1     -23.947  -4.493 -10.797  0.00  0.00    -0.235 N 
HETATM   13  H           1     -26.286  -3.857 -10.432  0.00  0.00     0.174 HD
HETATM   14  H           1     -25.982  -3.038  -8.836  0.00  0.00     0.174 HD
HETATM   15  H           1     -24.606  -4.784 -11.554  0.00  0.00     0.174 HD
HETATM   16  H           1     -22.931  -4.724 -10.872  0.00  0.00     0.174 HD
HETATM   17  H           1     -23.952  -2.965  -8.010  0.00  0.00     0.177 HD
ENDBRANCH   8   9
ENDBRANCH   7   8
ENDBRANCH   6   7
ENDBRANCH   5   6
BRANCH   5  18
HETATM   18  N           1     -19.942  -6.256  -7.232  0.00  0.00    -0.067 N 
HETATM   19  H           1     -19.235  -6.901  -6.814  0.00  0.00     0.275 HD
HETATM   20  H           1     -20.576  -6.795  -7.864  0.00  0.00     0.275 HD
HETATM   21  H           1     -19.453  -5.511  -7.780  0.00  0.00     0.275 HD
ENDBRANCH   5  18
ENDBRANCH   4   5
BRANCH   3  22
HETATM   22  C           1     -21.307  -7.597  -2.903  0.00  0.00     0.187 C 
BRANCH  22  23
HETATM   23  C           1     -20.102  -8.406  -2.444  0.00  0.00     0.066 C 
BRANCH  23  24
HETATM   24  C           1     -20.057  -9.725  -3.204  0.00  0.00     0.273 C 
BRANCH  24  25
HETATM   25  N           1     -21.314  -9.939  -3.869  0.00  0.00     0.098 N 
HETATM   26  H           1     -21.301  -9.474  -4.778  0.00  0.00     0.317 HD
BRANCH  25  27
HETATM   27  C           1     -21.474 -11.355  -4.058  0.00  0.00     0.320 C 
BRANCH  27  28
HETATM   28  C           1     -21.460 -11.670  -5.534  0.00  0.00     0.207 C 
HETATM   29  O           1     -21.046 -10.818  -6.351  0.00  0.00    -0.646 OA
HETATM   30  O           1     -21.861 -12.782  -5.939  0.00  0.00    -0.646 OA
ENDBRANCH  27  28
BRANCH  27  31
HETATM   31  C           1     -22.800 -11.799  -3.457  0.00  0.00     0.047 C 
BRANCH  31  32
HETATM   32  C           1     -22.577 -12.274  -2.026  0.00  0.00     0.003 C 
BRANCH  32  33
HETATM   33 Se           1     -23.090 -10.862  -0.785  0.00  0.00     0.000 Se
HETATM   34  C           1     -21.400 -10.878   0.187  0.00  0.00     0.000 C 
ENDBRANCH  32  33
ENDBRANCH  31  32
ENDBRANCH  27  31
ENDBRANCH  25  27
ENDBRANCH  24  25
ENDBRANCH  23  24
ENDBRANCH  22  23
BRANCH  22  35
HETATM   35  C           1     -21.957  -6.941  -1.709  0.00  0.00     0.196 C 
HETATM   36  O           1     -21.820  -7.439  -0.571  0.00  0.00    -0.646 OA
HETATM   37  O           1     -22.633  -5.901  -1.858  0.00  0.00    -0.646 OA
ENDBRANCH  22  35
ENDBRANCH   3  22
TORSDOF 16
ENDMDL
MODEL 6
REMARK VINA RESULT:      -5.9      1.915      2.400
REMARK  16 active torsions:
REMARK  status: ('A' for Active; 'I' for Inactive)
REMARK    1  A    between atoms: C_1  and  C_29 
REMARK    2  A    between atoms: C_1  and  C_21 
REMARK    3  A    between atoms: C_2  and  C_33 
REMARK    4  A    between atoms: N_5  and  C_33 
REMARK    5  A    between atoms: N_5  and  C_6 
REMARK    6  A    between atoms: C_6  and  C_7 
REMARK    7  A    between atoms: C_7  and  C_8 
REMARK    8  A    between atoms: C_8  and  C_30 
REMARK    9  A    between atoms: C_8  and  N_27 
REMARK       I    between atoms: C_9  and  N_10 
REMARK       I    between atoms: C_9  and  N_11 
REMARK   10  A    between atoms: N_12  and  C_29 
REMARK   11  A    between atoms: C_21  and  C_22 
REMARK   12  A    between atoms: C_22  and  N_23 
REMARK   13  A    between atoms: Se_25  and  C_35 
REMARK       I    between atoms: N_27  and  C_28 
REMARK   14  A    between atoms: C_28  and  C_29 
REMARK   15  A    between atoms: C_33  and  C_34 
REMARK   16  A    between atoms: C_34  and  C_35 
ROOT
HETATM    1  O           1     -22.609  -5.495  -5.815  0.00  0.00    -0.271 OA
HETATM    2  H           1     -19.825  -6.340  -4.641  0.00  0.00     0.163 HD
HETATM    3  N           1     -20.828  -6.346  -4.769  0.00  0.00    -0.345 N 
HETATM    4  C           1     -21.411  -5.487  -5.663  0.00  0.00     0.249 C 
ENDROOT
BRANCH   4   5
HETATM    5  C           1     -20.555  -4.532  -6.458  0.00  0.00     0.274 C 
BRANCH   5   6
HETATM    6  C           1     -21.387  -3.911  -7.572  0.00  0.00     0.044 C 
BRANCH   6   7
HETATM    7  C           1     -20.671  -4.093  -8.903  0.00  0.00     0.023 C 
BRANCH   7   8
HETATM    8  C           1     -21.651  -3.859 -10.045  0.00  0.00     0.138 C 
BRANCH   8   9
HETATM    9  N           1     -23.006  -3.684  -9.501  0.00  0.00    -0.227 N 
HETATM   10  C           1     -23.993  -4.233 -10.072  0.00  0.00     0.665 C 
HETATM   11  N           1     -25.159  -4.083  -9.603  0.00  0.00    -0.235 N 
HETATM   12  N           1     -23.809  -4.952 -11.139  0.00  0.00    -0.235 N 
HETATM   13  H           1     -25.978  -4.538 -10.077  0.00  0.00     0.174 HD
HETATM   14  H           1     -25.308  -3.502  -8.741  0.00  0.00     0.174 HD
HETATM   15  H           1     -24.624  -5.405 -11.611  0.00  0.00     0.174 HD
HETATM   16  H           1     -22.846  -5.077 -11.526  0.00  0.00     0.174 HD
HETATM   17  H           1     -23.154  -3.104  -8.638  0.00  0.00     0.177 HD
ENDBRANCH   8   9
ENDBRANCH   7   8
ENDBRANCH   6   7
ENDBRANCH   5   6
BRANCH   5  18
HETATM   18  N           1     -19.397  -5.276  -7.054  0.00  0.00    -0.067 N 
HETATM   19  H           1     -19.141  -6.078  -6.435  0.00  0.00     0.275 HD
HETATM   20  H           1     -19.665  -5.636  -7.998  0.00  0.00     0.275 HD
HETATM   21  H           1     -18.579  -4.632  -7.145  0.00  0.00     0.275 HD
ENDBRANCH   5  18
ENDBRANCH   4   5
BRANCH   3  22
HETATM   22  C           1     -21.650  -7.264  -4.005  0.00  0.00     0.187 C 
BRANCH  22  23
HETATM   23  C           1     -21.086  -8.673  -4.130  0.00  0.00     0.066 C 
BRANCH  23  24
HETATM   24  C           1     -19.672  -8.606  -4.693  0.00  0.00     0.273 C 
BRANCH  24  25
HETATM   25  N           1     -18.738  -9.063  -3.701  0.00  0.00     0.098 N 
HETATM   26  H           1     -19.244  -9.528  -2.946  0.00  0.00     0.317 HD
BRANCH  25  27
HETATM   27  C           1     -17.852 -10.003  -4.333  0.00  0.00     0.320 C 
BRANCH  27  28
HETATM   28  C           1     -16.426  -9.671  -3.968  0.00  0.00     0.207 C 
HETATM   29  O           1     -16.126  -9.426  -2.780  0.00  0.00    -0.646 OA
HETATM   30  O           1     -15.545  -9.642  -4.855  0.00  0.00    -0.646 OA
ENDBRANCH  27  28
BRANCH  27  31
HETATM   31  C           1     -18.023  -9.923  -5.844  0.00  0.00     0.047 C 
BRANCH  31  32
HETATM   32  C           1     -18.094 -11.331  -6.422  0.00  0.00     0.003 C 
BRANCH  32  33
HETATM   33 Se           1     -19.404 -12.377  -5.429  0.00  0.00     0.000 Se
HETATM   34  C           1     -20.925 -11.790  -6.496  0.00  0.00     0.000 C 
ENDBRANCH  32  33
ENDBRANCH  31  32
ENDBRANCH  27  31
ENDBRANCH  25  27
ENDBRANCH  24  25
ENDBRANCH  23  24
ENDBRANCH  22  23
BRANCH  22  35
HETATM   35  C           1     -21.652  -6.850  -2.555  0.00  0.00     0.196 C 
HETATM   36  O           1     -22.352  -5.883  -2.181  0.00  0.00    -0.646 OA
HETATM   37  O           1     -20.953  -7.471  -1.726  0.00  0.00    -0.646 OA
ENDBRANCH  22  35
ENDBRANCH   3  22
TORSDOF 16
ENDMDL
MODEL 7
REMARK VINA RESULT:      -5.8     14.006     16.606
REMARK  16 active torsions:
REMARK  status: ('A' for Active; 'I' for Inactive)
REMARK    1  A    between atoms: C_1  and  C_29 
REMARK    2  A    between atoms: C_1  and  C_21 
REMARK    3  A    between atoms: C_2  and  C_33 
REMARK    4  A    between atoms: N_5  and  C_33 
REMARK    5  A    between atoms: N_5  and  C_6 
REMARK    6  A    between atoms: C_6  and  C_7 
REMARK    7  A    between atoms: C_7  and  C_8 
REMARK    8  A    between atoms: C_8  and  C_30 
REMARK    9  A    between atoms: C_8  and  N_27 
REMARK       I    between atoms: C_9  and  N_10 
REMARK       I    between atoms: C_9  and  N_11 
REMARK   10  A    between atoms: N_12  and  C_29 
REMARK   11  A    between atoms: C_21  and  C_22 
REMARK   12  A    between atoms: C_22  and  N_23 
REMARK   13  A    between atoms: Se_25  and  C_35 
REMARK       I    between atoms: N_27  and  C_28 
REMARK   14  A    between atoms: C_28  and  C_29 
REMARK   15  A    between atoms: C_33  and  C_34 
REMARK   16  A    between atoms: C_34  and  C_35 
ROOT
HETATM    1  O           1     -32.611  -4.089 -13.254  0.00  0.00    -0.271 OA
HETATM    2  H           1     -35.279  -4.815 -14.736  0.00  0.00     0.163 HD
HETATM    3  N           1     -34.318  -4.518 -14.628  0.00  0.00    -0.345 N 
HETATM    4  C           1     -33.758  -4.443 -13.381  0.00  0.00     0.249 C 
ENDROOT
BRANCH   4   5
HETATM    5  C           1     -34.576  -4.803 -12.165  0.00  0.00     0.274 C 
BRANCH   5   6
HETATM    6  C           1     -33.761  -4.536 -10.907  0.00  0.00     0.044 C 
BRANCH   6   7
HETATM    7  C           1     -33.868  -3.063 -10.536  0.00  0.00     0.023 C 
BRANCH   7   8
HETATM    8  C           1     -35.212  -2.517 -11.000  0.00  0.00     0.138 C 
BRANCH   8   9
HETATM    9  N           1     -35.117  -1.061 -11.175  0.00  0.00    -0.227 N 
HETATM   10  C           1     -35.046  -0.566 -12.339  0.00  0.00     0.665 C 
HETATM   11  N           1     -34.965   0.687 -12.489  0.00  0.00    -0.235 N 
HETATM   12  N           1     -35.060  -1.347 -13.378  0.00  0.00    -0.235 N 
HETATM   13  H           1     -34.907   1.098 -13.454  0.00  0.00     0.174 HD
HETATM   14  H           1     -34.954   1.318 -11.650  0.00  0.00     0.174 HD
HETATM   15  H           1     -35.001  -0.939 -14.339  0.00  0.00     0.174 HD
HETATM   16  H           1     -35.128  -2.382 -13.253  0.00  0.00     0.174 HD
HETATM   17  H           1     -35.107  -0.431 -10.335  0.00  0.00     0.177 HD
ENDBRANCH   8   9
ENDBRANCH   7   8
ENDBRANCH   6   7
ENDBRANCH   5   6
BRANCH   5  18
HETATM   18  N           1     -34.945  -6.256 -12.223  0.00  0.00    -0.067 N 
HETATM   19  H           1     -35.711  -6.394 -12.920  0.00  0.00     0.275 HD
HETATM   20  H           1     -34.109  -6.814 -12.508  0.00  0.00     0.275 HD
HETATM   21  H           1     -35.270  -6.570 -11.281  0.00  0.00     0.275 HD
ENDBRANCH   5  18
ENDBRANCH   4   5
BRANCH   3  22
HETATM   22  C           1     -33.532  -4.173 -15.797  0.00  0.00     0.187 C 
BRANCH  22  23
HETATM   23  C           1     -33.444  -5.378 -16.724  0.00  0.00     0.066 C 
BRANCH  23  24
HETATM   24  C           1     -31.982  -5.750 -16.935  0.00  0.00     0.273 C 
BRANCH  24  25
HETATM   25  N           1     -31.160  -5.000 -16.025  0.00  0.00     0.098 N 
HETATM   26  H           1     -31.094  -5.497 -15.136  0.00  0.00     0.317 HD
BRANCH  25  27
HETATM   27  C           1     -29.850  -4.889 -16.609  0.00  0.00     0.320 C 
BRANCH  27  28
HETATM   28  C           1     -29.662  -3.496 -17.159  0.00  0.00     0.207 C 
HETATM   29  O           1     -30.658  -2.809 -17.474  0.00  0.00    -0.646 OA
HETATM   30  O           1     -28.511  -3.030 -17.300  0.00  0.00    -0.646 OA
ENDBRANCH  27  28
BRANCH  27  31
HETATM   31  C           1     -29.709  -5.904 -17.735  0.00  0.00     0.047 C 
BRANCH  31  32
HETATM   32  C           1     -28.350  -6.586 -17.636  0.00  0.00     0.003 C 
BRANCH  32  33
HETATM   33 Se           1     -27.979  -7.034 -15.776  0.00  0.00     0.000 Se
HETATM   34  C           1     -26.055  -6.763 -15.923  0.00  0.00     0.000 C 
ENDBRANCH  32  33
ENDBRANCH  31  32
ENDBRANCH  27  31
ENDBRANCH  25  27
ENDBRANCH  24  25
ENDBRANCH  23  24
ENDBRANCH  22  23
BRANCH  22  35
HETATM   35  C           1     -34.190  -3.026 -16.524  0.00  0.00     0.196 C 
HETATM   36  O           1     -33.700  -2.599 -17.593  0.00  0.00    -0.646 OA
HETATM   37  O           1     -35.224  -2.502 -16.058  0.00  0.00    -0.646 OA
ENDBRANCH  22  35
ENDBRANCH   3  22
TORSDOF 16
ENDMDL
MODEL 8
REMARK VINA RESULT:      -5.7     13.973     16.708
REMARK  16 active torsions:
REMARK  status: ('A' for Active; 'I' for Inactive)
REMARK    1  A    between atoms: C_1  and  C_29 
REMARK    2  A    between atoms: C_1  and  C_21 
REMARK    3  A    between atoms: C_2  and  C_33 
REMARK    4  A    between atoms: N_5  and  C_33 
REMARK    5  A    between atoms: N_5  and  C_6 
REMARK    6  A    between atoms: C_6  and  C_7 
REMARK    7  A    between atoms: C_7  and  C_8 
REMARK    8  A    between atoms: C_8  and  C_30 
REMARK    9  A    between atoms: C_8  and  N_27 
REMARK       I    between atoms: C_9  and  N_10 
REMARK       I    between atoms: C_9  and  N_11 
REMARK   10  A    between atoms: N_12  and  C_29 
REMARK   11  A    between atoms: C_21  and  C_22 
REMARK   12  A    between atoms: C_22  and  N_23 
REMARK   13  A    between atoms: Se_25  and  C_35 
REMARK       I    between atoms: N_27  and  C_28 
REMARK   14  A    between atoms: C_28  and  C_29 
REMARK   15  A    between atoms: C_33  and  C_34 
REMARK   16  A    between atoms: C_34  and  C_35 
ROOT
HETATM    1  O           1     -33.001  -3.751 -12.931  0.00  0.00    -0.271 OA
HETATM    2  H           1     -35.151  -4.967 -14.865  0.00  0.00     0.163 HD
HETATM    3  N           1     -34.311  -4.475 -14.588  0.00  0.00    -0.345 N 
HETATM    4  C           1     -34.004  -4.338 -13.260  0.00  0.00     0.249 C 
ENDROOT
BRANCH   4   5
HETATM    5  C           1     -34.919  -4.920 -12.211  0.00  0.00     0.274 C 
BRANCH   5   6
HETATM    6  C           1     -34.779  -4.125 -10.919  0.00  0.00     0.044 C 
BRANCH   6   7
HETATM    7  C           1     -35.879  -3.075 -10.848  0.00  0.00     0.023 C 
BRANCH   7   8
HETATM    8  C           1     -35.255  -1.687 -10.791  0.00  0.00     0.138 C 
BRANCH   8   9
HETATM    9  N           1     -34.718  -1.336 -12.114  0.00  0.00    -0.227 N 
HETATM   10  C           1     -35.397  -0.615 -12.902  0.00  0.00     0.665 C 
HETATM   11  N           1     -34.934  -0.313 -14.040  0.00  0.00    -0.235 N 
HETATM   12  N           1     -36.570  -0.185 -12.541  0.00  0.00    -0.235 N 
HETATM   13  H           1     -35.497   0.285 -14.694  0.00  0.00     0.174 HD
HETATM   14  H           1     -33.987  -0.660 -14.331  0.00  0.00     0.174 HD
HETATM   15  H           1     -37.131   0.409 -13.193  0.00  0.00     0.174 HD
HETATM   16  H           1     -36.952  -0.435 -11.601  0.00  0.00     0.174 HD
HETATM   17  H           1     -33.770  -1.682 -12.404  0.00  0.00     0.177 HD
ENDBRANCH   8   9
ENDBRANCH   7   8
ENDBRANCH   6   7
ENDBRANCH   5   6
BRANCH   5  18
HETATM   18  N           1     -34.546  -6.351 -11.961  0.00  0.00    -0.067 N 
HETATM   19  H           1     -33.825  -6.396 -11.205  0.00  0.00     0.275 HD
HETATM   20  H           1     -35.394  -6.883 -11.664  0.00  0.00     0.275 HD
HETATM   21  H           1     -34.159  -6.768 -12.837  0.00  0.00     0.275 HD
ENDBRANCH   5  18
ENDBRANCH   4   5
BRANCH   3  22
HETATM   22  C           1     -33.432  -3.917 -15.597  0.00  0.00     0.187 C 
BRANCH  22  23
HETATM   23  C           1     -32.893  -5.037 -16.476  0.00  0.00     0.066 C 
BRANCH  23  24
HETATM   24  C           1     -31.404  -4.822 -16.716  0.00  0.00     0.273 C 
BRANCH  24  25
HETATM   25  N           1     -30.723  -6.088 -16.674  0.00  0.00     0.098 N 
HETATM   26  H           1     -31.366  -6.809 -16.342  0.00  0.00     0.317 HD
BRANCH  25  27
HETATM   27  C           1     -30.300  -6.402 -18.011  0.00  0.00     0.320 C 
BRANCH  27  28
HETATM   28  C           1     -29.905  -7.857 -18.084  0.00  0.00     0.207 C 
HETATM   29  O           1     -29.958  -8.465 -19.175  0.00  0.00    -0.646 OA
HETATM   30  O           1     -29.523  -8.453 -17.054  0.00  0.00    -0.646 OA
ENDBRANCH  27  28
BRANCH  27  31
HETATM   31  C           1     -29.108  -5.532 -18.384  0.00  0.00     0.047 C 
BRANCH  31  32
HETATM   32  C           1     -27.818  -6.237 -17.985  0.00  0.00     0.003 C 
BRANCH  32  33
HETATM   33 Se           1     -27.306  -5.688 -16.186  0.00  0.00     0.000 Se
HETATM   34  C           1     -25.646  -6.709 -16.170  0.00  0.00     0.000 C 
ENDBRANCH  32  33
ENDBRANCH  31  32
ENDBRANCH  27  31
ENDBRANCH  25  27
ENDBRANCH  24  25
ENDBRANCH  23  24
ENDBRANCH  22  23
BRANCH  22  35
HETATM   35  C           1     -34.202  -2.936 -16.447  0.00  0.00     0.196 C 
HETATM   36  O           1     -35.295  -2.482 -16.043  0.00  0.00    -0.646 OA
HETATM   37  O           1     -33.748  -2.578 -17.555  0.00  0.00    -0.646 OA
ENDBRANCH  22  35
ENDBRANCH   3  22
TORSDOF 16
ENDMDL
MODEL 9
REMARK VINA RESULT:      -5.7      2.459      3.456
REMARK  16 active torsions:
REMARK  status: ('A' for Active; 'I' for Inactive)
REMARK    1  A    between atoms: C_1  and  C_29 
REMARK    2  A    between atoms: C_1  and  C_21 
REMARK    3  A    between atoms: C_2  and  C_33 
REMARK    4  A    between atoms: N_5  and  C_33 
REMARK    5  A    between atoms: N_5  and  C_6 
REMARK    6  A    between atoms: C_6  and  C_7 
REMARK    7  A    between atoms: C_7  and  C_8 
REMARK    8  A    between atoms: C_8  and  C_30 
REMARK    9  A    between atoms: C_8  and  N_27 
REMARK       I    between atoms: C_9  and  N_10 
REMARK       I    between atoms: C_9  and  N_11 
REMARK   10  A    between atoms: N_12  and  C_29 
REMARK   11  A    between atoms: C_21  and  C_22 
REMARK   12  A    between atoms: C_22  and  N_23 
REMARK   13  A    between atoms: Se_25  and  C_35 
REMARK       I    between atoms: N_27  and  C_28 
REMARK   14  A    between atoms: C_28  and  C_29 
REMARK   15  A    between atoms: C_33  and  C_34 
REMARK   16  A    between atoms: C_34  and  C_35 
ROOT
HETATM    1  O           1     -21.892  -7.794  -5.141  0.00  0.00    -0.271 OA
HETATM    2  H           1     -20.486  -5.728  -3.246  0.00  0.00     0.163 HD
HETATM    3  N           1     -20.999  -6.559  -3.509  0.00  0.00    -0.345 N 
HETATM    4  C           1     -21.279  -6.802  -4.828  0.00  0.00     0.249 C 
ENDROOT
BRANCH   4   5
HETATM    5  C           1     -20.821  -5.830  -5.887  0.00  0.00     0.274 C 
BRANCH   5   6
HETATM    6  C           1     -22.035  -5.230  -6.584  0.00  0.00     0.044 C 
BRANCH   6   7
HETATM    7  C           1     -21.639  -3.925  -7.261  0.00  0.00     0.023 C 
BRANCH   7   8
HETATM    8  C           1     -22.139  -3.925  -8.700  0.00  0.00     0.138 C 
BRANCH   8   9
HETATM    9  N           1     -23.551  -3.517  -8.729  0.00  0.00    -0.227 N 
HETATM   10  C           1     -24.310  -3.932  -9.653  0.00  0.00     0.665 C 
HETATM   11  N           1     -25.526  -3.580  -9.677  0.00  0.00    -0.235 N 
HETATM   12  N           1     -23.841  -4.718 -10.575  0.00  0.00    -0.235 N 
HETATM   13  H           1     -26.156  -3.924 -10.444  0.00  0.00     0.174 HD
HETATM   14  H           1     -25.905  -2.945  -8.932  0.00  0.00     0.174 HD
HETATM   15  H           1     -24.468  -5.060 -11.339  0.00  0.00     0.174 HD
HETATM   16  H           1     -22.838  -5.008 -10.555  0.00  0.00     0.174 HD
HETATM   17  H           1     -23.929  -2.882  -7.983  0.00  0.00     0.177 HD
ENDBRANCH   8   9
ENDBRANCH   7   8
ENDBRANCH   6   7
ENDBRANCH   5   6
BRANCH   5  18
HETATM   18  N           1     -19.972  -6.550  -6.892  0.00  0.00    -0.067 N 
HETATM   19  H           1     -20.482  -6.606  -7.803  0.00  0.00     0.275 HD
HETATM   20  H           1     -19.077  -6.029  -7.026  0.00  0.00     0.275 HD
HETATM   21  H           1     -19.768  -7.515  -6.548  0.00  0.00     0.275 HD
ENDBRANCH   5  18
ENDBRANCH   4   5
BRANCH   3  22
HETATM   22  C           1     -21.439  -7.493  -2.491  0.00  0.00     0.187 C 
BRANCH  22  23
HETATM   23  C           1     -20.227  -8.177  -1.873  0.00  0.00     0.066 C 
BRANCH  23  24
HETATM   24  C           1     -20.065  -9.566  -2.477  0.00  0.00     0.273 C 
BRANCH  24  25
HETATM   25  N           1     -21.350 -10.064  -2.887  0.00  0.00     0.098 N 
HETATM   26  H           1     -21.324 -10.296  -3.880  0.00  0.00     0.317 HD
BRANCH  25  27
HETATM   27  C           1     -21.622 -11.252  -2.124  0.00  0.00     0.320 C 
BRANCH  27  28
HETATM   28  C           1     -22.423 -10.888  -0.897  0.00  0.00     0.207 C 
HETATM   29  O           1     -21.893 -10.940   0.233  0.00  0.00    -0.646 OA
HETATM   30  O           1     -23.617 -10.536  -1.013  0.00  0.00    -0.646 OA
ENDBRANCH  27  28
BRANCH  27  31
HETATM   31  C           1     -20.309 -11.896  -1.701  0.00  0.00     0.047 C 
BRANCH  31  32
HETATM   32  C           1     -20.322 -13.372  -2.079  0.00  0.00     0.003 C 
BRANCH  32  33
HETATM   33 Se           1     -21.783 -13.713  -3.322  0.00  0.00     0.000 Se
HETATM   34  C           1     -22.666 -15.024  -2.182  0.00  0.00     0.000 C 
ENDBRANCH  32  33
ENDBRANCH  31  32
ENDBRANCH  27  31
ENDBRANCH  25  27
ENDBRANCH  24  25
ENDBRANCH  23  24
ENDBRANCH  22  23
BRANCH  22  35
HETATM   35  C           1     -22.197  -6.748  -1.420  0.00  0.00     0.196 C 
HETATM   36  O           1     -22.404  -5.521  -1.539  0.00  0.00    -0.646 OA
HETATM   37  O           1     -22.618  -7.357  -0.413  0.00  0.00    -0.646 OA
ENDBRANCH  22  35
ENDBRANCH   3  22
TORSDOF 16
ENDMDL
