MODEL 1
REMARK VINA RESULT:      -6.1      0.000      0.000
REMARK  9 active torsions:
REMARK  status: ('A' for Active; 'I' for Inactive)
REMARK    1  A    between atoms: C_1  and  C_2 
REMARK    2  A    between atoms: C_1  and  C_8 
REMARK    3  A    between atoms: C_1  and  N_14 
REMARK       I    between atoms: C_2  and  N_3 
REMARK    4  A    between atoms: N_3  and  C_21 
REMARK    5  A    between atoms: Se_6  and  C_7 
REMARK    6  A    between atoms: C_7  and  C_8 
REMARK    7  A    between atoms: C_10  and  C_21 
REMARK    8  A    between atoms: C_18  and  C_20 
REMARK    9  A    between atoms: C_20  and  C_21 
ROOT
HETATM    1  C           1     -34.378  -2.496 -11.649  0.00  0.00     0.249 C 
HETATM    2  N           1     -35.302  -1.749 -12.327  0.00  0.00    -0.344 N 
HETATM    3  O           1     -33.652  -1.969 -10.840  0.00  0.00    -0.271 OA
HETATM    4  H           1     -35.910  -2.190 -13.006  0.00  0.00     0.163 HD
ENDROOT
BRANCH   1   5
HETATM    5  C           1     -34.263  -3.977 -11.914  0.00  0.00     0.274 C 
BRANCH   5   6
HETATM    6  C           1     -33.996  -4.708 -10.605  0.00  0.00     0.042 C 
BRANCH   6   7
HETATM    7  C           1     -33.759  -6.186 -10.886  0.00  0.00     0.003 C 
BRANCH   7   8
HETATM    8 Se           1     -34.969  -7.258  -9.797  0.00  0.00     0.000 Se
HETATM    9  C           1     -33.858  -8.858  -9.846  0.00  0.00     0.000 C 
ENDBRANCH   7   8
ENDBRANCH   6   7
ENDBRANCH   5   6
BRANCH   5  10
HETATM   10  N           1     -33.132  -4.229 -12.866  0.00  0.00    -0.067 N 
HETATM   11  H           1     -32.273  -3.742 -12.524  0.00  0.00     0.275 HD
HETATM   12  H           1     -32.950  -5.256 -12.924  0.00  0.00     0.275 HD
HETATM   13  H           1     -33.386  -3.865 -13.812  0.00  0.00     0.275 HD
ENDBRANCH   5  10
ENDBRANCH   1   5
BRANCH   2  14
HETATM   14  C           1     -35.413  -0.326 -12.073  0.00  0.00     0.195 C 
BRANCH  14  15
HETATM   15  C           1     -36.596  -0.065 -11.175  0.00  0.00     0.197 C 
HETATM   16  O           1     -36.526   0.812 -10.287  0.00  0.00    -0.646 OA
HETATM   17  O           1     -37.648  -0.726 -11.319  0.00  0.00    -0.646 OA
ENDBRANCH  14  15
BRANCH  14  18
HETATM   18  C           1     -35.603   0.412 -13.392  0.00  0.00     0.149 C 
BRANCH  18  19
HETATM   19  C           1     -36.094  -0.553 -14.443  0.00  0.00     0.175 C 
HETATM   20  O           1     -35.272  -1.196 -15.132  0.00  0.00    -0.648 OA
HETATM   21  O           1     -37.321  -0.711 -14.625  0.00  0.00    -0.648 OA
ENDBRANCH  18  19
ENDBRANCH  14  18
ENDBRANCH   2  14
TORSDOF 9
ENDMDL
MODEL 2
REMARK VINA RESULT:      -5.8      1.775      3.011
REMARK  9 active torsions:
REMARK  status: ('A' for Active; 'I' for Inactive)
REMARK    1  A    between atoms: C_1  and  C_2 
REMARK    2  A    between atoms: C_1  and  C_8 
REMARK    3  A    between atoms: C_1  and  N_14 
REMARK       I    between atoms: C_2  and  N_3 
REMARK    4  A    between atoms: N_3  and  C_21 
REMARK    5  A    between atoms: Se_6  and  C_7 
REMARK    6  A    between atoms: C_7  and  C_8 
REMARK    7  A    between atoms: C_10  and  C_21 
REMARK    8  A    between atoms: C_18  and  C_20 
REMARK    9  A    between atoms: C_20  and  C_21 
ROOT
HETATM    1  C           1     -34.524  -1.887 -12.412  0.00  0.00     0.249 C 
HETATM    2  N           1     -35.301  -0.761 -12.386  0.00  0.00    -0.344 N 
HETATM    3  O           1     -34.615  -2.661 -13.335  0.00  0.00    -0.271 OA
HETATM    4  H           1     -35.225  -0.112 -11.613  0.00  0.00     0.163 HD
ENDROOT
BRANCH   1   5
HETATM    5  C           1     -33.556  -2.162 -11.287  0.00  0.00     0.274 C 
BRANCH   5   6
HETATM    6  C           1     -33.125  -3.622 -11.334  0.00  0.00     0.042 C 
BRANCH   6   7
HETATM    7  C           1     -34.071  -4.460 -10.484  0.00  0.00     0.003 C 
BRANCH   7   8
HETATM    8 Se           1     -34.773  -5.933 -11.550  0.00  0.00     0.000 Se
HETATM    9  C           1     -34.710  -7.231 -10.098  0.00  0.00     0.000 C 
ENDBRANCH   7   8
ENDBRANCH   6   7
ENDBRANCH   5   6
BRANCH   5  10
HETATM   10  N           1     -34.223  -1.880  -9.974  0.00  0.00    -0.067 N 
HETATM   11  H           1     -33.589  -1.299  -9.379  0.00  0.00     0.275 HD
HETATM   12  H           1     -35.115  -1.363 -10.141  0.00  0.00     0.275 HD
HETATM   13  H           1     -34.428  -2.782  -9.486  0.00  0.00     0.275 HD
ENDBRANCH   5  10
ENDBRANCH   1   5
BRANCH   2  14
HETATM   14  C           1     -36.231  -0.496 -13.466  0.00  0.00     0.195 C 
BRANCH  14  15
HETATM   15  C           1     -35.683   0.601 -14.344  0.00  0.00     0.197 C 
HETATM   16  O           1     -34.769   1.342 -13.922  0.00  0.00    -0.646 OA
HETATM   17  O           1     -36.141   0.768 -15.496  0.00  0.00    -0.646 OA
ENDBRANCH  14  15
BRANCH  14  18
HETATM   18  C           1     -37.571  -0.061 -12.886  0.00  0.00     0.149 C 
BRANCH  18  19
HETATM   19  C           1     -37.565  -0.267 -11.392  0.00  0.00     0.175 C 
HETATM   20  O           1     -37.414   0.710 -10.627  0.00  0.00    -0.648 OA
HETATM   21  O           1     -37.710  -1.415 -10.918  0.00  0.00    -0.648 OA
ENDBRANCH  18  19
ENDBRANCH  14  18
ENDBRANCH   2  14
TORSDOF 9
ENDMDL
MODEL 3
REMARK VINA RESULT:      -5.6     12.469     14.160
REMARK  9 active torsions:
REMARK  status: ('A' for Active; 'I' for Inactive)
REMARK    1  A    between atoms: C_1  and  C_2 
REMARK    2  A    between atoms: C_1  and  C_8 
REMARK    3  A    between atoms: C_1  and  N_14 
REMARK       I    between atoms: C_2  and  N_3 
REMARK    4  A    between atoms: N_3  and  C_21 
REMARK    5  A    between atoms: Se_6  and  C_7 
REMARK    6  A    between atoms: C_7  and  C_8 
REMARK    7  A    between atoms: C_10  and  C_21 
REMARK    8  A    between atoms: C_18  and  C_20 
REMARK    9  A    between atoms: C_20  and  C_21 
ROOT
HETATM    1  C           1     -21.307  -4.582  -8.299  0.00  0.00     0.249 C 
HETATM    2  N           1     -22.191  -4.189  -9.267  0.00  0.00    -0.344 N 
HETATM    3  O           1     -20.341  -5.244  -8.597  0.00  0.00    -0.271 OA
HETATM    4  H           1     -23.000  -3.634  -9.017  0.00  0.00     0.163 HD
ENDROOT
BRANCH   1   5
HETATM    5  C           1     -21.539  -4.190  -6.861  0.00  0.00     0.274 C 
BRANCH   5   6
HETATM    6  C           1     -20.392  -4.708  -6.002  0.00  0.00     0.042 C 
BRANCH   6   7
HETATM    7  C           1     -20.933  -5.683  -4.965  0.00  0.00     0.003 C 
BRANCH   7   8
HETATM    8 Se           1     -20.234  -7.468  -5.324  0.00  0.00     0.000 Se
HETATM    9  C           1     -21.642  -8.395  -4.346  0.00  0.00     0.000 C 
ENDBRANCH   7   8
ENDBRANCH   6   7
ENDBRANCH   5   6
BRANCH   5  10
HETATM   10  N           1     -22.829  -4.786  -6.382  0.00  0.00    -0.067 N 
HETATM   11  H           1     -22.744  -5.827  -6.354  0.00  0.00     0.275 HD
HETATM   12  H           1     -23.042  -4.429  -5.423  0.00  0.00     0.275 HD
HETATM   13  H           1     -23.600  -4.517  -7.034  0.00  0.00     0.275 HD
ENDBRANCH   5  10
ENDBRANCH   1   5
BRANCH   2  14
HETATM   14  C           1     -21.969  -4.565 -10.649  0.00  0.00     0.195 C 
BRANCH  14  15
HETATM   15  C           1     -21.140  -3.506 -11.332  0.00  0.00     0.197 C 
HETATM   16  O           1     -19.915  -3.687 -11.509  0.00  0.00    -0.646 OA
HETATM   17  O           1     -21.677  -2.446 -11.722  0.00  0.00    -0.646 OA
ENDBRANCH  14  15
BRANCH  14  18
HETATM   18  C           1     -23.309  -4.699 -11.360  0.00  0.00     0.149 C 
BRANCH  18  19
HETATM   19  C           1     -24.401  -4.131 -10.489  0.00  0.00     0.175 C 
HETATM   20  O           1     -24.980  -4.862  -9.657  0.00  0.00    -0.648 OA
HETATM   21  O           1     -24.727  -2.928 -10.598  0.00  0.00    -0.648 OA
ENDBRANCH  18  19
ENDBRANCH  14  18
ENDBRANCH   2  14
TORSDOF 9
ENDMDL
MODEL 4
REMARK VINA RESULT:      -5.5     12.524     14.118
REMARK  9 active torsions:
REMARK  status: ('A' for Active; 'I' for Inactive)
REMARK    1  A    between atoms: C_1  and  C_2 
REMARK    2  A    between atoms: C_1  and  C_8 
REMARK    3  A    between atoms: C_1  and  N_14 
REMARK       I    between atoms: C_2  and  N_3 
REMARK    4  A    between atoms: N_3  and  C_21 
REMARK    5  A    between atoms: Se_6  and  C_7 
REMARK    6  A    between atoms: C_7  and  C_8 
REMARK    7  A    between atoms: C_10  and  C_21 
REMARK    8  A    between atoms: C_18  and  C_20 
REMARK    9  A    between atoms: C_20  and  C_21 
ROOT
HETATM    1  C           1     -21.759  -4.549  -7.638  0.00  0.00     0.249 C 
HETATM    2  N           1     -22.468  -4.688  -8.801  0.00  0.00    -0.344 N 
HETATM    3  O           1     -21.595  -3.453  -7.158  0.00  0.00    -0.271 OA
HETATM    4  H           1     -22.606  -5.606  -9.203  0.00  0.00     0.163 HD
ENDROOT
BRANCH   1   5
HETATM    5  C           1     -21.182  -5.765  -6.957  0.00  0.00     0.274 C 
BRANCH   5   6
HETATM    6  C           1     -21.004  -5.480  -5.471  0.00  0.00     0.042 C 
BRANCH   6   7
HETATM    7  C           1     -21.278  -6.747  -4.673  0.00  0.00     0.003 C 
BRANCH   7   8
HETATM    8 Se           1     -21.572  -6.286  -2.802  0.00  0.00     0.000 Se
HETATM    9  C           1     -21.466  -8.123  -2.162  0.00  0.00     0.000 C 
ENDBRANCH   7   8
ENDBRANCH   6   7
ENDBRANCH   5   6
BRANCH   5  10
HETATM   10  N           1     -19.851  -6.095  -7.565  0.00  0.00    -0.067 N 
HETATM   11  H           1     -19.152  -6.262  -6.806  0.00  0.00     0.275 HD
HETATM   12  H           1     -19.940  -6.955  -8.151  0.00  0.00     0.275 HD
HETATM   13  H           1     -19.533  -5.297  -8.160  0.00  0.00     0.275 HD
ENDBRANCH   5  10
ENDBRANCH   1   5
BRANCH   2  14
HETATM   14  C           1     -23.023  -3.519  -9.455  0.00  0.00     0.195 C 
BRANCH  14  15
HETATM   15  C           1     -24.370  -3.862 -10.039  0.00  0.00     0.197 C 
HETATM   16  O           1     -24.935  -3.065 -10.820  0.00  0.00    -0.646 OA
HETATM   17  O           1     -24.923  -4.944  -9.744  0.00  0.00    -0.646 OA
ENDBRANCH  14  15
BRANCH  14  18
HETATM   18  C           1     -22.086  -3.069 -10.568  0.00  0.00     0.149 C 
BRANCH  18  19
HETATM   19  C           1     -21.435  -4.275 -11.198  0.00  0.00     0.175 C 
HETATM   20  O           1     -20.276  -4.605 -10.865  0.00  0.00    -0.648 OA
HETATM   21  O           1     -22.053  -4.945 -12.053  0.00  0.00    -0.648 OA
ENDBRANCH  18  19
ENDBRANCH  14  18
ENDBRANCH   2  14
TORSDOF 9
ENDMDL
MODEL 5
REMARK VINA RESULT:      -5.1     13.038     14.853
REMARK  9 active torsions:
REMARK  status: ('A' for Active; 'I' for Inactive)
REMARK    1  A    between atoms: C_1  and  C_2 
REMARK    2  A    between atoms: C_1  and  C_8 
REMARK    3  A    between atoms: C_1  and  N_14 
REMARK       I    between atoms: C_2  and  N_3 
REMARK    4  A    between atoms: N_3  and  C_21 
REMARK    5  A    between atoms: Se_6  and  C_7 
REMARK    6  A    between atoms: C_7  and  C_8 
REMARK    7  A    between atoms: C_10  and  C_21 
REMARK    8  A    between atoms: C_18  and  C_20 
REMARK    9  A    between atoms: C_20  and  C_21 
ROOT
HETATM    1  C           1     -21.417  -5.882  -6.617  0.00  0.00     0.249 C 
HETATM    2  N           1     -22.008  -4.787  -7.189  0.00  0.00    -0.344 N 
HETATM    3  O           1     -20.932  -6.740  -7.316  0.00  0.00    -0.271 OA
HETATM    4  H           1     -22.414  -4.068  -6.604  0.00  0.00     0.163 HD
ENDROOT
BRANCH   1   5
HETATM    5  C           1     -21.372  -6.017  -5.115  0.00  0.00     0.274 C 
BRANCH   5   6
HETATM    6  C           1     -20.601  -7.275  -4.741  0.00  0.00     0.042 C 
BRANCH   6   7
HETATM    7  C           1     -21.393  -8.071  -3.713  0.00  0.00     0.003 C 
BRANCH   7   8
HETATM    8 Se           1     -20.566  -7.875  -1.959  0.00  0.00     0.000 Se
HETATM    9  C           1     -22.163  -7.157  -1.104  0.00  0.00     0.000 C 
ENDBRANCH   7   8
ENDBRANCH   6   7
ENDBRANCH   5   6
BRANCH   5  10
HETATM   10  N           1     -22.771  -6.111  -4.580  0.00  0.00    -0.067 N 
HETATM   11  H           1     -23.446  -5.791  -5.310  0.00  0.00     0.275 HD
HETATM   12  H           1     -22.978  -7.103  -4.325  0.00  0.00     0.275 HD
HETATM   13  H           1     -22.861  -5.506  -3.733  0.00  0.00     0.275 HD
ENDBRANCH   5  10
ENDBRANCH   1   5
BRANCH   2  14
HETATM   14  C           1     -22.051  -4.657  -8.632  0.00  0.00     0.195 C 
BRANCH  14  15
HETATM   15  C           1     -20.687  -4.266  -9.143  0.00  0.00     0.197 C 
HETATM   16  O           1     -20.358  -4.534 -10.319  0.00  0.00    -0.646 OA
HETATM   17  O           1     -19.883  -3.672  -8.390  0.00  0.00    -0.646 OA
ENDBRANCH  14  15
BRANCH  14  18
HETATM   18  C           1     -23.063  -3.586  -9.015  0.00  0.00     0.149 C 
BRANCH  18  19
HETATM   19  C           1     -23.947  -4.101 -10.124  0.00  0.00     0.175 C 
HETATM   20  O           1     -23.858  -5.293 -10.491  0.00  0.00    -0.648 OA
HETATM   21  O           1     -24.769  -3.337 -10.676  0.00  0.00    -0.648 OA
ENDBRANCH  18  19
ENDBRANCH  14  18
ENDBRANCH   2  14
TORSDOF 9
ENDMDL
MODEL 6
REMARK VINA RESULT:      -5.1      2.398      4.018
REMARK  9 active torsions:
REMARK  status: ('A' for Active; 'I' for Inactive)
REMARK    1  A    between atoms: C_1  and  C_2 
REMARK    2  A    between atoms: C_1  and  C_8 
REMARK    3  A    between atoms: C_1  and  N_14 
REMARK       I    between atoms: C_2  and  N_3 
REMARK    4  A    between atoms: N_3  and  C_21 
REMARK    5  A    between atoms: Se_6  and  C_7 
REMARK    6  A    between atoms: C_7  and  C_8 
REMARK    7  A    between atoms: C_10  and  C_21 
REMARK    8  A    between atoms: C_18  and  C_20 
REMARK    9  A    between atoms: C_20  and  C_21 
ROOT
HETATM    1  C           1     -36.071  -0.702 -12.730  0.00  0.00     0.249 C 
HETATM    2  N           1     -35.348  -0.469 -13.868  0.00  0.00    -0.344 N 
HETATM    3  O           1     -37.270  -0.554 -12.735  0.00  0.00    -0.271 OA
HETATM    4  H           1     -34.344  -0.593 -13.864  0.00  0.00     0.163 HD
ENDROOT
BRANCH   1   5
HETATM    5  C           1     -35.371  -1.141 -11.468  0.00  0.00     0.274 C 
BRANCH   5   6
HETATM    6  C           1     -35.119  -2.642 -11.522  0.00  0.00     0.042 C 
BRANCH   6   7
HETATM    7  C           1     -33.796  -2.962 -10.840  0.00  0.00     0.003 C 
BRANCH   7   8
HETATM    8 Se           1     -32.833  -4.299 -11.882  0.00  0.00     0.000 Se
HETATM    9  C           1     -33.736  -5.822 -11.068  0.00  0.00     0.000 C 
ENDBRANCH   7   8
ENDBRANCH   6   7
ENDBRANCH   5   6
BRANCH   5  10
HETATM   10  N           1     -36.231  -0.822 -10.281  0.00  0.00    -0.067 N 
HETATM   11  H           1     -37.166  -0.489 -10.607  0.00  0.00     0.275 HD
HETATM   12  H           1     -36.352  -1.682  -9.699  0.00  0.00     0.275 HD
HETATM   13  H           1     -35.774  -0.076  -9.710  0.00  0.00     0.275 HD
ENDBRANCH   5  10
ENDBRANCH   1   5
BRANCH   2  14
HETATM   14  C           1     -36.021  -0.047 -15.081  0.00  0.00     0.195 C 
BRANCH  14  15
HETATM   15  C           1     -35.797  -1.073 -16.164  0.00  0.00     0.197 C 
HETATM   16  O           1     -34.974  -1.998 -15.988  0.00  0.00    -0.646 OA
HETATM   17  O           1     -36.434  -0.999 -17.237  0.00  0.00    -0.646 OA
ENDBRANCH  14  15
BRANCH  14  18
HETATM   18  C           1     -35.463   1.297 -15.530  0.00  0.00     0.149 C 
BRANCH  18  19
HETATM   19  C           1     -36.540   2.080 -16.238  0.00  0.00     0.175 C 
HETATM   20  O           1     -36.240   3.092 -16.908  0.00  0.00    -0.648 OA
HETATM   21  O           1     -37.734   1.717 -16.155  0.00  0.00    -0.648 OA
ENDBRANCH  18  19
ENDBRANCH  14  18
ENDBRANCH   2  14
TORSDOF 9
ENDMDL
MODEL 7
REMARK VINA RESULT:      -5.0     14.127     16.712
REMARK  9 active torsions:
REMARK  status: ('A' for Active; 'I' for Inactive)
REMARK    1  A    between atoms: C_1  and  C_2 
REMARK    2  A    between atoms: C_1  and  C_8 
REMARK    3  A    between atoms: C_1  and  N_14 
REMARK       I    between atoms: C_2  and  N_3 
REMARK    4  A    between atoms: N_3  and  C_21 
REMARK    5  A    between atoms: Se_6  and  C_7 
REMARK    6  A    between atoms: C_7  and  C_8 
REMARK    7  A    between atoms: C_10  and  C_21 
REMARK    8  A    between atoms: C_18  and  C_20 
REMARK    9  A    between atoms: C_20  and  C_21 
ROOT
HETATM    1  C           1     -21.614  -5.859  -5.703  0.00  0.00     0.249 C 
HETATM    2  N           1     -21.023  -6.771  -4.871  0.00  0.00    -0.344 N 
HETATM    3  O           1     -22.801  -5.649  -5.623  0.00  0.00    -0.271 OA
HETATM    4  H           1     -20.029  -6.948  -4.938  0.00  0.00     0.163 HD
ENDROOT
BRANCH   1   5
HETATM    5  C           1     -20.783  -5.118  -6.721  0.00  0.00     0.274 C 
BRANCH   5   6
HETATM    6  C           1     -21.701  -4.382  -7.689  0.00  0.00     0.042 C 
BRANCH   6   7
HETATM    7  C           1     -21.074  -4.372  -9.076  0.00  0.00     0.003 C 
BRANCH   7   8
HETATM    8 Se           1     -22.359  -3.675 -10.366  0.00  0.00     0.000 Se
HETATM    9  C           1     -23.895  -3.856  -9.180  0.00  0.00     0.000 C 
ENDBRANCH   7   8
ENDBRANCH   6   7
ENDBRANCH   5   6
BRANCH   5  10
HETATM   10  N           1     -19.935  -6.094  -7.482  0.00  0.00    -0.067 N 
HETATM   11  H           1     -20.547  -6.817  -7.923  0.00  0.00     0.275 HD
HETATM   12  H           1     -19.404  -5.587  -8.225  0.00  0.00     0.275 HD
HETATM   13  H           1     -19.265  -6.557  -6.827  0.00  0.00     0.275 HD
ENDBRANCH   5  10
ENDBRANCH   1   5
BRANCH   2  14
HETATM   14  C           1     -21.822  -7.484  -3.893  0.00  0.00     0.195 C 
BRANCH  14  15
HETATM   15  C           1     -21.640  -6.849  -2.537  0.00  0.00     0.197 C 
HETATM   16  O           1     -20.754  -7.272  -1.762  0.00  0.00    -0.646 OA
HETATM   17  O           1     -22.374  -5.899  -2.187  0.00  0.00    -0.646 OA
ENDBRANCH  14  15
BRANCH  14  18
HETATM   18  C           1     -21.376  -8.939  -3.837  0.00  0.00     0.149 C 
BRANCH  18  19
HETATM   19  C           1     -20.221  -9.149  -4.785  0.00  0.00     0.175 C 
HETATM   20  O           1     -19.061  -8.847  -4.433  0.00  0.00    -0.648 OA
HETATM   21  O           1     -20.424  -9.625  -5.924  0.00  0.00    -0.648 OA
ENDBRANCH  18  19
ENDBRANCH  14  18
ENDBRANCH   2  14
TORSDOF 9
ENDMDL
MODEL 8
REMARK VINA RESULT:      -5.0      1.862      3.171
REMARK  9 active torsions:
REMARK  status: ('A' for Active; 'I' for Inactive)
REMARK    1  A    between atoms: C_1  and  C_2 
REMARK    2  A    between atoms: C_1  and  C_8 
REMARK    3  A    between atoms: C_1  and  N_14 
REMARK       I    between atoms: C_2  and  N_3 
REMARK    4  A    between atoms: N_3  and  C_21 
REMARK    5  A    between atoms: Se_6  and  C_7 
REMARK    6  A    between atoms: C_7  and  C_8 
REMARK    7  A    between atoms: C_10  and  C_21 
REMARK    8  A    between atoms: C_18  and  C_20 
REMARK    9  A    between atoms: C_20  and  C_21 
ROOT
HETATM    1  C           1     -34.765  -2.352 -12.497  0.00  0.00     0.249 C 
HETATM    2  N           1     -34.687  -1.585 -13.628  0.00  0.00    -0.344 N 
HETATM    3  O           1     -35.840  -2.739 -12.103  0.00  0.00    -0.271 OA
HETATM    4  H           1     -33.787  -1.261 -13.958  0.00  0.00     0.163 HD
ENDROOT
BRANCH   1   5
HETATM    5  C           1     -33.510  -2.714 -11.742  0.00  0.00     0.274 C 
BRANCH   5   6
HETATM    6  C           1     -33.112  -4.146 -12.073  0.00  0.00     0.042 C 
BRANCH   6   7
HETATM    7  C           1     -33.514  -5.063 -10.926  0.00  0.00     0.003 C 
BRANCH   7   8
HETATM    8 Se           1     -34.945  -6.250 -11.512  0.00  0.00     0.000 Se
HETATM    9  C           1     -34.765  -7.478 -10.010  0.00  0.00     0.000 C 
ENDBRANCH   7   8
ENDBRANCH   6   7
ENDBRANCH   5   6
BRANCH   5  10
HETATM   10  N           1     -33.761  -2.593 -10.268  0.00  0.00    -0.067 N 
HETATM   11  H           1     -32.851  -2.472  -9.768  0.00  0.00     0.275 HD
HETATM   12  H           1     -34.370  -1.763 -10.087  0.00  0.00     0.275 HD
HETATM   13  H           1     -34.235  -3.457  -9.923  0.00  0.00     0.275 HD
ENDBRANCH   5  10
ENDBRANCH   1   5
BRANCH   2  14
HETATM   14  C           1     -35.893  -1.238 -14.354  0.00  0.00     0.195 C 
BRANCH  14  15
HETATM   15  C           1     -35.611  -1.255 -15.835  0.00  0.00     0.197 C 
HETATM   16  O           1     -34.965  -2.201 -16.338  0.00  0.00    -0.646 OA
HETATM   17  O           1     -36.024  -0.325 -16.562  0.00  0.00    -0.646 OA
ENDBRANCH  14  15
BRANCH  14  18
HETATM   18  C           1     -36.351   0.154 -13.940  0.00  0.00     0.149 C 
BRANCH  18  19
HETATM   19  C           1     -35.279   0.810 -13.105  0.00  0.00     0.175 C 
HETATM   20  O           1     -34.342   1.423 -13.661  0.00  0.00    -0.648 OA
HETATM   21  O           1     -35.327   0.741 -11.858  0.00  0.00    -0.648 OA
ENDBRANCH  18  19
ENDBRANCH  14  18
ENDBRANCH   2  14
TORSDOF 9
ENDMDL
MODEL 9
REMARK VINA RESULT:      -4.9     15.476     17.876
REMARK  9 active torsions:
REMARK  status: ('A' for Active; 'I' for Inactive)
REMARK    1  A    between atoms: C_1  and  C_2 
REMARK    2  A    between atoms: C_1  and  C_8 
REMARK    3  A    between atoms: C_1  and  N_14 
REMARK       I    between atoms: C_2  and  N_3 
REMARK    4  A    between atoms: N_3  and  C_21 
REMARK    5  A    between atoms: Se_6  and  C_7 
REMARK    6  A    between atoms: C_7  and  C_8 
REMARK    7  A    between atoms: C_10  and  C_21 
REMARK    8  A    between atoms: C_18  and  C_20 
REMARK    9  A    between atoms: C_20  and  C_21 
ROOT
HETATM    1  C           1     -20.952  -8.049  -3.962  0.00  0.00     0.249 C 
HETATM    2  N           1     -21.739  -8.386  -2.895  0.00  0.00    -0.344 N 
HETATM    3  O           1     -19.772  -8.308  -3.948  0.00  0.00    -0.271 OA
HETATM    4  H           1     -22.727  -8.169  -2.907  0.00  0.00     0.163 HD
ENDROOT
BRANCH   1   5
HETATM    5  C           1     -21.557  -7.352  -5.156  0.00  0.00     0.274 C 
BRANCH   5   6
HETATM    6  C           1     -20.458  -6.661  -5.952  0.00  0.00     0.042 C 
BRANCH   6   7
HETATM    7  C           1     -20.507  -5.162  -5.693  0.00  0.00     0.003 C 
BRANCH   7   8
HETATM    8 Se           1     -20.477  -4.206  -7.392  0.00  0.00     0.000 Se
HETATM    9  C           1     -22.406  -4.287  -7.660  0.00  0.00     0.000 C 
ENDBRANCH   7   8
ENDBRANCH   6   7
ENDBRANCH   5   6
BRANCH   5  10
HETATM   10  N           1     -22.551  -6.332  -4.688  0.00  0.00    -0.067 N 
HETATM   11  H           1     -22.054  -5.444  -4.450  0.00  0.00     0.275 HD
HETATM   12  H           1     -23.244  -6.148  -5.449  0.00  0.00     0.275 HD
HETATM   13  H           1     -23.048  -6.691  -3.842  0.00  0.00     0.275 HD
ENDBRANCH   5  10
ENDBRANCH   1   5
BRANCH   2  14
HETATM   14  C           1     -21.158  -9.055  -1.747  0.00  0.00     0.195 C 
BRANCH  14  15
HETATM   15  C           1     -21.971 -10.281  -1.415  0.00  0.00     0.197 C 
HETATM   16  O           1     -22.744 -10.769  -2.268  0.00  0.00    -0.646 OA
HETATM   17  O           1     -21.873 -10.810  -0.286  0.00  0.00    -0.646 OA
ENDBRANCH  14  15
BRANCH  14  18
HETATM   18  C           1     -21.155  -8.108  -0.555  0.00  0.00     0.149 C 
BRANCH  18  19
HETATM   19  C           1     -22.379  -7.227  -0.607  0.00  0.00     0.175 C 
HETATM   20  O           1     -22.368  -6.182  -1.292  0.00  0.00    -0.648 OA
HETATM   21  O           1     -23.405  -7.544   0.033  0.00  0.00    -0.648 OA
ENDBRANCH  18  19
ENDBRANCH  14  18
ENDBRANCH   2  14
TORSDOF 9
ENDMDL
