MODEL 1
REMARK VINA RESULT:      -7.2      0.000      0.000
REMARK  11 active torsions:
REMARK  status: ('A' for Active; 'I' for Inactive)
REMARK       I    between atoms: C_1  and  N_13 
REMARK    1  A    between atoms: C_1  and  C_2 
REMARK    2  A    between atoms: C_2  and  C_28 
REMARK    3  A    between atoms: C_2  and  N_12 
REMARK    4  A    between atoms: C_4  and  N_18 
REMARK    5  A    between atoms: C_4  and  C_21 
REMARK    6  A    between atoms: C_5  and  C_28 
REMARK    7  A    between atoms: C_5  and  C_6 
REMARK       I    between atoms: N_7  and  C_23 
REMARK    8  A    between atoms: C_11  and  C_21 
REMARK    9  A    between atoms: C_11  and  C_17 
REMARK   10  A    between atoms: N_13  and  C_17 
REMARK   11  A    between atoms: C_16  and  C_17 
REMARK       I    between atoms: N_18  and  C_23 
ROOT
HETATM    1  C           1     -34.217  -3.742 -12.952  0.00  0.00     0.185 C 
ENDROOT
BRANCH   1   2
HETATM    2  C           1     -33.263  -3.743 -11.766  0.00  0.00     0.038 C 
BRANCH   2   3
HETATM    3  C           1     -33.860  -4.570 -10.634  0.00  0.00     0.023 C 
BRANCH   3   4
HETATM    4  C           1     -34.633  -5.745 -11.216  0.00  0.00     0.138 C 
BRANCH   4   5
HETATM    5  N           1     -33.840  -6.975 -11.067  0.00  0.00    -0.227 N 
HETATM    6  C           1     -34.201  -7.864 -10.241  0.00  0.00     0.665 C 
HETATM    7  N           1     -35.243  -7.694  -9.543  0.00  0.00    -0.235 N 
HETATM    8  N           1     -33.500  -8.951 -10.110  0.00  0.00    -0.235 N 
HETATM    9  H           1     -35.809  -6.816  -9.649  0.00  0.00     0.174 HD
HETATM   10  H           1     -35.542  -8.432  -8.857  0.00  0.00     0.174 HD
HETATM   11  H           1     -32.640  -9.092 -10.686  0.00  0.00     0.174 HD
HETATM   12  H           1     -33.797  -9.686  -9.428  0.00  0.00     0.174 HD
HETATM   13  H           1     -32.976  -7.115 -11.647  0.00  0.00     0.177 HD
ENDBRANCH   4   5
ENDBRANCH   3   4
ENDBRANCH   2   3
ENDBRANCH   1   2
BRANCH   1  14
HETATM   14  N           1     -33.456  -3.827 -14.183  0.00  0.00    -0.345 N 
HETATM   15  C           1     -33.947  -4.538 -15.244  0.00  0.00     0.249 C 
HETATM   16  O           1     -35.016  -5.095 -15.155  0.00  0.00    -0.271 OA
HETATM   17  H           1     -32.561  -3.361 -14.258  0.00  0.00     0.163 HD
BRANCH  15  18
HETATM   18  C           1     -33.155  -4.627 -16.525  0.00  0.00     0.275 C 
BRANCH  18  19
HETATM   19  C           1     -31.679  -4.812 -16.198  0.00  0.00     0.053 C 
BRANCH  19  20
HETATM   20  C           1     -30.872  -4.839 -17.489  0.00  0.00     0.115 C 
BRANCH  20  21
HETATM   21  C           1     -29.922  -3.666 -17.515  0.00  0.00     0.172 C 
HETATM   22  O           1     -30.362  -2.503 -17.383  0.00  0.00    -0.648 OA
HETATM   23  O           1     -28.696  -3.857 -17.666  0.00  0.00    -0.648 OA
ENDBRANCH  20  21
ENDBRANCH  19  20
ENDBRANCH  18  19
BRANCH  18  24
HETATM   24  N           1     -33.337  -3.364 -17.313  0.00  0.00    -0.066 N 
HETATM   25  H           1     -34.200  -2.872 -16.988  0.00  0.00     0.275 HD
HETATM   26  H           1     -32.508  -2.744 -17.171  0.00  0.00     0.275 HD
HETATM   27  H           1     -33.430  -3.597 -18.327  0.00  0.00     0.275 HD
ENDBRANCH  18  24
ENDBRANCH  15  18
ENDBRANCH   1  14
BRANCH   1  28
HETATM   28  C           1     -35.024  -2.467 -12.949  0.00  0.00     0.196 C 
HETATM   29  O           1     -34.870  -1.629 -13.863  0.00  0.00    -0.646 OA
HETATM   30  O           1     -35.846  -2.249 -12.033  0.00  0.00    -0.646 OA
ENDBRANCH   1  28
TORSDOF 11
ENDMDL
MODEL 2
REMARK VINA RESULT:      -7.1      4.098      6.923
REMARK  11 active torsions:
REMARK  status: ('A' for Active; 'I' for Inactive)
REMARK       I    between atoms: C_1  and  N_13 
REMARK    1  A    between atoms: C_1  and  C_2 
REMARK    2  A    between atoms: C_2  and  C_28 
REMARK    3  A    between atoms: C_2  and  N_12 
REMARK    4  A    between atoms: C_4  and  N_18 
REMARK    5  A    between atoms: C_4  and  C_21 
REMARK    6  A    between atoms: C_5  and  C_28 
REMARK    7  A    between atoms: C_5  and  C_6 
REMARK       I    between atoms: N_7  and  C_23 
REMARK    8  A    between atoms: C_11  and  C_21 
REMARK    9  A    between atoms: C_11  and  C_17 
REMARK   10  A    between atoms: N_13  and  C_17 
REMARK   11  A    between atoms: C_16  and  C_17 
REMARK       I    between atoms: N_18  and  C_23 
ROOT
HETATM    1  C           1     -35.600  -0.772 -11.757  0.00  0.00     0.185 C 
ENDROOT
BRANCH   1   2
HETATM    2  C           1     -36.248   0.040 -12.868  0.00  0.00     0.038 C 
BRANCH   2   3
HETATM    3  C           1     -35.174   0.806 -13.631  0.00  0.00     0.023 C 
BRANCH   3   4
HETATM    4  C           1     -35.381   0.619 -15.127  0.00  0.00     0.138 C 
BRANCH   4   5
HETATM    5  N           1     -34.837  -0.683 -15.539  0.00  0.00    -0.227 N 
HETATM    6  C           1     -35.343  -1.297 -16.525  0.00  0.00     0.665 C 
HETATM    7  N           1     -36.316  -0.790 -17.155  0.00  0.00    -0.235 N 
HETATM    8  N           1     -34.861  -2.449 -16.889  0.00  0.00    -0.235 N 
HETATM    9  H           1     -36.705   0.140 -16.860  0.00  0.00     0.174 HD
HETATM   10  H           1     -36.736  -1.300 -17.972  0.00  0.00     0.174 HD
HETATM   11  H           1     -34.057  -2.867 -16.369  0.00  0.00     0.174 HD
HETATM   12  H           1     -35.278  -2.956 -17.702  0.00  0.00     0.174 HD
HETATM   13  H           1     -34.030  -1.103 -15.017  0.00  0.00     0.177 HD
ENDBRANCH   4   5
ENDBRANCH   3   4
ENDBRANCH   2   3
ENDBRANCH   1   2
BRANCH   1  14
HETATM   14  N           1     -35.346  -2.120 -12.228  0.00  0.00    -0.345 N 
HETATM   15  C           1     -34.226  -2.790 -11.816  0.00  0.00     0.249 C 
HETATM   16  O           1     -33.449  -2.259 -11.059  0.00  0.00    -0.271 OA
HETATM   17  H           1     -35.997  -2.564 -12.863  0.00  0.00     0.163 HD
BRANCH  15  18
HETATM   18  C           1     -33.962  -4.192 -12.308  0.00  0.00     0.275 C 
BRANCH  18  19
HETATM   19  C           1     -34.670  -5.191 -11.402  0.00  0.00     0.053 C 
BRANCH  19  20
HETATM   20  C           1     -33.674  -6.238 -10.923  0.00  0.00     0.115 C 
BRANCH  20  21
HETATM   21  C           1     -34.402  -7.310 -10.149  0.00  0.00     0.172 C 
HETATM   22  O           1     -33.958  -8.479 -10.131  0.00  0.00    -0.648 OA
HETATM   23  O           1     -35.449  -7.029  -9.526  0.00  0.00    -0.648 OA
ENDBRANCH  20  21
ENDBRANCH  19  20
ENDBRANCH  18  19
BRANCH  18  24
HETATM   24  N           1     -32.486  -4.459 -12.287  0.00  0.00    -0.066 N 
HETATM   25  H           1     -32.159  -4.684 -13.254  0.00  0.00     0.275 HD
HETATM   26  H           1     -31.985  -3.611 -11.939  0.00  0.00     0.275 HD
HETATM   27  H           1     -32.287  -5.267 -11.656  0.00  0.00     0.275 HD
ENDBRANCH  18  24
ENDBRANCH  15  18
ENDBRANCH   1  14
BRANCH   1  28
HETATM   28  C           1     -36.525  -0.825 -10.565  0.00  0.00     0.196 C 
HETATM   29  O           1     -37.721  -1.158 -10.718  0.00  0.00    -0.646 OA
HETATM   30  O           1     -36.097  -0.535  -9.428  0.00  0.00    -0.646 OA
ENDBRANCH   1  28
TORSDOF 11
ENDMDL
MODEL 3
REMARK VINA RESULT:      -6.8      5.615      8.269
REMARK  11 active torsions:
REMARK  status: ('A' for Active; 'I' for Inactive)
REMARK       I    between atoms: C_1  and  N_13 
REMARK    1  A    between atoms: C_1  and  C_2 
REMARK    2  A    between atoms: C_2  and  C_28 
REMARK    3  A    between atoms: C_2  and  N_12 
REMARK    4  A    between atoms: C_4  and  N_18 
REMARK    5  A    between atoms: C_4  and  C_21 
REMARK    6  A    between atoms: C_5  and  C_28 
REMARK    7  A    between atoms: C_5  and  C_6 
REMARK       I    between atoms: N_7  and  C_23 
REMARK    8  A    between atoms: C_11  and  C_21 
REMARK    9  A    between atoms: C_11  and  C_17 
REMARK   10  A    between atoms: N_13  and  C_17 
REMARK   11  A    between atoms: C_16  and  C_17 
REMARK       I    between atoms: N_18  and  C_23 
ROOT
HETATM    1  C           1     -27.226  -6.006 -16.471  0.00  0.00     0.185 C 
ENDROOT
BRANCH   1   2
HETATM    2  C           1     -27.989  -4.691 -16.390  0.00  0.00     0.038 C 
BRANCH   2   3
HETATM    3  C           1     -28.630  -4.392 -17.739  0.00  0.00     0.023 C 
BRANCH   3   4
HETATM    4  C           1     -30.072  -3.951 -17.530  0.00  0.00     0.138 C 
BRANCH   4   5
HETATM    5  N           1     -30.941  -5.134 -17.455  0.00  0.00    -0.227 N 
HETATM    6  C           1     -32.132  -5.019 -17.041  0.00  0.00     0.665 C 
HETATM    7  N           1     -32.575  -3.886 -16.694  0.00  0.00    -0.235 N 
HETATM    8  N           1     -32.900  -6.066 -16.974  0.00  0.00    -0.235 N 
HETATM    9  H           1     -31.955  -3.040 -16.748  0.00  0.00     0.174 HD
HETATM   10  H           1     -33.564  -3.791 -16.351  0.00  0.00     0.174 HD
HETATM   11  H           1     -32.535  -7.002 -17.261  0.00  0.00     0.174 HD
HETATM   12  H           1     -33.884  -5.972 -16.634  0.00  0.00     0.174 HD
HETATM   13  H           1     -30.573  -6.074 -17.743  0.00  0.00     0.177 HD
ENDBRANCH   4   5
ENDBRANCH   3   4
ENDBRANCH   2   3
ENDBRANCH   1   2
BRANCH   1  14
HETATM   14  N           1     -26.808  -6.239 -17.840  0.00  0.00    -0.345 N 
HETATM   15  C           1     -25.494  -6.497 -18.120  0.00  0.00     0.249 C 
HETATM   16  O           1     -24.681  -6.532 -17.226  0.00  0.00    -0.271 OA
HETATM   17  H           1     -27.489  -6.210 -18.588  0.00  0.00     0.163 HD
BRANCH  15  18
HETATM   18  C           1     -25.059  -6.738 -19.545  0.00  0.00     0.275 C 
BRANCH  18  19
HETATM   19  C           1     -26.277  -6.716 -20.459  0.00  0.00     0.053 C 
BRANCH  19  20
HETATM   20  C           1     -26.375  -8.038 -21.208  0.00  0.00     0.115 C 
BRANCH  20  21
HETATM   21  C           1     -27.718  -8.671 -20.939  0.00  0.00     0.172 C 
HETATM   22  O           1     -28.451  -8.221 -20.032  0.00  0.00    -0.648 OA
HETATM   23  O           1     -28.098  -9.646 -21.623  0.00  0.00    -0.648 OA
ENDBRANCH  20  21
ENDBRANCH  19  20
ENDBRANCH  18  19
BRANCH  18  24
HETATM   24  N           1     -24.387  -8.076 -19.642  0.00  0.00    -0.066 N 
HETATM   25  H           1     -24.466  -8.436 -20.620  0.00  0.00     0.275 HD
HETATM   26  H           1     -23.379  -7.977 -19.388  0.00  0.00     0.275 HD
HETATM   27  H           1     -24.849  -8.746 -18.986  0.00  0.00     0.275 HD
ENDBRANCH  18  24
ENDBRANCH  15  18
ENDBRANCH   1  14
BRANCH   1  28
HETATM   28  C           1     -28.120  -7.136 -16.021  0.00  0.00     0.196 C 
HETATM   29  O           1     -27.920  -7.688 -14.917  0.00  0.00    -0.646 OA
HETATM   30  O           1     -29.058  -7.520 -16.752  0.00  0.00    -0.646 OA
ENDBRANCH   1  28
TORSDOF 11
ENDMDL
MODEL 4
REMARK VINA RESULT:      -6.7      5.903      9.078
REMARK  11 active torsions:
REMARK  status: ('A' for Active; 'I' for Inactive)
REMARK       I    between atoms: C_1  and  N_13 
REMARK    1  A    between atoms: C_1  and  C_2 
REMARK    2  A    between atoms: C_2  and  C_28 
REMARK    3  A    between atoms: C_2  and  N_12 
REMARK    4  A    between atoms: C_4  and  N_18 
REMARK    5  A    between atoms: C_4  and  C_21 
REMARK    6  A    between atoms: C_5  and  C_28 
REMARK    7  A    between atoms: C_5  and  C_6 
REMARK       I    between atoms: N_7  and  C_23 
REMARK    8  A    between atoms: C_11  and  C_21 
REMARK    9  A    between atoms: C_11  and  C_17 
REMARK   10  A    between atoms: N_13  and  C_17 
REMARK   11  A    between atoms: C_16  and  C_17 
REMARK       I    between atoms: N_18  and  C_23 
ROOT
HETATM    1  C           1     -28.448  -6.558 -18.561  0.00  0.00     0.185 C 
ENDROOT
BRANCH   1   2
HETATM    2  C           1     -29.059  -5.179 -18.768  0.00  0.00     0.038 C 
BRANCH   2   3
HETATM    3  C           1     -28.835  -4.332 -17.522  0.00  0.00     0.023 C 
BRANCH   3   4
HETATM    4  C           1     -30.132  -3.629 -17.145  0.00  0.00     0.138 C 
BRANCH   4   5
HETATM    5  N           1     -31.137  -4.630 -16.757  0.00  0.00    -0.227 N 
HETATM    6  C           1     -32.368  -4.397 -16.946  0.00  0.00     0.665 C 
HETATM    7  N           1     -32.732  -3.303 -17.469  0.00  0.00    -0.235 N 
HETATM    8  N           1     -33.256  -5.281 -16.603  0.00  0.00    -0.235 N 
HETATM    9  H           1     -32.014  -2.589 -17.746  0.00  0.00     0.174 HD
HETATM   10  H           1     -33.752  -3.110 -17.626  0.00  0.00     0.174 HD
HETATM   11  H           1     -32.956  -6.184 -16.171  0.00  0.00     0.174 HD
HETATM   12  H           1     -34.272  -5.089 -16.759  0.00  0.00     0.174 HD
HETATM   13  H           1     -30.835  -5.537 -16.324  0.00  0.00     0.177 HD
ENDBRANCH   4   5
ENDBRANCH   3   4
ENDBRANCH   2   3
ENDBRANCH   1   2
BRANCH   1  14
HETATM   14  N           1     -27.637  -6.905 -19.713  0.00  0.00    -0.345 N 
HETATM   15  C           1     -26.278  -6.758 -19.662  0.00  0.00     0.249 C 
HETATM   16  O           1     -25.752  -6.339 -18.658  0.00  0.00    -0.271 OA
HETATM   17  H           1     -28.077  -7.255 -20.554  0.00  0.00     0.163 HD
BRANCH  15  18
HETATM   18  C           1     -25.434  -7.118 -20.861  0.00  0.00     0.275 C 
BRANCH  18  19
HETATM   19  C           1     -24.173  -7.836 -20.398  0.00  0.00     0.053 C 
BRANCH  19  20
HETATM   20  C           1     -23.441  -8.405 -21.605  0.00  0.00     0.115 C 
BRANCH  20  21
HETATM   21  C           1     -21.988  -8.621 -21.257  0.00  0.00     0.172 C 
HETATM   22  O           1     -21.258  -9.299 -22.013  0.00  0.00    -0.648 OA
HETATM   23  O           1     -21.514  -8.121 -20.214  0.00  0.00    -0.648 OA
ENDBRANCH  20  21
ENDBRANCH  19  20
ENDBRANCH  18  19
BRANCH  18  24
HETATM   24  N           1     -25.055  -5.867 -21.598  0.00  0.00    -0.066 N 
HETATM   25  H           1     -25.718  -5.100 -21.346  0.00  0.00     0.275 HD
HETATM   26  H           1     -24.083  -5.589 -21.332  0.00  0.00     0.275 HD
HETATM   27  H           1     -25.100  -6.043 -22.626  0.00  0.00     0.275 HD
ENDBRANCH  18  24
ENDBRANCH  15  18
ENDBRANCH   1  14
BRANCH   1  28
HETATM   28  C           1     -29.549  -7.578 -18.399  0.00  0.00     0.196 C 
HETATM   29  O           1     -29.670  -8.503 -19.231  0.00  0.00    -0.646 OA
HETATM   30  O           1     -30.339  -7.497 -17.434  0.00  0.00    -0.646 OA
ENDBRANCH   1  28
TORSDOF 11
ENDMDL
MODEL 5
REMARK VINA RESULT:      -6.5      3.272      6.055
REMARK  11 active torsions:
REMARK  status: ('A' for Active; 'I' for Inactive)
REMARK       I    between atoms: C_1  and  N_13 
REMARK    1  A    between atoms: C_1  and  C_2 
REMARK    2  A    between atoms: C_2  and  C_28 
REMARK    3  A    between atoms: C_2  and  N_12 
REMARK    4  A    between atoms: C_4  and  N_18 
REMARK    5  A    between atoms: C_4  and  C_21 
REMARK    6  A    between atoms: C_5  and  C_28 
REMARK    7  A    between atoms: C_5  and  C_6 
REMARK       I    between atoms: N_7  and  C_23 
REMARK    8  A    between atoms: C_11  and  C_21 
REMARK    9  A    between atoms: C_11  and  C_17 
REMARK   10  A    between atoms: N_13  and  C_17 
REMARK   11  A    between atoms: C_16  and  C_17 
REMARK       I    between atoms: N_18  and  C_23 
ROOT
HETATM    1  C           1     -34.178  -2.726 -12.372  0.00  0.00     0.185 C 
ENDROOT
BRANCH   1   2
HETATM    2  C           1     -33.760  -3.356 -11.051  0.00  0.00     0.038 C 
BRANCH   2   3
HETATM    3  C           1     -33.214  -4.756 -11.306  0.00  0.00     0.023 C 
BRANCH   3   4
HETATM    4  C           1     -34.018  -5.769 -10.502  0.00  0.00     0.138 C 
BRANCH   4   5
HETATM    5  N           1     -33.444  -7.109 -10.690  0.00  0.00    -0.227 N 
HETATM    6  C           1     -34.003  -8.116 -10.162  0.00  0.00     0.665 C 
HETATM    7  N           1     -35.055  -7.968  -9.474  0.00  0.00    -0.235 N 
HETATM    8  N           1     -33.496  -9.302 -10.328  0.00  0.00    -0.235 N 
HETATM    9  H           1     -35.464  -7.011  -9.340  0.00  0.00     0.174 HD
HETATM   10  H           1     -35.518  -8.803  -9.036  0.00  0.00     0.174 HD
HETATM   11  H           1     -32.628  -9.424 -10.896  0.00  0.00     0.174 HD
HETATM   12  H           1     -33.957 -10.133  -9.893  0.00  0.00     0.174 HD
HETATM   13  H           1     -32.572  -7.232 -11.260  0.00  0.00     0.177 HD
ENDBRANCH   4   5
ENDBRANCH   3   4
ENDBRANCH   2   3
ENDBRANCH   1   2
BRANCH   1  14
HETATM   14  N           1     -35.354  -1.903 -12.164  0.00  0.00    -0.345 N 
HETATM   15  C           1     -35.557  -0.791 -12.935  0.00  0.00     0.249 C 
HETATM   16  O           1     -34.756  -0.494 -13.790  0.00  0.00    -0.271 OA
HETATM   17  H           1     -36.024  -2.152 -11.448  0.00  0.00     0.163 HD
BRANCH  15  18
HETATM   18  C           1     -36.780   0.065 -12.718  0.00  0.00     0.275 C 
BRANCH  18  19
HETATM   19  C           1     -37.613  -0.517 -11.584  0.00  0.00     0.053 C 
BRANCH  19  20
HETATM   20  C           1     -37.560   0.417 -10.383  0.00  0.00     0.115 C 
BRANCH  20  21
HETATM   21  C           1     -36.856  -0.272  -9.239  0.00  0.00     0.172 C 
HETATM   22  O           1     -37.421  -0.375  -8.128  0.00  0.00    -0.648 OA
HETATM   23  O           1     -35.709  -0.741  -9.402  0.00  0.00    -0.648 OA
ENDBRANCH  20  21
ENDBRANCH  19  20
ENDBRANCH  18  19
BRANCH  18  24
HETATM   24  N           1     -37.599   0.093 -13.975  0.00  0.00    -0.066 N 
HETATM   25  H           1     -38.488  -0.435 -13.824  0.00  0.00     0.275 HD
HETATM   26  H           1     -37.820   1.084 -14.223  0.00  0.00     0.275 HD
HETATM   27  H           1     -37.059  -0.349 -14.752  0.00  0.00     0.275 HD
ENDBRANCH  18  24
ENDBRANCH  15  18
ENDBRANCH   1  14
BRANCH   1  28
HETATM   28  C           1     -34.496  -3.811 -13.371  0.00  0.00     0.196 C 
HETATM   29  O           1     -35.246  -4.758 -13.047  0.00  0.00    -0.646 OA
HETATM   30  O           1     -34.010  -3.765 -14.522  0.00  0.00    -0.646 OA
ENDBRANCH   1  28
TORSDOF 11
ENDMDL
MODEL 6
REMARK VINA RESULT:      -6.5     13.294     14.570
REMARK  11 active torsions:
REMARK  status: ('A' for Active; 'I' for Inactive)
REMARK       I    between atoms: C_1  and  N_13 
REMARK    1  A    between atoms: C_1  and  C_2 
REMARK    2  A    between atoms: C_2  and  C_28 
REMARK    3  A    between atoms: C_2  and  N_12 
REMARK    4  A    between atoms: C_4  and  N_18 
REMARK    5  A    between atoms: C_4  and  C_21 
REMARK    6  A    between atoms: C_5  and  C_28 
REMARK    7  A    between atoms: C_5  and  C_6 
REMARK       I    between atoms: N_7  and  C_23 
REMARK    8  A    between atoms: C_11  and  C_21 
REMARK    9  A    between atoms: C_11  and  C_17 
REMARK   10  A    between atoms: N_13  and  C_17 
REMARK   11  A    between atoms: C_16  and  C_17 
REMARK       I    between atoms: N_18  and  C_23 
ROOT
HETATM    1  C           1     -20.961  -6.294  -5.283  0.00  0.00     0.185 C 
ENDROOT
BRANCH   1   2
HETATM    2  C           1     -22.014  -6.412  -4.190  0.00  0.00     0.038 C 
BRANCH   2   3
HETATM    3  C           1     -21.381  -6.105  -2.839  0.00  0.00     0.023 C 
BRANCH   3   4
HETATM    4  C           1     -21.425  -7.349  -1.962  0.00  0.00     0.138 C 
BRANCH   4   5
HETATM    5  N           1     -22.378  -7.141  -0.862  0.00  0.00    -0.227 N 
HETATM    6  C           1     -22.753  -8.122  -0.156  0.00  0.00     0.665 C 
HETATM    7  N           1     -22.308  -9.282  -0.396  0.00  0.00    -0.235 N 
HETATM    8  N           1     -23.596  -7.938   0.817  0.00  0.00    -0.235 N 
HETATM    9  H           1     -21.627  -9.431  -1.182  0.00  0.00     0.174 HD
HETATM   10  H           1     -22.619 -10.097   0.190  0.00  0.00     0.174 HD
HETATM   11  H           1     -23.963  -6.980   1.016  0.00  0.00     0.174 HD
HETATM   12  H           1     -23.906  -8.748   1.401  0.00  0.00     0.174 HD
HETATM   13  H           1     -22.747  -6.178  -0.663  0.00  0.00     0.177 HD
ENDBRANCH   4   5
ENDBRANCH   3   4
ENDBRANCH   2   3
ENDBRANCH   1   2
BRANCH   1  14
HETATM   14  N           1     -21.539  -5.640  -6.441  0.00  0.00    -0.345 N 
HETATM   15  C           1     -20.801  -4.736  -7.156  0.00  0.00     0.249 C 
HETATM   16  O           1     -19.668  -4.482  -6.822  0.00  0.00    -0.271 OA
HETATM   17  H           1     -22.488  -5.853  -6.721  0.00  0.00     0.163 HD
BRANCH  15  18
HETATM   18  C           1     -21.403  -4.055  -8.361  0.00  0.00     0.275 C 
BRANCH  18  19
HETATM   19  C           1     -22.638  -4.824  -8.815  0.00  0.00     0.053 C 
BRANCH  19  20
HETATM   20  C           1     -23.798  -3.856  -9.003  0.00  0.00     0.115 C 
BRANCH  20  21
HETATM   21  C           1     -24.075  -3.682 -10.477  0.00  0.00     0.172 C 
HETATM   22  O           1     -23.228  -4.050 -11.320  0.00  0.00    -0.648 OA
HETATM   23  O           1     -25.151  -3.171 -10.855  0.00  0.00    -0.648 OA
ENDBRANCH  20  21
ENDBRANCH  19  20
ENDBRANCH  18  19
BRANCH  18  24
HETATM   24  N           1     -20.396  -4.027  -9.473  0.00  0.00    -0.066 N 
HETATM   25  H           1     -19.475  -3.702  -9.100  0.00  0.00     0.275 HD
HETATM   26  H           1     -20.292  -4.987  -9.871  0.00  0.00     0.275 HD
HETATM   27  H           1     -20.721  -3.371 -10.219  0.00  0.00     0.275 HD
ENDBRANCH  18  24
ENDBRANCH  15  18
ENDBRANCH   1  14
BRANCH   1  28
HETATM   28  C           1     -20.482  -7.671  -5.672  0.00  0.00     0.196 C 
HETATM   29  O           1     -19.283  -7.851  -5.977  0.00  0.00    -0.646 OA
HETATM   30  O           1     -21.282  -8.630  -5.691  0.00  0.00    -0.646 OA
ENDBRANCH   1  28
TORSDOF 11
ENDMDL
MODEL 7
REMARK VINA RESULT:      -6.5     14.262     16.351
REMARK  11 active torsions:
REMARK  status: ('A' for Active; 'I' for Inactive)
REMARK       I    between atoms: C_1  and  N_13 
REMARK    1  A    between atoms: C_1  and  C_2 
REMARK    2  A    between atoms: C_2  and  C_28 
REMARK    3  A    between atoms: C_2  and  N_12 
REMARK    4  A    between atoms: C_4  and  N_18 
REMARK    5  A    between atoms: C_4  and  C_21 
REMARK    6  A    between atoms: C_5  and  C_28 
REMARK    7  A    between atoms: C_5  and  C_6 
REMARK       I    between atoms: N_7  and  C_23 
REMARK    8  A    between atoms: C_11  and  C_21 
REMARK    9  A    between atoms: C_11  and  C_17 
REMARK   10  A    between atoms: N_13  and  C_17 
REMARK   11  A    between atoms: C_16  and  C_17 
REMARK       I    between atoms: N_18  and  C_23 
ROOT
HETATM    1  C           1     -21.293  -5.442  -6.616  0.00  0.00     0.185 C 
ENDROOT
BRANCH   1   2
HETATM    2  C           1     -21.805  -4.080  -7.062  0.00  0.00     0.038 C 
BRANCH   2   3
HETATM    3  C           1     -23.065  -4.260  -7.899  0.00  0.00     0.023 C 
BRANCH   3   4
HETATM    4  C           1     -22.682  -4.703  -9.305  0.00  0.00     0.138 C 
BRANCH   4   5
HETATM    5  N           1     -21.641  -3.809  -9.834  0.00  0.00    -0.227 N 
HETATM    6  C           1     -21.392  -3.794 -11.076  0.00  0.00     0.665 C 
HETATM    7  N           1     -22.038  -4.547 -11.861  0.00  0.00    -0.235 N 
HETATM    8  N           1     -20.472  -3.003 -11.544  0.00  0.00    -0.235 N 
HETATM    9  H           1     -22.781  -5.186 -11.483  0.00  0.00     0.174 HD
HETATM   10  H           1     -21.832  -4.534 -12.891  0.00  0.00     0.174 HD
HETATM   11  H           1     -19.938  -2.381 -10.896  0.00  0.00     0.174 HD
HETATM   12  H           1     -20.266  -2.990 -12.568  0.00  0.00     0.174 HD
HETATM   13  H           1     -21.105  -3.184  -9.183  0.00  0.00     0.177 HD
ENDBRANCH   4   5
ENDBRANCH   3   4
ENDBRANCH   2   3
ENDBRANCH   1   2
BRANCH   1  14
HETATM   14  N           1     -21.141  -5.454  -5.174  0.00  0.00    -0.345 N 
HETATM   15  C           1     -21.546  -6.543  -4.451  0.00  0.00     0.249 C 
HETATM   16  O           1     -22.030  -7.496  -5.015  0.00  0.00    -0.271 OA
HETATM   17  H           1     -20.736  -4.655  -4.702  0.00  0.00     0.163 HD
BRANCH  15  18
HETATM   18  C           1     -21.389  -6.553  -2.950  0.00  0.00     0.275 C 
BRANCH  18  19
HETATM   19  C           1     -21.441  -7.989  -2.444  0.00  0.00     0.053 C 
BRANCH  19  20
HETATM   20  C           1     -20.685  -8.091  -1.126  0.00  0.00     0.115 C 
BRANCH  20  21
HETATM   21  C           1     -21.665  -8.300   0.002  0.00  0.00     0.172 C 
HETATM   22  O           1     -21.336  -8.982   0.997  0.00  0.00    -0.648 OA
HETATM   23  O           1     -22.805  -7.792  -0.057  0.00  0.00    -0.648 OA
ENDBRANCH  20  21
ENDBRANCH  19  20
ENDBRANCH  18  19
BRANCH  18  24
HETATM   24  N           1     -22.502  -5.763  -2.326  0.00  0.00    -0.066 N 
HETATM   25  H           1     -22.475  -4.782  -2.684  0.00  0.00     0.275 HD
HETATM   26  H           1     -23.418  -6.200  -2.574  0.00  0.00     0.275 HD
HETATM   27  H           1     -22.385  -5.759  -1.288  0.00  0.00     0.275 HD
ENDBRANCH  18  24
ENDBRANCH  15  18
ENDBRANCH   1  14
BRANCH   1  28
HETATM   28  C           1     -19.956  -5.714  -7.262  0.00  0.00     0.196 C 
HETATM   29  O           1     -19.407  -6.828  -7.117  0.00  0.00    -0.646 OA
HETATM   30  O           1     -19.397  -4.825  -7.940  0.00  0.00    -0.646 OA
ENDBRANCH   1  28
TORSDOF 11
ENDMDL
MODEL 8
REMARK VINA RESULT:      -6.4      3.394      6.489
REMARK  11 active torsions:
REMARK  status: ('A' for Active; 'I' for Inactive)
REMARK       I    between atoms: C_1  and  N_13 
REMARK    1  A    between atoms: C_1  and  C_2 
REMARK    2  A    between atoms: C_2  and  C_28 
REMARK    3  A    between atoms: C_2  and  N_12 
REMARK    4  A    between atoms: C_4  and  N_18 
REMARK    5  A    between atoms: C_4  and  C_21 
REMARK    6  A    between atoms: C_5  and  C_28 
REMARK    7  A    between atoms: C_5  and  C_6 
REMARK       I    between atoms: N_7  and  C_23 
REMARK    8  A    between atoms: C_11  and  C_21 
REMARK    9  A    between atoms: C_11  and  C_17 
REMARK   10  A    between atoms: N_13  and  C_17 
REMARK   11  A    between atoms: C_16  and  C_17 
REMARK       I    between atoms: N_18  and  C_23 
ROOT
HETATM    1  C           1     -35.582  -0.721 -11.372  0.00  0.00     0.185 C 
ENDROOT
BRANCH   1   2
HETATM    2  C           1     -35.755  -0.448 -12.860  0.00  0.00     0.038 C 
BRANCH   2   3
HETATM    3  C           1     -34.909   0.754 -13.258  0.00  0.00     0.023 C 
BRANCH   3   4
HETATM    4  C           1     -34.643   0.715 -14.757  0.00  0.00     0.138 C 
BRANCH   4   5
HETATM    5  N           1     -35.895   0.424 -15.469  0.00  0.00    -0.227 N 
HETATM    6  C           1     -35.972  -0.588 -16.226  0.00  0.00     0.665 C 
HETATM    7  N           1     -34.972  -1.350 -16.369  0.00  0.00    -0.235 N 
HETATM    8  N           1     -37.080  -0.845 -16.857  0.00  0.00    -0.235 N 
HETATM    9  H           1     -34.077  -1.142 -15.859  0.00  0.00     0.174 HD
HETATM   10  H           1     -35.036  -2.190 -16.996  0.00  0.00     0.174 HD
HETATM   11  H           1     -37.907  -0.216 -16.739  0.00  0.00     0.174 HD
HETATM   12  H           1     -37.144  -1.681 -17.481  0.00  0.00     0.174 HD
HETATM   13  H           1     -36.725   1.056 -15.351  0.00  0.00     0.177 HD
ENDBRANCH   4   5
ENDBRANCH   3   4
ENDBRANCH   2   3
ENDBRANCH   1   2
BRANCH   1  14
HETATM   14  N           1     -35.399  -2.144 -11.161  0.00  0.00    -0.345 N 
HETATM   15  C           1     -34.201  -2.620 -10.703  0.00  0.00     0.249 C 
HETATM   16  O           1     -33.295  -1.854 -10.474  0.00  0.00    -0.271 OA
HETATM   17  H           1     -36.158  -2.785 -11.352  0.00  0.00     0.163 HD
BRANCH  15  18
HETATM   18  C           1     -34.011  -4.101 -10.483  0.00  0.00     0.275 C 
BRANCH  18  19
HETATM   19  C           1     -33.142  -4.673 -11.596  0.00  0.00     0.053 C 
BRANCH  19  20
HETATM   20  C           1     -33.219  -3.766 -12.817  0.00  0.00     0.115 C 
BRANCH  20  21
HETATM   21  C           1     -34.239  -4.312 -13.786  0.00  0.00     0.172 C 
HETATM   22  O           1     -35.049  -5.189 -13.413  0.00  0.00    -0.648 OA
HETATM   23  O           1     -34.276  -3.888 -14.961  0.00  0.00    -0.648 OA
ENDBRANCH  20  21
ENDBRANCH  19  20
ENDBRANCH  18  19
BRANCH  18  24
HETATM   24  N           1     -35.347  -4.782 -10.493  0.00  0.00    -0.066 N 
HETATM   25  H           1     -35.963  -4.352  -9.767  0.00  0.00     0.275 HD
HETATM   26  H           1     -35.787  -4.670 -11.434  0.00  0.00     0.275 HD
HETATM   27  H           1     -35.221  -5.798 -10.285  0.00  0.00     0.275 HD
ENDBRANCH  18  24
ENDBRANCH  15  18
ENDBRANCH   1  14
BRANCH   1  28
HETATM   28  C           1     -36.811  -0.258 -10.628  0.00  0.00     0.196 C 
HETATM   29  O           1     -37.902  -0.844 -10.799  0.00  0.00    -0.646 OA
HETATM   30  O           1     -36.738   0.711  -9.843  0.00  0.00    -0.646 OA
ENDBRANCH   1  28
TORSDOF 11
ENDMDL
MODEL 9
REMARK VINA RESULT:      -6.3     13.715     15.019
REMARK  11 active torsions:
REMARK  status: ('A' for Active; 'I' for Inactive)
REMARK       I    between atoms: C_1  and  N_13 
REMARK    1  A    between atoms: C_1  and  C_2 
REMARK    2  A    between atoms: C_2  and  C_28 
REMARK    3  A    between atoms: C_2  and  N_12 
REMARK    4  A    between atoms: C_4  and  N_18 
REMARK    5  A    between atoms: C_4  and  C_21 
REMARK    6  A    between atoms: C_5  and  C_28 
REMARK    7  A    between atoms: C_5  and  C_6 
REMARK       I    between atoms: N_7  and  C_23 
REMARK    8  A    between atoms: C_11  and  C_21 
REMARK    9  A    between atoms: C_11  and  C_17 
REMARK   10  A    between atoms: N_13  and  C_17 
REMARK   11  A    between atoms: C_16  and  C_17 
REMARK       I    between atoms: N_18  and  C_23 
ROOT
HETATM    1  C           1     -20.912  -6.699  -4.725  0.00  0.00     0.185 C 
ENDROOT
BRANCH   1   2
HETATM    2  C           1     -22.031  -6.881  -3.709  0.00  0.00     0.038 C 
BRANCH   2   3
HETATM    3  C           1     -21.728  -6.057  -2.465  0.00  0.00     0.023 C 
BRANCH   3   4
HETATM    4  C           1     -22.083  -6.862  -1.223  0.00  0.00     0.138 C 
BRANCH   4   5
HETATM    5  N           1     -21.154  -7.994  -1.090  0.00  0.00    -0.227 N 
HETATM    6  C           1     -21.560  -9.094  -0.610  0.00  0.00     0.665 C 
HETATM    7  N           1     -22.766  -9.218  -0.245  0.00  0.00    -0.235 N 
HETATM    8  N           1     -20.739 -10.094  -0.493  0.00  0.00    -0.235 N 
HETATM    9  H           1     -23.429  -8.410  -0.340  0.00  0.00     0.174 HD
HETATM   10  H           1     -23.103 -10.130   0.153  0.00  0.00     0.174 HD
HETATM   11  H           1     -19.743  -9.992  -0.794  0.00  0.00     0.174 HD
HETATM   12  H           1     -21.073 -11.002  -0.097  0.00  0.00     0.174 HD
HETATM   13  H           1     -20.154  -7.891  -1.393  0.00  0.00     0.177 HD
ENDBRANCH   4   5
ENDBRANCH   3   4
ENDBRANCH   2   3
ENDBRANCH   1   2
BRANCH   1  14
HETATM   14  N           1     -21.482  -6.395  -6.023  0.00  0.00    -0.345 N 
HETATM   15  C           1     -21.293  -5.161  -6.582  0.00  0.00     0.249 C 
HETATM   16  O           1     -20.650  -4.324  -5.994  0.00  0.00    -0.271 OA
HETATM   17  H           1     -22.020  -7.097  -6.515  0.00  0.00     0.163 HD
BRANCH  15  18
HETATM   18  C           1     -21.887  -4.845  -7.933  0.00  0.00     0.275 C 
BRANCH  18  19
HETATM   19  C           1     -20.927  -3.961  -8.717  0.00  0.00     0.053 C 
BRANCH  19  20
HETATM   20  C           1     -20.927  -4.382 -10.180  0.00  0.00     0.115 C 
BRANCH  20  21
HETATM   21  C           1     -21.902  -3.525 -10.951  0.00  0.00     0.172 C 
HETATM   22  O           1     -21.483  -2.586 -11.662  0.00  0.00    -0.648 OA
HETATM   23  O           1     -23.129  -3.754 -10.879  0.00  0.00    -0.648 OA
ENDBRANCH  20  21
ENDBRANCH  19  20
ENDBRANCH  18  19
BRANCH  18  24
HETATM   24  N           1     -23.191  -4.125  -7.749  0.00  0.00    -0.066 N 
HETATM   25  H           1     -23.979  -4.807  -7.830  0.00  0.00     0.275 HD
HETATM   26  H           1     -23.211  -3.680  -6.804  0.00  0.00     0.275 HD
HETATM   27  H           1     -23.289  -3.390  -8.485  0.00  0.00     0.275 HD
ENDBRANCH  18  24
ENDBRANCH  15  18
ENDBRANCH   1  14
BRANCH   1  28
HETATM   28  C           1     -20.104  -7.970  -4.818  0.00  0.00     0.196 C 
HETATM   29  O           1     -20.094  -8.775  -3.861  0.00  0.00    -0.646 OA
HETATM   30  O           1     -19.444  -8.218  -5.850  0.00  0.00    -0.646 OA
ENDBRANCH   1  28
TORSDOF 11
ENDMDL
