MODEL 1
REMARK VINA RESULT:      -6.1      0.000      0.000
REMARK  10 active torsions:
REMARK  status: ('A' for Active; 'I' for Inactive)
REMARK    1  A    between atoms: P_2  and  O_3 
REMARK    2  A    between atoms: P_2  and  O_13 
REMARK    3  A    between atoms: O_3  and  C_20 
REMARK    4  A    between atoms: N_4  and  C_17 
REMARK    5  A    between atoms: C_9  and  C_21 
REMARK    6  A    between atoms: N_15  and  C_21 
REMARK       I    between atoms: N_15  and  C_16 
REMARK    7  A    between atoms: C_16  and  C_17 
REMARK    8  A    between atoms: C_17  and  C_18 
REMARK    9  A    between atoms: C_18  and  S_19 
REMARK   10  A    between atoms: C_20  and  C_21 
ROOT
HETATM    1  O           1     -28.369  -4.957 -18.675  0.00  0.00    -0.271 OA
HETATM    2  N           1     -27.592  -7.035 -18.932  0.00  0.00    -0.343 N 
HETATM    3  C           1     -28.558  -6.143 -18.549  0.00  0.00     0.249 C 
HETATM    4  H           1     -27.752  -8.029 -18.826  0.00  0.00     0.163 HD
ENDROOT
BRANCH   2   5
HETATM    5  C           1     -26.343  -6.556 -19.490  0.00  0.00     0.210 C 
BRANCH   5   6
HETATM    6  C           1     -25.995  -7.367 -20.714  0.00  0.00     0.198 C 
HETATM    7  O           1     -26.790  -8.234 -21.137  0.00  0.00    -0.646 OA
HETATM    8  O           1     -24.912  -7.171 -21.306  0.00  0.00    -0.646 OA
ENDBRANCH   5   6
BRANCH   5   9
HETATM    9  C           1     -25.237  -6.702 -18.453  0.00  0.00     0.217 C 
BRANCH   9  10
HETATM   10  O           1     -25.626  -6.074 -17.261  0.00  0.00    -0.287 OA
BRANCH  10  11
HETATM   11  P           1     -25.425  -6.934 -15.909  0.00  0.00     0.406 P 
HETATM   12  O           1     -24.509  -8.065 -16.173  0.00  0.00    -0.624 OA
HETATM   13  O           1     -26.735  -7.457 -15.459  0.00  0.00    -0.624 OA
BRANCH  11  14
HETATM   14  O           1     -24.798  -5.989 -14.760  0.00  0.00    -0.300 OA
HETATM   15  H           1     -25.307  -5.198 -14.789  0.00  0.00     0.223 HD
ENDBRANCH  11  14
ENDBRANCH  10  11
ENDBRANCH   9  10
ENDBRANCH   5   9
ENDBRANCH   2   5
BRANCH   3  16
HETATM   16  C           1     -29.858  -6.642 -17.969  0.00  0.00     0.283 C 
BRANCH  16  17
HETATM   17  N           1     -29.764  -8.120 -17.730  0.00  0.00    -0.066 N 
HETATM   18  H           1     -28.852  -8.340 -17.269  0.00  0.00     0.275 HD
HETATM   19  H           1     -30.548  -8.423 -17.110  0.00  0.00     0.275 HD
HETATM   20  H           1     -29.824  -8.625 -18.643  0.00  0.00     0.275 HD
ENDBRANCH  16  17
BRANCH  16  21
HETATM   21  C           1     -30.132  -5.932 -16.649  0.00  0.00     0.113 C 
BRANCH  21  22
HETATM   22  S           1     -31.431  -4.688 -16.890  0.00  0.00    -0.180 SA
HETATM   23  H           1     -32.390  -5.555 -17.262  0.00  0.00     0.101 HD
ENDBRANCH  21  22
ENDBRANCH  16  21
ENDBRANCH   3  16
TORSDOF 10
ENDMDL
MODEL 2
REMARK VINA RESULT:      -6.0      3.380      5.263
REMARK  10 active torsions:
REMARK  status: ('A' for Active; 'I' for Inactive)
REMARK    1  A    between atoms: P_2  and  O_3 
REMARK    2  A    between atoms: P_2  and  O_13 
REMARK    3  A    between atoms: O_3  and  C_20 
REMARK    4  A    between atoms: N_4  and  C_17 
REMARK    5  A    between atoms: C_9  and  C_21 
REMARK    6  A    between atoms: N_15  and  C_21 
REMARK       I    between atoms: N_15  and  C_16 
REMARK    7  A    between atoms: C_16  and  C_17 
REMARK    8  A    between atoms: C_17  and  C_18 
REMARK    9  A    between atoms: C_18  and  S_19 
REMARK   10  A    between atoms: C_20  and  C_21 
ROOT
HETATM    1  O           1     -24.351  -6.474 -18.556  0.00  0.00    -0.271 OA
HETATM    2  N           1     -26.553  -6.631 -18.215  0.00  0.00    -0.343 N 
HETATM    3  C           1     -25.425  -6.848 -18.962  0.00  0.00     0.249 C 
HETATM    4  H           1     -27.453  -6.945 -18.556  0.00  0.00     0.163 HD
ENDROOT
BRANCH   2   5
HETATM    5  C           1     -26.457  -5.951 -16.939  0.00  0.00     0.210 C 
BRANCH   5   6
HETATM    6  C           1     -26.428  -6.971 -15.827  0.00  0.00     0.198 C 
HETATM    7  O           1     -27.497  -7.376 -15.322  0.00  0.00    -0.646 OA
HETATM    8  O           1     -25.334  -7.410 -15.411  0.00  0.00    -0.646 OA
ENDBRANCH   5   6
BRANCH   5   9
HETATM    9  C           1     -27.664  -5.039 -16.760  0.00  0.00     0.217 C 
BRANCH   9  10
HETATM   10  O           1     -28.679  -5.426 -17.646  0.00  0.00    -0.287 OA
BRANCH  10  11
HETATM   11  P           1     -30.163  -5.535 -17.019  0.00  0.00     0.406 P 
HETATM   12  O           1     -30.837  -6.741 -17.549  0.00  0.00    -0.624 OA
HETATM   13  O           1     -30.944  -4.332 -17.388  0.00  0.00    -0.624 OA
BRANCH  11  14
HETATM   14  O           1     -30.061  -5.638 -15.411  0.00  0.00    -0.300 OA
HETATM   15  H           1     -30.679  -6.307 -15.169  0.00  0.00     0.223 HD
ENDBRANCH  11  14
ENDBRANCH  10  11
ENDBRANCH   9  10
ENDBRANCH   5   9
ENDBRANCH   2   5
BRANCH   3  16
HETATM   16  C           1     -25.526  -7.557 -20.290  0.00  0.00     0.283 C 
BRANCH  16  17
HETATM   17  N           1     -26.969  -7.795 -20.622  0.00  0.00    -0.066 N 
HETATM   18  H           1     -27.420  -6.889 -20.883  0.00  0.00     0.275 HD
HETATM   19  H           1     -27.036  -8.460 -21.424  0.00  0.00     0.275 HD
HETATM   20  H           1     -27.455  -8.199 -19.790  0.00  0.00     0.275 HD
ENDBRANCH  16  17
BRANCH  16  21
HETATM   21  C           1     -24.892  -6.694 -21.375  0.00  0.00     0.113 C 
BRANCH  21  22
HETATM   22  S           1     -23.911  -7.742 -22.485  0.00  0.00    -0.180 SA
HETATM   23  H           1     -24.232  -7.088 -23.616  0.00  0.00     0.101 HD
ENDBRANCH  21  22
ENDBRANCH  16  21
ENDBRANCH   3  16
TORSDOF 10
ENDMDL
MODEL 3
REMARK VINA RESULT:      -5.7     11.190     12.880
REMARK  10 active torsions:
REMARK  status: ('A' for Active; 'I' for Inactive)
REMARK    1  A    between atoms: P_2  and  O_3 
REMARK    2  A    between atoms: P_2  and  O_13 
REMARK    3  A    between atoms: O_3  and  C_20 
REMARK    4  A    between atoms: N_4  and  C_17 
REMARK    5  A    between atoms: C_9  and  C_21 
REMARK    6  A    between atoms: N_15  and  C_21 
REMARK       I    between atoms: N_15  and  C_16 
REMARK    7  A    between atoms: C_16  and  C_17 
REMARK    8  A    between atoms: C_17  and  C_18 
REMARK    9  A    between atoms: C_18  and  S_19 
REMARK   10  A    between atoms: C_20  and  C_21 
ROOT
HETATM    1  O           1     -21.084  -7.215  -6.789  0.00  0.00    -0.271 OA
HETATM    2  N           1     -21.358  -5.013  -6.537  0.00  0.00    -0.343 N 
HETATM    3  C           1     -21.127  -6.268  -6.040  0.00  0.00     0.249 C 
HETATM    4  H           1     -21.394  -4.219  -5.908  0.00  0.00     0.163 HD
ENDROOT
BRANCH   2   5
HETATM    5  C           1     -21.551  -4.820  -7.960  0.00  0.00     0.210 C 
BRANCH   5   6
HETATM    6  C           1     -20.217  -4.570  -8.619  0.00  0.00     0.198 C 
HETATM    7  O           1     -19.244  -4.185  -7.935  0.00  0.00    -0.646 OA
HETATM    8  O           1     -20.085  -4.747  -9.849  0.00  0.00    -0.646 OA
ENDBRANCH   5   6
BRANCH   5   9
HETATM    9  C           1     -22.464  -3.623  -8.189  0.00  0.00     0.217 C 
BRANCH   9  10
HETATM   10  O           1     -23.674  -4.056  -8.749  0.00  0.00    -0.287 OA
BRANCH  10  11
HETATM   11  P           1     -23.788  -3.957 -10.357  0.00  0.00     0.406 P 
HETATM   12  O           1     -25.018  -3.221 -10.722  0.00  0.00    -0.624 OA
HETATM   13  O           1     -23.840  -5.320 -10.932  0.00  0.00    -0.624 OA
BRANCH  11  14
HETATM   14  O           1     -22.500  -3.175 -10.939  0.00  0.00    -0.300 OA
HETATM   15  H           1     -22.031  -2.877 -10.179  0.00  0.00     0.223 HD
ENDBRANCH  11  14
ENDBRANCH  10  11
ENDBRANCH   9  10
ENDBRANCH   5   9
ENDBRANCH   2   5
BRANCH   3  16
HETATM   16  C           1     -20.926  -6.467  -4.558  0.00  0.00     0.283 C 
BRANCH  16  17
HETATM   17  N           1     -22.190  -6.119  -3.831  0.00  0.00    -0.066 N 
HETATM   18  H           1     -22.260  -6.694  -2.961  0.00  0.00     0.275 HD
HETATM   19  H           1     -22.178  -5.106  -3.578  0.00  0.00     0.275 HD
HETATM   20  H           1     -23.011  -6.317  -4.446  0.00  0.00     0.275 HD
ENDBRANCH  16  17
BRANCH  16  21
HETATM   21  C           1     -20.568  -7.923  -4.286  0.00  0.00     0.113 C 
BRANCH  21  22
HETATM   22  S           1     -20.657  -8.244  -2.502  0.00  0.00    -0.180 SA
HETATM   23  H           1     -19.328  -8.285  -2.299  0.00  0.00     0.101 HD
ENDBRANCH  21  22
ENDBRANCH  16  21
ENDBRANCH   3  16
TORSDOF 10
ENDMDL
MODEL 4
REMARK VINA RESULT:      -5.5      2.902      4.054
REMARK  10 active torsions:
REMARK  status: ('A' for Active; 'I' for Inactive)
REMARK    1  A    between atoms: P_2  and  O_3 
REMARK    2  A    between atoms: P_2  and  O_13 
REMARK    3  A    between atoms: O_3  and  C_20 
REMARK    4  A    between atoms: N_4  and  C_17 
REMARK    5  A    between atoms: C_9  and  C_21 
REMARK    6  A    between atoms: N_15  and  C_21 
REMARK       I    between atoms: N_15  and  C_16 
REMARK    7  A    between atoms: C_16  and  C_17 
REMARK    8  A    between atoms: C_17  and  C_18 
REMARK    9  A    between atoms: C_18  and  S_19 
REMARK   10  A    between atoms: C_20  and  C_21 
ROOT
HETATM    1  O           1     -31.130  -3.422 -17.364  0.00  0.00    -0.271 OA
HETATM    2  N           1     -31.058  -5.568 -16.754  0.00  0.00    -0.343 N 
HETATM    3  C           1     -31.721  -4.384 -16.936  0.00  0.00     0.249 C 
HETATM    4  H           1     -31.554  -6.375 -16.395  0.00  0.00     0.163 HD
ENDROOT
BRANCH   2   5
HETATM    5  C           1     -29.648  -5.667 -17.074  0.00  0.00     0.210 C 
BRANCH   5   6
HETATM    6  C           1     -29.400  -6.925 -17.870  0.00  0.00     0.198 C 
HETATM    7  O           1     -28.689  -6.885 -18.898  0.00  0.00    -0.646 OA
HETATM    8  O           1     -29.906  -8.007 -17.502  0.00  0.00    -0.646 OA
ENDBRANCH   5   6
BRANCH   5   9
HETATM    9  C           1     -28.838  -5.714 -15.785  0.00  0.00     0.217 C 
BRANCH   9  10
HETATM   10  O           1     -27.544  -5.232 -16.028  0.00  0.00    -0.287 OA
BRANCH  10  11
HETATM   11  P           1     -26.374  -6.343 -16.093  0.00  0.00     0.406 P 
HETATM   12  O           1     -26.810  -7.564 -15.379  0.00  0.00    -0.624 OA
HETATM   13  O           1     -25.151  -5.809 -15.452  0.00  0.00    -0.624 OA
BRANCH  11  14
HETATM   14  O           1     -26.061  -6.704 -17.635  0.00  0.00    -0.300 OA
HETATM   15  H           1     -26.544  -7.496 -17.803  0.00  0.00     0.223 HD
ENDBRANCH  11  14
ENDBRANCH  10  11
ENDBRANCH   9  10
ENDBRANCH   5   9
ENDBRANCH   2   5
BRANCH   3  16
HETATM   16  C           1     -33.189  -4.282 -16.602  0.00  0.00     0.283 C 
BRANCH  16  17
HETATM   17  N           1     -33.355  -4.138 -15.119  0.00  0.00    -0.066 N 
HETATM   18  H           1     -32.983  -4.990 -14.643  0.00  0.00     0.275 HD
HETATM   19  H           1     -32.827  -3.298 -14.790  0.00  0.00     0.275 HD
HETATM   20  H           1     -34.368  -4.025 -14.891  0.00  0.00     0.275 HD
ENDBRANCH  16  17
BRANCH  16  21
HETATM   21  C           1     -33.785  -3.066 -17.301  0.00  0.00     0.113 C 
BRANCH  21  22
HETATM   22  S           1     -35.000  -2.277 -16.209  0.00  0.00    -0.180 SA
HETATM   23  H           1     -34.800  -1.025 -16.656  0.00  0.00     0.101 HD
ENDBRANCH  21  22
ENDBRANCH  16  21
ENDBRANCH   3  16
TORSDOF 10
ENDMDL
MODEL 5
REMARK VINA RESULT:      -5.4      3.484      5.539
REMARK  10 active torsions:
REMARK  status: ('A' for Active; 'I' for Inactive)
REMARK    1  A    between atoms: P_2  and  O_3 
REMARK    2  A    between atoms: P_2  and  O_13 
REMARK    3  A    between atoms: O_3  and  C_20 
REMARK    4  A    between atoms: N_4  and  C_17 
REMARK    5  A    between atoms: C_9  and  C_21 
REMARK    6  A    between atoms: N_15  and  C_21 
REMARK       I    between atoms: N_15  and  C_16 
REMARK    7  A    between atoms: C_16  and  C_17 
REMARK    8  A    between atoms: C_17  and  C_18 
REMARK    9  A    between atoms: C_18  and  S_19 
REMARK   10  A    between atoms: C_20  and  C_21 
ROOT
HETATM    1  O           1     -26.634  -5.685 -20.675  0.00  0.00    -0.271 OA
HETATM    2  N           1     -26.446  -6.780 -18.738  0.00  0.00    -0.343 N 
HETATM    3  C           1     -26.229  -6.658 -20.085  0.00  0.00     0.249 C 
HETATM    4  H           1     -26.106  -7.596 -18.244  0.00  0.00     0.163 HD
ENDROOT
BRANCH   2   5
HETATM    5  C           1     -27.161  -5.743 -18.021  0.00  0.00     0.210 C 
BRANCH   5   6
HETATM    6  C           1     -26.720  -5.735 -16.577  0.00  0.00     0.198 C 
HETATM    7  O           1     -27.570  -5.655 -15.665  0.00  0.00    -0.646 OA
HETATM    8  O           1     -25.505  -5.808 -16.295  0.00  0.00    -0.646 OA
ENDBRANCH   5   6
BRANCH   5   9
HETATM    9  C           1     -28.657  -6.017 -18.094  0.00  0.00     0.217 C 
BRANCH   9  10
HETATM   10  O           1     -29.307  -4.914 -18.666  0.00  0.00    -0.287 OA
BRANCH  10  11
HETATM   11  P           1     -29.984  -3.875 -17.632  0.00  0.00     0.406 P 
HETATM   12  O           1     -28.949  -2.957 -17.105  0.00  0.00    -0.624 OA
HETATM   13  O           1     -30.595  -4.623 -16.510  0.00  0.00    -0.624 OA
BRANCH  11  14
HETATM   14  O           1     -31.122  -3.021 -18.395  0.00  0.00    -0.300 OA
HETATM   15  H           1     -30.712  -2.199 -18.604  0.00  0.00     0.223 HD
ENDBRANCH  11  14
ENDBRANCH  10  11
ENDBRANCH   9  10
ENDBRANCH   5   9
ENDBRANCH   2   5
BRANCH   3  16
HETATM   16  C           1     -25.485  -7.738 -20.830  0.00  0.00     0.283 C 
BRANCH  16  17
HETATM   17  N           1     -26.464  -8.732 -21.378  0.00  0.00    -0.066 N 
HETATM   18  H           1     -27.252  -8.854 -20.702  0.00  0.00     0.275 HD
HETATM   19  H           1     -26.840  -8.385 -22.289  0.00  0.00     0.275 HD
HETATM   20  H           1     -25.985  -9.649 -21.524  0.00  0.00     0.275 HD
ENDBRANCH  16  17
BRANCH  16  21
HETATM   21  C           1     -24.699  -7.114 -21.977  0.00  0.00     0.113 C 
BRANCH  21  22
HETATM   22  S           1     -23.387  -8.253 -22.501  0.00  0.00    -0.180 SA
HETATM   23  H           1     -23.904  -8.516 -23.715  0.00  0.00     0.101 HD
ENDBRANCH  21  22
ENDBRANCH  16  21
ENDBRANCH   3  16
TORSDOF 10
ENDMDL
MODEL 6
REMARK VINA RESULT:      -5.3      2.374      4.010
REMARK  10 active torsions:
REMARK  status: ('A' for Active; 'I' for Inactive)
REMARK    1  A    between atoms: P_2  and  O_3 
REMARK    2  A    between atoms: P_2  and  O_13 
REMARK    3  A    between atoms: O_3  and  C_20 
REMARK    4  A    between atoms: N_4  and  C_17 
REMARK    5  A    between atoms: C_9  and  C_21 
REMARK    6  A    between atoms: N_15  and  C_21 
REMARK       I    between atoms: N_15  and  C_16 
REMARK    7  A    between atoms: C_16  and  C_17 
REMARK    8  A    between atoms: C_17  and  C_18 
REMARK    9  A    between atoms: C_18  and  S_19 
REMARK   10  A    between atoms: C_20  and  C_21 
ROOT
HETATM    1  O           1     -30.107  -6.242 -18.011  0.00  0.00    -0.271 OA
HETATM    2  N           1     -28.385  -5.208 -17.036  0.00  0.00    -0.343 N 
HETATM    3  C           1     -29.703  -5.282 -17.400  0.00  0.00     0.249 C 
HETATM    4  H           1     -28.047  -4.402 -16.523  0.00  0.00     0.163 HD
ENDROOT
BRANCH   2   5
HETATM    5  C           1     -27.475  -6.281 -17.382  0.00  0.00     0.210 C 
BRANCH   5   6
HETATM    6  C           1     -26.524  -6.523 -16.235  0.00  0.00     0.198 C 
HETATM    7  O           1     -26.763  -7.425 -15.404  0.00  0.00    -0.646 OA
HETATM    8  O           1     -25.497  -5.821 -16.117  0.00  0.00    -0.646 OA
ENDBRANCH   5   6
BRANCH   5   9
HETATM    9  C           1     -26.685  -5.894 -18.625  0.00  0.00     0.217 C 
BRANCH   9  10
HETATM   10  O           1     -26.916  -6.834 -19.638  0.00  0.00    -0.287 OA
BRANCH  10  11
HETATM   11  P           1     -25.621  -7.294 -20.487  0.00  0.00     0.406 P 
HETATM   12  O           1     -25.133  -6.158 -21.301  0.00  0.00    -0.624 OA
HETATM   13  O           1     -25.990  -8.416 -21.380  0.00  0.00    -0.624 OA
BRANCH  11  14
HETATM   14  O           1     -24.456  -7.770 -19.475  0.00  0.00    -0.300 OA
HETATM   15  H           1     -24.886  -7.884 -18.645  0.00  0.00     0.223 HD
ENDBRANCH  11  14
ENDBRANCH  10  11
ENDBRANCH   9  10
ENDBRANCH   5   9
ENDBRANCH   2   5
BRANCH   3  16
HETATM   16  C           1     -30.650  -4.164 -17.039  0.00  0.00     0.283 C 
BRANCH  16  17
HETATM   17  N           1     -30.661  -3.144 -18.138  0.00  0.00    -0.066 N 
HETATM   18  H           1     -29.732  -3.139 -18.617  0.00  0.00     0.275 HD
HETATM   19  H           1     -31.406  -3.385 -18.829  0.00  0.00     0.275 HD
HETATM   20  H           1     -30.850  -2.199 -17.735  0.00  0.00     0.275 HD
ENDBRANCH  16  17
BRANCH  16  21
HETATM   21  C           1     -32.054  -4.727 -16.856  0.00  0.00     0.113 C 
BRANCH  21  22
HETATM   22  S           1     -33.275  -3.429 -17.196  0.00  0.00    -0.180 SA
HETATM   23  H           1     -33.051  -3.368 -18.521  0.00  0.00     0.101 HD
ENDBRANCH  21  22
ENDBRANCH  16  21
ENDBRANCH   3  16
TORSDOF 10
ENDMDL
MODEL 7
REMARK VINA RESULT:      -5.1      2.875      4.394
REMARK  10 active torsions:
REMARK  status: ('A' for Active; 'I' for Inactive)
REMARK    1  A    between atoms: P_2  and  O_3 
REMARK    2  A    between atoms: P_2  and  O_13 
REMARK    3  A    between atoms: O_3  and  C_20 
REMARK    4  A    between atoms: N_4  and  C_17 
REMARK    5  A    between atoms: C_9  and  C_21 
REMARK    6  A    between atoms: N_15  and  C_21 
REMARK       I    between atoms: N_15  and  C_16 
REMARK    7  A    between atoms: C_16  and  C_17 
REMARK    8  A    between atoms: C_17  and  C_18 
REMARK    9  A    between atoms: C_18  and  S_19 
REMARK   10  A    between atoms: C_20  and  C_21 
ROOT
HETATM    1  O           1     -28.630  -7.330 -19.050  0.00  0.00    -0.271 OA
HETATM    2  N           1     -27.885  -5.322 -18.417  0.00  0.00    -0.343 N 
HETATM    3  C           1     -27.850  -6.426 -19.227  0.00  0.00     0.249 C 
HETATM    4  H           1     -27.230  -4.564 -18.567  0.00  0.00     0.163 HD
ENDROOT
BRANCH   2   5
HETATM    5  C           1     -28.858  -5.239 -17.346  0.00  0.00     0.210 C 
BRANCH   5   6
HETATM    6  C           1     -29.564  -3.907 -17.411  0.00  0.00     0.198 C 
HETATM    7  O           1     -30.801  -3.863 -17.580  0.00  0.00    -0.646 OA
HETATM    8  O           1     -28.911  -2.848 -17.295  0.00  0.00    -0.646 OA
ENDBRANCH   5   6
BRANCH   5   9
HETATM    9  C           1     -28.148  -5.374 -16.005  0.00  0.00     0.217 C 
BRANCH   9  10
HETATM   10  O           1     -26.771  -5.181 -16.183  0.00  0.00    -0.287 OA
BRANCH  10  11
HETATM   11  P           1     -25.830  -6.456 -15.870  0.00  0.00     0.406 P 
HETATM   12  O           1     -25.068  -6.820 -17.085  0.00  0.00    -0.624 OA
HETATM   13  O           1     -26.674  -7.601 -15.457  0.00  0.00    -0.624 OA
BRANCH  11  14
HETATM   14  O           1     -24.803  -6.087 -14.680  0.00  0.00    -0.300 OA
HETATM   15  H           1     -24.177  -5.502 -15.071  0.00  0.00     0.223 HD
ENDBRANCH  11  14
ENDBRANCH  10  11
ENDBRANCH   9  10
ENDBRANCH   5   9
ENDBRANCH   2   5
BRANCH   3  16
HETATM   16  C           1     -26.836  -6.511 -20.342  0.00  0.00     0.283 C 
BRANCH  16  17
HETATM   17  N           1     -25.490  -6.097 -19.826  0.00  0.00    -0.066 N 
HETATM   18  H           1     -25.285  -6.610 -18.939  0.00  0.00     0.275 HD
HETATM   19  H           1     -24.760  -6.327 -20.537  0.00  0.00     0.275 HD
HETATM   20  H           1     -25.489  -5.069 -19.642  0.00  0.00     0.275 HD
ENDBRANCH  16  17
BRANCH  16  21
HETATM   21  C           1     -26.765  -7.944 -20.854  0.00  0.00     0.113 C 
BRANCH  21  22
HETATM   22  S           1     -25.080  -8.298 -21.428  0.00  0.00    -0.180 SA
HETATM   23  H           1     -25.425  -9.276 -22.284  0.00  0.00     0.101 HD
ENDBRANCH  21  22
ENDBRANCH  16  21
ENDBRANCH   3  16
TORSDOF 10
ENDMDL
MODEL 8
REMARK VINA RESULT:      -5.1      2.154      4.033
REMARK  10 active torsions:
REMARK  status: ('A' for Active; 'I' for Inactive)
REMARK    1  A    between atoms: P_2  and  O_3 
REMARK    2  A    between atoms: P_2  and  O_13 
REMARK    3  A    between atoms: O_3  and  C_20 
REMARK    4  A    between atoms: N_4  and  C_17 
REMARK    5  A    between atoms: C_9  and  C_21 
REMARK    6  A    between atoms: N_15  and  C_21 
REMARK       I    between atoms: N_15  and  C_16 
REMARK    7  A    between atoms: C_16  and  C_17 
REMARK    8  A    between atoms: C_17  and  C_18 
REMARK    9  A    between atoms: C_18  and  S_19 
REMARK   10  A    between atoms: C_20  and  C_21 
ROOT
HETATM    1  O           1     -28.187  -6.662 -18.485  0.00  0.00    -0.271 OA
HETATM    2  N           1     -26.590  -5.890 -17.128  0.00  0.00    -0.343 N 
HETATM    3  C           1     -27.828  -5.809 -17.709  0.00  0.00     0.249 C 
HETATM    4  H           1     -26.290  -5.175 -16.477  0.00  0.00     0.163 HD
ENDROOT
BRANCH   2   5
HETATM    5  C           1     -25.711  -6.999 -17.444  0.00  0.00     0.210 C 
BRANCH   5   6
HETATM    6  C           1     -24.983  -7.434 -16.196  0.00  0.00     0.198 C 
HETATM    7  O           1     -25.266  -6.918 -15.094  0.00  0.00    -0.646 OA
HETATM    8  O           1     -24.095  -8.312 -16.265  0.00  0.00    -0.646 OA
ENDBRANCH   5   6
BRANCH   5   9
HETATM    9  C           1     -24.701  -6.559 -18.495  0.00  0.00     0.217 C 
BRANCH   9  10
HETATM   10  O           1     -24.476  -7.609 -19.396  0.00  0.00    -0.287 OA
BRANCH  10  11
HETATM   11  P           1     -25.072  -7.407 -20.883  0.00  0.00     0.406 P 
HETATM   12  O           1     -26.388  -8.076 -20.984  0.00  0.00    -0.624 OA
HETATM   13  O           1     -24.142  -8.000 -21.871  0.00  0.00    -0.624 OA
BRANCH  11  14
HETATM   14  O           1     -25.245  -5.830 -21.184  0.00  0.00    -0.300 OA
HETATM   15  H           1     -25.725  -5.493 -20.447  0.00  0.00     0.223 HD
ENDBRANCH  11  14
ENDBRANCH  10  11
ENDBRANCH   9  10
ENDBRANCH   5   9
ENDBRANCH   2   5
BRANCH   3  16
HETATM   16  C           1     -28.742  -4.655 -17.379  0.00  0.00     0.283 C 
BRANCH  16  17
HETATM   17  N           1     -29.469  -4.225 -18.617  0.00  0.00    -0.066 N 
HETATM   18  H           1     -30.498  -4.345 -18.476  0.00  0.00     0.275 HD
HETATM   19  H           1     -29.261  -3.220 -18.812  0.00  0.00     0.275 HD
HETATM   20  H           1     -29.159  -4.809 -19.425  0.00  0.00     0.275 HD
ENDBRANCH  16  17
BRANCH  16  21
HETATM   21  C           1     -29.750  -5.092 -16.324  0.00  0.00     0.113 C 
BRANCH  21  22
HETATM   22  S           1     -31.425  -4.661 -16.873  0.00  0.00    -0.180 SA
HETATM   23  H           1     -31.417  -3.409 -16.379  0.00  0.00     0.101 HD
ENDBRANCH  21  22
ENDBRANCH  16  21
ENDBRANCH   3  16
TORSDOF 10
ENDMDL
MODEL 9
REMARK VINA RESULT:      -5.0      3.324      5.411
REMARK  10 active torsions:
REMARK  status: ('A' for Active; 'I' for Inactive)
REMARK    1  A    between atoms: P_2  and  O_3 
REMARK    2  A    between atoms: P_2  and  O_13 
REMARK    3  A    between atoms: O_3  and  C_20 
REMARK    4  A    between atoms: N_4  and  C_17 
REMARK    5  A    between atoms: C_9  and  C_21 
REMARK    6  A    between atoms: N_15  and  C_21 
REMARK       I    between atoms: N_15  and  C_16 
REMARK    7  A    between atoms: C_16  and  C_17 
REMARK    8  A    between atoms: C_17  and  C_18 
REMARK    9  A    between atoms: C_18  and  S_19 
REMARK   10  A    between atoms: C_20  and  C_21 
ROOT
HETATM    1  O           1     -27.093  -6.160 -19.590  0.00  0.00    -0.271 OA
HETATM    2  N           1     -25.890  -6.636 -17.771  0.00  0.00    -0.343 N 
HETATM    3  C           1     -26.040  -6.528 -19.128  0.00  0.00     0.249 C 
HETATM    4  H           1     -25.006  -6.945 -17.383  0.00  0.00     0.163 HD
ENDROOT
BRANCH   2   5
HETATM    5  C           1     -26.992  -6.308 -16.890  0.00  0.00     0.210 C 
BRANCH   5   6
HETATM    6  C           1     -26.858  -7.087 -15.604  0.00  0.00     0.198 C 
HETATM    7  O           1     -27.880  -7.469 -14.995  0.00  0.00    -0.646 OA
HETATM    8  O           1     -25.724  -7.349 -15.148  0.00  0.00    -0.646 OA
ENDBRANCH   5   6
BRANCH   5   9
HETATM    9  C           1     -28.307  -6.669 -17.568  0.00  0.00     0.217 C 
BRANCH   9  10
HETATM   10  O           1     -29.351  -5.936 -16.987  0.00  0.00    -0.287 OA
BRANCH  10  11
HETATM   11  P           1     -29.536  -4.423 -17.520  0.00  0.00     0.406 P 
HETATM   12  O           1     -28.568  -3.535 -16.837  0.00  0.00    -0.624 OA
HETATM   13  O           1     -30.913  -3.963 -17.230  0.00  0.00    -0.624 OA
BRANCH  11  14
HETATM   14  O           1     -29.276  -4.378 -19.113  0.00  0.00    -0.300 OA
HETATM   15  H           1     -29.721  -3.603 -19.412  0.00  0.00     0.223 HD
ENDBRANCH  11  14
ENDBRANCH  10  11
ENDBRANCH   9  10
ENDBRANCH   5   9
ENDBRANCH   2   5
BRANCH   3  16
HETATM   16  C           1     -24.892  -6.871 -20.044  0.00  0.00     0.283 C 
BRANCH  16  17
HETATM   17  N           1     -23.794  -7.514 -19.250  0.00  0.00    -0.066 N 
HETATM   18  H           1     -24.123  -8.438 -18.887  0.00  0.00     0.275 HD
HETATM   19  H           1     -22.960  -7.659 -19.863  0.00  0.00     0.275 HD
HETATM   20  H           1     -23.536  -6.897 -18.448  0.00  0.00     0.275 HD
ENDBRANCH  16  17
BRANCH  16  21
HETATM   21  C           1     -25.371  -7.835 -21.121  0.00  0.00     0.113 C 
BRANCH  21  22
HETATM   22  S           1     -24.117  -7.956 -22.427  0.00  0.00    -0.180 SA
HETATM   23  H           1     -23.237  -8.679 -21.710  0.00  0.00     0.101 HD
ENDBRANCH  21  22
ENDBRANCH  16  21
ENDBRANCH   3  16
TORSDOF 10
ENDMDL
