MODEL 1
REMARK VINA RESULT:      -6.8      0.000      0.000
REMARK  8 active torsions:
REMARK  status: ('A' for Active; 'I' for Inactive)
REMARK    1  A    between atoms: C_2  and  C_12 
REMARK    2  A    between atoms: C_2  and  C_3 
REMARK    3  A    between atoms: N_7  and  C_12 
REMARK    4  A    between atoms: C_10  and  C_24 
REMARK    5  A    between atoms: C_12  and  C_20 
REMARK    6  A    between atoms: C_15  and  C_24 
REMARK    7  A    between atoms: C_15  and  C_16 
REMARK    8  A    between atoms: C_15  and  N_19 
REMARK       I    between atoms: N_19  and  C_20 
ROOT
HETATM    1  C           1     -25.764  -7.613 -20.131  0.00  0.00     0.280 C 
ENDROOT
BRANCH   1   2
HETATM    2  C           1     -24.878  -6.867 -21.120  0.00  0.00     0.101 C 
BRANCH   2   3
HETATM    3  C           1     -23.779  -7.770 -21.586  0.00  0.00     0.028 A 
HETATM    4  C           1     -23.552  -8.111 -22.898  0.00  0.00     0.114 A 
HETATM    5  N           1     -22.466  -8.940 -22.866  0.00  0.00    -0.360 N 
HETATM    6  H           1     -22.008  -9.398 -23.695  0.00  0.00     0.166 HD
HETATM    7  C           1     -22.084  -9.068 -21.561  0.00  0.00     0.180 A 
HETATM    8  N           1     -22.860  -8.370 -20.764  0.00  0.00    -0.355 N 
ATOM      9  HN          1     -22.794  -8.292 -19.749  1.00  0.00     0.166 HD
ENDBRANCH   2   3
ENDBRANCH   1   2
BRANCH   1  10
HETATM   10  N           1     -27.152  -7.725 -20.690  0.00  0.00    -0.066 N 
HETATM   11  H           1     -27.204  -8.549 -21.331  0.00  0.00     0.275 HD
HETATM   12  H           1     -27.833  -7.848 -19.908  0.00  0.00     0.275 HD
HETATM   13  H           1     -27.383  -6.855 -21.221  0.00  0.00     0.275 HD
ENDBRANCH   1  10
BRANCH   1  14
HETATM   14  C           1     -25.808  -6.859 -18.825  0.00  0.00     0.249 C 
HETATM   15  O           1     -24.792  -6.409 -18.353  0.00  0.00    -0.271 OA
HETATM   16  N           1     -27.001  -6.686 -18.174  0.00  0.00    -0.344 N 
HETATM   17  H           1     -27.852  -7.064 -18.570  0.00  0.00     0.163 HD
BRANCH  16  18
HETATM   18  C           1     -27.042  -5.962 -16.918  0.00  0.00     0.189 C 
BRANCH  18  19
HETATM   19  C           1     -28.391  -5.269 -16.777  0.00  0.00     0.014 C 
HETATM   20  C           1     -28.196  -3.760 -16.856  0.00  0.00     0.012 C 
BRANCH  19  21
HETATM   21  C           1     -29.314  -5.719 -17.902  0.00  0.00     0.002 C 
HETATM   22  C           1     -30.533  -6.417 -17.311  0.00  0.00     0.005 C 
ENDBRANCH  19  21
ENDBRANCH  18  19
BRANCH  18  23
HETATM   23  C           1     -26.851  -6.928 -15.776  0.00  0.00     0.197 C 
HETATM   24  O           1     -25.698  -7.236 -15.404  0.00  0.00    -0.646 OA
HETATM   25  O           1     -27.846  -7.422 -15.200  0.00  0.00    -0.646 OA
ENDBRANCH  18  23
ENDBRANCH  16  18
ENDBRANCH   1  14
TORSDOF 8
ENDMDL
MODEL 2
REMARK VINA RESULT:      -6.5     11.590     14.115
REMARK  8 active torsions:
REMARK  status: ('A' for Active; 'I' for Inactive)
REMARK    1  A    between atoms: C_2  and  C_12 
REMARK    2  A    between atoms: C_2  and  C_3 
REMARK    3  A    between atoms: N_7  and  C_12 
REMARK    4  A    between atoms: C_10  and  C_24 
REMARK    5  A    between atoms: C_12  and  C_20 
REMARK    6  A    between atoms: C_15  and  C_24 
REMARK    7  A    between atoms: C_15  and  C_16 
REMARK    8  A    between atoms: C_15  and  N_19 
REMARK       I    between atoms: N_19  and  C_20 
ROOT
HETATM    1  C           1     -21.930  -4.435  -7.040  0.00  0.00     0.280 C 
ENDROOT
BRANCH   1   2
HETATM    2  C           1     -21.952  -4.981  -8.461  0.00  0.00     0.101 C 
BRANCH   2   3
HETATM    3  C           1     -23.128  -4.416  -9.195  0.00  0.00     0.028 A 
HETATM    4  C           1     -23.349  -4.557 -10.544  0.00  0.00     0.114 A 
HETATM    5  N           1     -24.521  -3.895 -10.783  0.00  0.00    -0.360 N 
HETATM    6  H           1     -24.999  -3.794 -11.713  0.00  0.00     0.166 HD
HETATM    7  C           1     -24.957  -3.389  -9.592  0.00  0.00     0.180 A 
HETATM    8  N           1     -24.135  -3.689  -8.613  0.00  0.00    -0.355 N 
ATOM      9  HN          1     -24.226  -3.435  -7.629  1.00  0.00     0.166 HD
ENDBRANCH   2   3
ENDBRANCH   1   2
BRANCH   1  10
HETATM   10  N           1     -21.422  -3.023  -7.055  0.00  0.00    -0.066 N 
HETATM   11  H           1     -21.939  -2.459  -6.343  0.00  0.00     0.275 HD
HETATM   12  H           1     -20.402  -3.018  -6.830  0.00  0.00     0.275 HD
HETATM   13  H           1     -21.571  -2.611  -8.004  0.00  0.00     0.275 HD
ENDBRANCH   1  10
BRANCH   1  14
HETATM   14  C           1     -21.022  -5.286  -6.187  0.00  0.00     0.249 C 
HETATM   15  O           1     -19.835  -5.067  -6.164  0.00  0.00    -0.271 OA
HETATM   16  N           1     -21.544  -6.308  -5.439  0.00  0.00    -0.344 N 
HETATM   17  H           1     -22.539  -6.492  -5.460  0.00  0.00     0.163 HD
BRANCH  16  18
HETATM   18  C           1     -20.671  -7.127  -4.621  0.00  0.00     0.189 C 
BRANCH  18  19
HETATM   19  C           1     -21.396  -7.518  -3.340  0.00  0.00     0.014 C 
HETATM   20  C           1     -20.438  -8.270  -2.424  0.00  0.00     0.012 C 
BRANCH  19  21
HETATM   21  C           1     -21.890  -6.262  -2.633  0.00  0.00     0.002 C 
HETATM   22  C           1     -22.304  -6.611  -1.209  0.00  0.00     0.005 C 
ENDBRANCH  19  21
ENDBRANCH  18  19
BRANCH  18  23
HETATM   23  C           1     -20.291  -8.372  -5.383  0.00  0.00     0.197 C 
HETATM   24  O           1     -19.090  -8.603  -5.644  0.00  0.00    -0.646 OA
HETATM   25  O           1     -21.176  -9.173  -5.755  0.00  0.00    -0.646 OA
ENDBRANCH  18  23
ENDBRANCH  16  18
ENDBRANCH   1  14
TORSDOF 8
ENDMDL
MODEL 3
REMARK VINA RESULT:      -6.3      1.304      2.041
REMARK  8 active torsions:
REMARK  status: ('A' for Active; 'I' for Inactive)
REMARK    1  A    between atoms: C_2  and  C_12 
REMARK    2  A    between atoms: C_2  and  C_3 
REMARK    3  A    between atoms: N_7  and  C_12 
REMARK    4  A    between atoms: C_10  and  C_24 
REMARK    5  A    between atoms: C_12  and  C_20 
REMARK    6  A    between atoms: C_15  and  C_24 
REMARK    7  A    between atoms: C_15  and  C_16 
REMARK    8  A    between atoms: C_15  and  N_19 
REMARK       I    between atoms: N_19  and  C_20 
ROOT
HETATM    1  C           1     -24.790  -6.671 -18.798  0.00  0.00     0.280 C 
ENDROOT
BRANCH   1   2
HETATM    2  C           1     -25.414  -7.554 -19.870  0.00  0.00     0.101 C 
BRANCH   2   3
HETATM    3  C           1     -24.397  -7.847 -20.929  0.00  0.00     0.028 A 
HETATM    4  C           1     -24.453  -7.376 -22.219  0.00  0.00     0.114 A 
HETATM    5  N           1     -23.339  -7.881 -22.830  0.00  0.00    -0.360 N 
HETATM    6  H           1     -23.055  -7.726 -23.829  0.00  0.00     0.166 HD
HETATM    7  C           1     -22.664  -8.624 -21.904  0.00  0.00     0.180 A 
HETATM    8  N           1     -23.280  -8.622 -20.744  0.00  0.00    -0.355 N 
ATOM      9  HN          1     -22.989  -9.096 -19.889  1.00  0.00     0.166 HD
ENDBRANCH   2   3
ENDBRANCH   1   2
BRANCH   1  10
HETATM   10  N           1     -23.639  -7.393 -18.163  0.00  0.00    -0.066 N 
HETATM   11  H           1     -23.541  -7.086 -17.169  0.00  0.00     0.275 HD
HETATM   12  H           1     -23.814  -8.423 -18.194  0.00  0.00     0.275 HD
HETATM   13  H           1     -22.761  -7.174 -18.685  0.00  0.00     0.275 HD
ENDBRANCH   1  10
BRANCH   1  14
HETATM   14  C           1     -25.824  -6.350 -17.746  0.00  0.00     0.249 C 
HETATM   15  O           1     -25.479  -5.923 -16.671  0.00  0.00    -0.271 OA
HETATM   16  N           1     -27.154  -6.546 -18.010  0.00  0.00    -0.344 N 
HETATM   17  H           1     -27.442  -6.905 -18.912  0.00  0.00     0.163 HD
BRANCH  16  18
HETATM   18  C           1     -28.146  -6.239 -16.999  0.00  0.00     0.189 C 
BRANCH  18  19
HETATM   19  C           1     -29.422  -5.751 -17.672  0.00  0.00     0.014 C 
HETATM   20  C           1     -30.496  -5.520 -16.616  0.00  0.00     0.012 C 
BRANCH  19  21
HETATM   21  C           1     -29.143  -4.444 -18.404  0.00  0.00     0.002 C 
HETATM   22  C           1     -28.929  -3.329 -17.388  0.00  0.00     0.005 C 
ENDBRANCH  19  21
ENDBRANCH  18  19
BRANCH  18  23
HETATM   23  C           1     -28.445  -7.480 -16.196  0.00  0.00     0.197 C 
HETATM   24  O           1     -29.161  -8.382 -16.683  0.00  0.00    -0.646 OA
HETATM   25  O           1     -27.976  -7.609 -15.044  0.00  0.00    -0.646 OA
ENDBRANCH  18  23
ENDBRANCH  16  18
ENDBRANCH   1  14
TORSDOF 8
ENDMDL
MODEL 4
REMARK VINA RESULT:      -6.3      1.922      2.379
REMARK  8 active torsions:
REMARK  status: ('A' for Active; 'I' for Inactive)
REMARK    1  A    between atoms: C_2  and  C_12 
REMARK    2  A    between atoms: C_2  and  C_3 
REMARK    3  A    between atoms: N_7  and  C_12 
REMARK    4  A    between atoms: C_10  and  C_24 
REMARK    5  A    between atoms: C_12  and  C_20 
REMARK    6  A    between atoms: C_15  and  C_24 
REMARK    7  A    between atoms: C_15  and  C_16 
REMARK    8  A    between atoms: C_15  and  N_19 
REMARK       I    between atoms: N_19  and  C_20 
ROOT
HETATM    1  C           1     -25.455  -6.760 -19.760  0.00  0.00     0.280 C 
ENDROOT
BRANCH   1   2
HETATM    2  C           1     -25.588  -7.904 -20.756  0.00  0.00     0.101 C 
BRANCH   2   3
HETATM    3  C           1     -24.269  -8.145 -21.421  0.00  0.00     0.028 A 
HETATM    4  C           1     -23.964  -7.775 -22.709  0.00  0.00     0.114 A 
HETATM    5  N           1     -22.673  -8.181 -22.899  0.00  0.00    -0.360 N 
HETATM    6  H           1     -22.106  -8.063 -23.776  0.00  0.00     0.166 HD
HETATM    7  C           1     -22.253  -8.771 -21.741  0.00  0.00     0.180 A 
HETATM    8  N           1     -23.198  -8.763 -20.828  0.00  0.00    -0.355 N 
ATOM      9  HN          1     -23.145  -9.137 -19.881  1.00  0.00     0.166 HD
ENDBRANCH   2   3
ENDBRANCH   1   2
BRANCH   1  10
HETATM   10  N           1     -24.853  -7.275 -18.486  0.00  0.00    -0.066 N 
HETATM   11  H           1     -23.861  -6.955 -18.415  0.00  0.00     0.275 HD
HETATM   12  H           1     -25.396  -6.908 -17.672  0.00  0.00     0.275 HD
HETATM   13  H           1     -24.885  -8.319 -18.483  0.00  0.00     0.275 HD
ENDBRANCH   1  10
BRANCH   1  14
HETATM   14  C           1     -26.818  -6.180 -19.474  0.00  0.00     0.249 C 
HETATM   15  O           1     -27.498  -5.759 -20.379  0.00  0.00    -0.271 OA
HETATM   16  N           1     -27.284  -6.129 -18.187  0.00  0.00    -0.344 N 
HETATM   17  H           1     -26.713  -6.481 -17.429  0.00  0.00     0.163 HD
BRANCH  16  18
HETATM   18  C           1     -28.594  -5.571 -17.912  0.00  0.00     0.189 C 
BRANCH  18  19
HETATM   19  C           1     -29.372  -6.522 -17.013  0.00  0.00     0.014 C 
HETATM   20  C           1     -30.800  -6.014 -16.853  0.00  0.00     0.012 C 
BRANCH  19  21
HETATM   21  C           1     -29.397  -7.909 -17.643  0.00  0.00     0.002 C 
HETATM   22  C           1     -30.377  -7.920 -18.810  0.00  0.00     0.005 C 
ENDBRANCH  19  21
ENDBRANCH  18  19
BRANCH  18  23
HETATM   23  C           1     -28.436  -4.240 -17.218  0.00  0.00     0.197 C 
HETATM   24  O           1     -27.737  -4.154 -16.185  0.00  0.00    -0.646 OA
HETATM   25  O           1     -29.003  -3.224 -17.676  0.00  0.00    -0.646 OA
ENDBRANCH  18  23
ENDBRANCH  16  18
ENDBRANCH   1  14
TORSDOF 8
ENDMDL
MODEL 5
REMARK VINA RESULT:      -6.2     11.523     13.749
REMARK  8 active torsions:
REMARK  status: ('A' for Active; 'I' for Inactive)
REMARK    1  A    between atoms: C_2  and  C_12 
REMARK    2  A    between atoms: C_2  and  C_3 
REMARK    3  A    between atoms: N_7  and  C_12 
REMARK    4  A    between atoms: C_10  and  C_24 
REMARK    5  A    between atoms: C_12  and  C_20 
REMARK    6  A    between atoms: C_15  and  C_24 
REMARK    7  A    between atoms: C_15  and  C_16 
REMARK    8  A    between atoms: C_15  and  N_19 
REMARK       I    between atoms: N_19  and  C_20 
ROOT
HETATM    1  C           1     -21.820  -5.097  -7.604  0.00  0.00     0.280 C 
ENDROOT
BRANCH   1   2
HETATM    2  C           1     -21.025  -4.040  -8.358  0.00  0.00     0.101 C 
BRANCH   2   3
HETATM    3  C           1     -21.366  -4.102  -9.814  0.00  0.00     0.028 A 
HETATM    4  C           1     -20.561  -3.635 -10.826  0.00  0.00     0.114 A 
HETATM    5  N           1     -21.253  -3.892 -11.977  0.00  0.00    -0.360 N 
HETATM    6  H           1     -20.939  -3.668 -12.954  0.00  0.00     0.166 HD
HETATM    7  C           1     -22.428  -4.494 -11.624  0.00  0.00     0.180 A 
HETATM    8  N           1     -22.524  -4.634 -10.322  0.00  0.00    -0.355 N 
ATOM      9  HN          1     -23.295  -5.050  -9.800  1.00  0.00     0.166 HD
ENDBRANCH   2   3
ENDBRANCH   1   2
BRANCH   1  10
HETATM   10  N           1     -22.925  -4.436  -6.834  0.00  0.00    -0.066 N 
HETATM   11  H           1     -22.909  -3.407  -7.017  0.00  0.00     0.275 HD
HETATM   12  H           1     -23.844  -4.829  -7.136  0.00  0.00     0.275 HD
HETATM   13  H           1     -22.789  -4.612  -5.813  0.00  0.00     0.275 HD
ENDBRANCH   1  10
BRANCH   1  14
HETATM   14  C           1     -20.909  -5.828  -6.649  0.00  0.00     0.249 C 
HETATM   15  O           1     -19.713  -5.676  -6.719  0.00  0.00    -0.271 OA
HETATM   16  N           1     -21.438  -6.664  -5.702  0.00  0.00    -0.344 N 
HETATM   17  H           1     -22.440  -6.792  -5.643  0.00  0.00     0.163 HD
BRANCH  16  18
HETATM   18  C           1     -20.562  -7.366  -4.784  0.00  0.00     0.189 C 
BRANCH  18  19
HETATM   19  C           1     -21.295  -7.617  -3.474  0.00  0.00     0.014 C 
HETATM   20  C           1     -20.334  -8.231  -2.464  0.00  0.00     0.012 C 
BRANCH  19  21
HETATM   21  C           1     -21.826  -6.297  -2.928  0.00  0.00     0.002 C 
HETATM   22  C           1     -22.246  -6.480  -1.475  0.00  0.00     0.005 C 
ENDBRANCH  19  21
ENDBRANCH  18  19
BRANCH  18  23
HETATM   23  C           1     -20.153  -8.685  -5.392  0.00  0.00     0.197 C 
HETATM   24  O           1     -21.020  -9.547  -5.657  0.00  0.00    -0.646 OA
HETATM   25  O           1     -18.947  -8.918  -5.631  0.00  0.00    -0.646 OA
ENDBRANCH  18  23
ENDBRANCH  16  18
ENDBRANCH   1  14
TORSDOF 8
ENDMDL
MODEL 6
REMARK VINA RESULT:      -6.2     12.139     14.671
REMARK  8 active torsions:
REMARK  status: ('A' for Active; 'I' for Inactive)
REMARK    1  A    between atoms: C_2  and  C_12 
REMARK    2  A    between atoms: C_2  and  C_3 
REMARK    3  A    between atoms: N_7  and  C_12 
REMARK    4  A    between atoms: C_10  and  C_24 
REMARK    5  A    between atoms: C_12  and  C_20 
REMARK    6  A    between atoms: C_15  and  C_24 
REMARK    7  A    between atoms: C_15  and  C_16 
REMARK    8  A    between atoms: C_15  and  N_19 
REMARK       I    between atoms: N_19  and  C_20 
ROOT
HETATM    1  C           1     -21.199  -4.826  -6.516  0.00  0.00     0.280 C 
ENDROOT
BRANCH   1   2
HETATM    2  C           1     -21.329  -5.371  -7.932  0.00  0.00     0.101 C 
BRANCH   2   3
HETATM    3  C           1     -22.353  -4.576  -8.681  0.00  0.00     0.028 A 
HETATM    4  C           1     -22.218  -4.158  -9.984  0.00  0.00     0.114 A 
HETATM    5  N           1     -23.371  -3.477 -10.258  0.00  0.00    -0.360 N 
HETATM    6  H           1     -23.617  -3.012 -11.168  0.00  0.00     0.166 HD
HETATM    7  C           1     -24.145  -3.508  -9.133  0.00  0.00     0.180 A 
HETATM    8  N           1     -23.555  -4.167  -8.162  0.00  0.00    -0.355 N 
ATOM      9  HN          1     -23.914  -4.337  -7.223  1.00  0.00     0.166 HD
ENDBRANCH   2   3
ENDBRANCH   1   2
BRANCH   1  10
HETATM   10  N           1     -19.748  -4.644  -6.182  0.00  0.00    -0.066 N 
HETATM   11  H           1     -19.233  -5.533  -6.373  0.00  0.00     0.275 HD
HETATM   12  H           1     -19.349  -3.878  -6.770  0.00  0.00     0.275 HD
HETATM   13  H           1     -19.653  -4.395  -5.172  0.00  0.00     0.275 HD
ENDBRANCH   1  10
BRANCH   1  14
HETATM   14  C           1     -21.820  -5.799  -5.544  0.00  0.00     0.249 C 
HETATM   15  O           1     -23.022  -5.901  -5.476  0.00  0.00    -0.271 OA
HETATM   16  N           1     -21.021  -6.565  -4.737  0.00  0.00    -0.344 N 
HETATM   17  H           1     -20.014  -6.478  -4.793  0.00  0.00     0.163 HD
BRANCH  16  18
HETATM   18  C           1     -21.618  -7.499  -3.802  0.00  0.00     0.189 C 
BRANCH  18  19
HETATM   19  C           1     -20.814  -8.792  -3.793  0.00  0.00     0.014 C 
HETATM   20  C           1     -21.714  -9.951  -4.204  0.00  0.00     0.012 C 
BRANCH  19  21
HETATM   21  C           1     -19.657  -8.677  -4.777  0.00  0.00     0.002 C 
HETATM   22  C           1     -18.415  -9.324  -4.178  0.00  0.00     0.005 C 
ENDBRANCH  19  21
ENDBRANCH  18  19
BRANCH  18  23
HETATM   23  C           1     -21.614  -6.895  -2.419  0.00  0.00     0.197 C 
HETATM   24  O           1     -22.302  -5.878  -2.179  0.00  0.00    -0.646 OA
HETATM   25  O           1     -20.923  -7.410  -1.513  0.00  0.00    -0.646 OA
ENDBRANCH  18  23
ENDBRANCH  16  18
ENDBRANCH   1  14
TORSDOF 8
ENDMDL
MODEL 7
REMARK VINA RESULT:      -5.8      1.702      2.262
REMARK  8 active torsions:
REMARK  status: ('A' for Active; 'I' for Inactive)
REMARK    1  A    between atoms: C_2  and  C_12 
REMARK    2  A    between atoms: C_2  and  C_3 
REMARK    3  A    between atoms: N_7  and  C_12 
REMARK    4  A    between atoms: C_10  and  C_24 
REMARK    5  A    between atoms: C_12  and  C_20 
REMARK    6  A    between atoms: C_15  and  C_24 
REMARK    7  A    between atoms: C_15  and  C_16 
REMARK    8  A    between atoms: C_15  and  N_19 
REMARK       I    between atoms: N_19  and  C_20 
ROOT
HETATM    1  C           1     -24.480  -6.913 -17.575  0.00  0.00     0.280 C 
ENDROOT
BRANCH   1   2
HETATM    2  C           1     -24.871  -7.182 -19.022  0.00  0.00     0.101 C 
BRANCH   2   3
HETATM    3  C           1     -23.683  -7.697 -19.773  0.00  0.00     0.028 A 
HETATM    4  C           1     -22.375  -7.484 -19.408  0.00  0.00     0.114 A 
HETATM    5  N           1     -21.632  -8.124 -20.361  0.00  0.00    -0.360 N 
HETATM    6  H           1     -20.583  -8.171 -20.403  0.00  0.00     0.166 HD
HETATM    7  C           1     -22.501  -8.689 -21.249  0.00  0.00     0.180 A 
HETATM    8  N           1     -23.750  -8.448 -20.919  0.00  0.00    -0.355 N 
ATOM      9  HN          1     -24.589  -8.754 -21.410  1.00  0.00     0.166 HD
ENDBRANCH   2   3
ENDBRANCH   1   2
BRANCH   1  10
HETATM   10  N           1     -24.168  -8.212 -16.893  0.00  0.00    -0.066 N 
HETATM   11  H           1     -23.341  -8.657 -17.351  0.00  0.00     0.275 HD
HETATM   12  H           1     -23.954  -8.034 -15.886  0.00  0.00     0.275 HD
HETATM   13  H           1     -24.993  -8.850 -16.966  0.00  0.00     0.275 HD
ENDBRANCH   1  10
BRANCH   1  14
HETATM   14  C           1     -25.623  -6.233 -16.863  0.00  0.00     0.249 C 
HETATM   15  O           1     -25.399  -5.465 -15.958  0.00  0.00    -0.271 OA
HETATM   16  N           1     -26.914  -6.487 -17.242  0.00  0.00    -0.344 N 
HETATM   17  H           1     -27.101  -7.131 -17.999  0.00  0.00     0.163 HD
BRANCH  16  18
HETATM   18  C           1     -28.012  -5.834 -16.556  0.00  0.00     0.189 C 
BRANCH  18  19
HETATM   19  C           1     -29.226  -5.784 -17.475  0.00  0.00     0.014 C 
HETATM   20  C           1     -29.088  -4.607 -18.433  0.00  0.00     0.012 C 
BRANCH  19  21
HETATM   21  C           1     -29.313  -7.079 -18.272  0.00  0.00     0.002 C 
HETATM   22  C           1     -30.765  -7.535 -18.343  0.00  0.00     0.005 C 
ENDBRANCH  19  21
ENDBRANCH  18  19
BRANCH  18  23
HETATM   23  C           1     -28.357  -6.609 -15.309  0.00  0.00     0.197 C 
HETATM   24  O           1     -27.810  -7.712 -15.088  0.00  0.00    -0.646 OA
HETATM   25  O           1     -29.190  -6.150 -14.496  0.00  0.00    -0.646 OA
ENDBRANCH  18  23
ENDBRANCH  16  18
ENDBRANCH   1  14
TORSDOF 8
ENDMDL
MODEL 8
REMARK VINA RESULT:      -5.6     14.841     17.171
REMARK  8 active torsions:
REMARK  status: ('A' for Active; 'I' for Inactive)
REMARK    1  A    between atoms: C_2  and  C_12 
REMARK    2  A    between atoms: C_2  and  C_3 
REMARK    3  A    between atoms: N_7  and  C_12 
REMARK    4  A    between atoms: C_10  and  C_24 
REMARK    5  A    between atoms: C_12  and  C_20 
REMARK    6  A    between atoms: C_15  and  C_24 
REMARK    7  A    between atoms: C_15  and  C_16 
REMARK    8  A    between atoms: C_15  and  N_19 
REMARK       I    between atoms: N_19  and  C_20 
ROOT
HETATM    1  C           1     -20.856  -7.209  -3.455  0.00  0.00     0.280 C 
ENDROOT
BRANCH   1   2
HETATM    2  C           1     -21.816  -6.727  -4.535  0.00  0.00     0.101 C 
BRANCH   2   3
HETATM    3  C           1     -21.042  -6.056  -5.627  0.00  0.00     0.028 A 
HETATM    4  C           1     -20.329  -4.890  -5.477  0.00  0.00     0.114 A 
HETATM    5  N           1     -19.789  -4.645  -6.708  0.00  0.00    -0.360 N 
HETATM    6  H           1     -19.178  -3.829  -6.968  0.00  0.00     0.166 HD
HETATM    7  C           1     -20.187  -5.651  -7.541  0.00  0.00     0.180 A 
HETATM    8  N           1     -20.947  -6.521  -6.914  0.00  0.00    -0.355 N 
ATOM      9  HN          1     -21.374  -7.361  -7.302  1.00  0.00     0.166 HD
ENDBRANCH   2   3
ENDBRANCH   1   2
BRANCH   1  10
HETATM   10  N           1     -20.081  -8.388  -3.966  0.00  0.00    -0.066 N 
HETATM   11  H           1     -19.880  -8.258  -4.983  0.00  0.00     0.275 HD
HETATM   12  H           1     -19.181  -8.467  -3.441  0.00  0.00     0.275 HD
HETATM   13  H           1     -20.642  -9.258  -3.829  0.00  0.00     0.275 HD
ENDBRANCH   1  10
BRANCH   1  14
HETATM   14  C           1     -21.639  -7.615  -2.231  0.00  0.00     0.249 C 
HETATM   15  O           1     -22.306  -6.799  -1.642  0.00  0.00    -0.271 OA
HETATM   16  N           1     -21.593  -8.910  -1.787  0.00  0.00    -0.344 N 
HETATM   17  H           1     -21.033  -9.594  -2.281  0.00  0.00     0.163 HD
BRANCH  16  18
HETATM   18  C           1     -22.344  -9.300  -0.610  0.00  0.00     0.189 C 
BRANCH  18  19
HETATM   19  C           1     -22.826 -10.736  -0.768  0.00  0.00     0.014 C 
HETATM   20  C           1     -24.161 -10.904  -0.052  0.00  0.00     0.012 C 
BRANCH  19  21
HETATM   21  C           1     -23.003 -11.052  -2.248  0.00  0.00     0.002 C 
HETATM   22  C           1     -22.691 -12.523  -2.494  0.00  0.00     0.005 C 
ENDBRANCH  19  21
ENDBRANCH  18  19
BRANCH  18  23
HETATM   23  C           1     -21.458  -9.199   0.607  0.00  0.00     0.197 C 
HETATM   24  O           1     -21.496  -8.176   1.325  0.00  0.00    -0.646 OA
HETATM   25  O           1     -20.685 -10.138   0.899  0.00  0.00    -0.646 OA
ENDBRANCH  18  23
ENDBRANCH  16  18
ENDBRANCH   1  14
TORSDOF 8
ENDMDL
MODEL 9
REMARK VINA RESULT:      -5.5     12.783     15.309
REMARK  8 active torsions:
REMARK  status: ('A' for Active; 'I' for Inactive)
REMARK    1  A    between atoms: C_2  and  C_12 
REMARK    2  A    between atoms: C_2  and  C_3 
REMARK    3  A    between atoms: N_7  and  C_12 
REMARK    4  A    between atoms: C_10  and  C_24 
REMARK    5  A    between atoms: C_12  and  C_20 
REMARK    6  A    between atoms: C_15  and  C_24 
REMARK    7  A    between atoms: C_15  and  C_16 
REMARK    8  A    between atoms: C_15  and  N_19 
REMARK       I    between atoms: N_19  and  C_20 
ROOT
HETATM    1  C           1     -21.646  -6.321  -5.547  0.00  0.00     0.280 C 
ENDROOT
BRANCH   1   2
HETATM    2  C           1     -21.084  -5.014  -6.090  0.00  0.00     0.101 C 
BRANCH   2   3
HETATM    3  C           1     -21.792  -4.654  -7.358  0.00  0.00     0.028 A 
HETATM    4  C           1     -21.225  -4.697  -8.609  0.00  0.00     0.114 A 
HETATM    5  N           1     -22.215  -4.295  -9.462  0.00  0.00    -0.360 N 
HETATM    6  H           1     -22.138  -4.206 -10.506  0.00  0.00     0.166 HD
HETATM    7  C           1     -23.322  -4.028  -8.709  0.00  0.00     0.180 A 
HETATM    8  N           1     -23.097  -4.237  -7.432  0.00  0.00    -0.355 N 
ATOM      9  HN          1     -23.752  -4.115  -6.660  1.00  0.00     0.166 HD
ENDBRANCH   2   3
ENDBRANCH   1   2
BRANCH   1  10
HETATM   10  N           1     -22.164  -6.102  -4.156  0.00  0.00    -0.066 N 
HETATM   11  H           1     -21.507  -6.535  -3.468  0.00  0.00     0.275 HD
HETATM   12  H           1     -22.238  -5.076  -3.969  0.00  0.00     0.275 HD
HETATM   13  H           1     -23.107  -6.541  -4.062  0.00  0.00     0.275 HD
ENDBRANCH   1  10
BRANCH   1  14
HETATM   14  C           1     -20.557  -7.365  -5.519  0.00  0.00     0.249 C 
HETATM   15  O           1     -19.663  -7.326  -6.329  0.00  0.00    -0.271 OA
HETATM   16  N           1     -20.584  -8.358  -4.576  0.00  0.00    -0.344 N 
HETATM   17  H           1     -21.335  -8.390  -3.897  0.00  0.00     0.163 HD
BRANCH  16  18
HETATM   18  C           1     -19.538  -9.361  -4.550  0.00  0.00     0.189 C 
BRANCH  18  19
HETATM   19  C           1     -19.118  -9.619  -3.109  0.00  0.00     0.014 C 
HETATM   20  C           1     -17.617  -9.396  -2.971  0.00  0.00     0.012 C 
BRANCH  19  21
HETATM   21  C           1     -19.859  -8.662  -2.185  0.00  0.00     0.002 C 
HETATM   22  C           1     -20.676  -9.460  -1.176  0.00  0.00     0.005 C 
ENDBRANCH  19  21
ENDBRANCH  18  19
BRANCH  18  23
HETATM   23  C           1     -20.056 -10.641  -5.159  0.00  0.00     0.197 C 
HETATM   24  O           1     -19.916 -10.851  -6.384  0.00  0.00    -0.646 OA
HETATM   25  O           1     -20.625 -11.491  -4.440  0.00  0.00    -0.646 OA
ENDBRANCH  18  23
ENDBRANCH  16  18
ENDBRANCH   1  14
TORSDOF 8
ENDMDL
