MODEL 1
REMARK VINA RESULT:      -7.8      0.000      0.000
REMARK  13 active torsions:
REMARK  status: ('A' for Active; 'I' for Inactive)
REMARK       I    between atoms: N_9  and  C_10 
REMARK       I    between atoms: C_10  and  N_11 
REMARK    1  A    between atoms: N_12  and  C_13 
REMARK    2  A    between atoms: C_13  and  C_14 
REMARK    3  A    between atoms: C_14  and  C_15 
REMARK    4  A    between atoms: C_15  and  C_16 
REMARK    5  A    between atoms: C_16  and  C_17 
REMARK    6  A    between atoms: C_16  and  N_20 
REMARK       I    between atoms: N_20  and  C_21 
REMARK    7  A    between atoms: C_21  and  C_22 
REMARK    8  A    between atoms: C_22  and  C_23 
REMARK    9  A    between atoms: C_22  and  N_35 
REMARK   10  A    between atoms: C_23  and  C_24 
REMARK   11  A    between atoms: C_27  and  O_28 
REMARK   12  A    between atoms: O_28  and  P_29 
REMARK   13  A    between atoms: P_29  and  O_30 
ROOT
HETATM    1  O           1     -19.645  -7.723  -5.909  0.00  0.00    -0.271 OA
HETATM    2  H           1     -21.693  -8.457  -3.649  0.00  0.00     0.163 HD
HETATM    3  N           1     -20.949  -8.597  -4.321  0.00  0.00    -0.345 N 
HETATM    4  C           1     -20.533  -7.557  -5.107  0.00  0.00     0.249 C 
ENDROOT
BRANCH   4   5
HETATM    5  C           1     -21.184  -6.202  -4.971  0.00  0.00     0.278 C 
BRANCH   5   6
HETATM    6  C           1     -20.284  -5.141  -5.592  0.00  0.00     0.081 C 
BRANCH   6   7
HETATM    7  C           1     -20.828  -4.743  -6.928  0.00  0.00    -0.056 A 
HETATM    8  C           1     -22.146  -4.303  -7.042  0.00  0.00     0.010 A 
HETATM    9  C           1     -22.654  -3.932  -8.286  0.00  0.00     0.038 A 
HETATM   10  C           1     -21.841  -4.000  -9.418  0.00  0.00     0.081 A 
HETATM   11  C           1     -20.523  -4.440  -9.306  0.00  0.00     0.038 A 
HETATM   12  C           1     -20.016  -4.811  -8.060  0.00  0.00     0.010 A 
BRANCH  10  13
HETATM   13  O           1     -22.334  -3.639 -10.628  0.00  0.00    -0.247 OA
BRANCH  13  14
HETATM   14  P           1     -23.712  -4.323 -11.119  0.00  0.00     0.411 P 
HETATM   15  O           1     -23.984  -5.527 -10.301  0.00  0.00    -0.624 OA
HETATM   16  O           1     -24.824  -3.359 -10.964  0.00  0.00    -0.624 OA
BRANCH  14  17
HETATM   17  O           1     -23.581  -4.747 -12.671  0.00  0.00    -0.300 OA
HETATM   18  H           1     -24.370  -4.431 -13.079  0.00  0.00     0.223 HD
ENDBRANCH  14  17
ENDBRANCH  13  14
ENDBRANCH  10  13
ENDBRANCH   6   7
ENDBRANCH   5   6
BRANCH   5  19
HETATM   19  N           1     -21.393  -5.891  -3.519  0.00  0.00    -0.066 N 
HETATM   20  H           1     -21.815  -6.720  -3.042  0.00  0.00     0.275 HD
HETATM   21  H           1     -20.473  -5.666  -3.076  0.00  0.00     0.275 HD
HETATM   22  H           1     -22.035  -5.072  -3.427  0.00  0.00     0.275 HD
ENDBRANCH   5  19
ENDBRANCH   4   5
BRANCH   3  23
HETATM   23  C           1     -20.324  -9.899  -4.449  0.00  0.00     0.185 C 
BRANCH  23  24
HETATM   24  C           1     -20.052 -10.471  -3.065  0.00  0.00     0.038 C 
BRANCH  24  25
HETATM   25  C           1     -20.499  -9.473  -2.005  0.00  0.00     0.023 C 
BRANCH  25  26
HETATM   26  C           1     -21.333 -10.189  -0.951  0.00  0.00     0.138 C 
BRANCH  26  27
HETATM   27  N           1     -22.516  -9.379  -0.628  0.00  0.00    -0.227 N 
HETATM   28  H           1     -23.378  -9.447  -1.222  0.00  0.00     0.177 HD
HETATM   29  C           1     -22.495  -8.600   0.370  0.00  0.00     0.665 C 
HETATM   30  N           1     -23.542  -7.885   0.658  0.00  0.00    -0.235 N 
HETATM   31  N           1     -21.456  -8.518   1.089  0.00  0.00    -0.235 N 
HETATM   32  H           1     -24.399  -7.952   0.064  0.00  0.00     0.174 HD
HETATM   33  H           1     -23.525  -7.241   1.481  0.00  0.00     0.174 HD
HETATM   34  H           1     -21.440  -7.872   1.916  0.00  0.00     0.174 HD
HETATM   35  H           1     -20.611  -9.097   0.857  0.00  0.00     0.174 HD
ENDBRANCH  26  27
ENDBRANCH  25  26
ENDBRANCH  24  25
ENDBRANCH  23  24
BRANCH  23  36
HETATM   36  C           1     -21.244 -10.826  -5.205  0.00  0.00     0.196 C 
HETATM   37  O           1     -21.203 -10.866  -6.454  0.00  0.00    -0.646 OA
HETATM   38  O           1     -22.047 -11.553  -4.583  0.00  0.00    -0.646 OA
ENDBRANCH  23  36
ENDBRANCH   3  23
TORSDOF 13
ENDMDL
MODEL 2
REMARK VINA RESULT:      -7.6      2.135      3.854
REMARK  13 active torsions:
REMARK  status: ('A' for Active; 'I' for Inactive)
REMARK       I    between atoms: N_9  and  C_10 
REMARK       I    between atoms: C_10  and  N_11 
REMARK    1  A    between atoms: N_12  and  C_13 
REMARK    2  A    between atoms: C_13  and  C_14 
REMARK    3  A    between atoms: C_14  and  C_15 
REMARK    4  A    between atoms: C_15  and  C_16 
REMARK    5  A    between atoms: C_16  and  C_17 
REMARK    6  A    between atoms: C_16  and  N_20 
REMARK       I    between atoms: N_20  and  C_21 
REMARK    7  A    between atoms: C_21  and  C_22 
REMARK    8  A    between atoms: C_22  and  C_23 
REMARK    9  A    between atoms: C_22  and  N_35 
REMARK   10  A    between atoms: C_23  and  C_24 
REMARK   11  A    between atoms: C_27  and  O_28 
REMARK   12  A    between atoms: O_28  and  P_29 
REMARK   13  A    between atoms: P_29  and  O_30 
ROOT
HETATM    1  O           1     -20.628  -8.639  -5.627  0.00  0.00    -0.271 OA
HETATM    2  H           1     -20.505  -7.591  -2.673  0.00  0.00     0.163 HD
HETATM    3  N           1     -20.376  -8.231  -3.447  0.00  0.00    -0.345 N 
HETATM    4  C           1     -20.781  -7.874  -4.705  0.00  0.00     0.249 C 
ENDROOT
BRANCH   4   5
HETATM    5  C           1     -21.418  -6.526  -4.938  0.00  0.00     0.278 C 
BRANCH   5   6
HETATM    6  C           1     -20.397  -5.581  -5.557  0.00  0.00     0.081 C 
BRANCH   6   7
HETATM    7  C           1     -20.913  -5.076  -6.867  0.00  0.00    -0.056 A 
HETATM    8  C           1     -22.180  -4.497  -6.942  0.00  0.00     0.010 A 
HETATM    9  C           1     -22.661  -4.025  -8.163  0.00  0.00     0.038 A 
HETATM   10  C           1     -21.874  -4.132  -9.310  0.00  0.00     0.081 A 
HETATM   11  C           1     -20.607  -4.709  -9.236  0.00  0.00     0.038 A 
HETATM   12  C           1     -20.127  -5.181  -8.014  0.00  0.00     0.010 A 
BRANCH  10  13
HETATM   13  O           1     -22.341  -3.674 -10.496  0.00  0.00    -0.247 OA
BRANCH  13  14
HETATM   14  P           1     -23.704  -4.320 -11.074  0.00  0.00     0.411 P 
HETATM   15  O           1     -24.024  -5.552 -10.319  0.00  0.00    -0.624 OA
HETATM   16  O           1     -24.811  -3.349 -10.928  0.00  0.00    -0.624 OA
BRANCH  14  17
HETATM   17  O           1     -23.509  -4.682 -12.635  0.00  0.00    -0.300 OA
HETATM   18  H           1     -22.676  -5.120 -12.682  0.00  0.00     0.223 HD
ENDBRANCH  14  17
ENDBRANCH  13  14
ENDBRANCH  10  13
ENDBRANCH   6   7
ENDBRANCH   5   6
BRANCH   5  19
HETATM   19  N           1     -21.891  -5.964  -3.630  0.00  0.00    -0.066 N 
HETATM   20  H           1     -21.903  -6.722  -2.909  0.00  0.00     0.275 HD
HETATM   21  H           1     -21.241  -5.204  -3.324  0.00  0.00     0.275 HD
HETATM   22  H           1     -22.854  -5.576  -3.745  0.00  0.00     0.275 HD
ENDBRANCH   5  19
ENDBRANCH   4   5
BRANCH   3  23
HETATM   23  C           1     -19.763  -9.526  -3.221  0.00  0.00     0.185 C 
BRANCH  23  24
HETATM   24  C           1     -18.253  -9.362  -3.123  0.00  0.00     0.038 C 
BRANCH  24  25
HETATM   25  C           1     -17.593  -9.975  -4.351  0.00  0.00     0.023 C 
BRANCH  25  26
HETATM   26  C           1     -18.223 -11.330  -4.643  0.00  0.00     0.138 C 
BRANCH  26  27
HETATM   27  N           1     -18.013 -11.674  -6.057  0.00  0.00    -0.227 N 
HETATM   28  H           1     -17.051 -11.913  -6.402  0.00  0.00     0.177 HD
HETATM   29  C           1     -18.993 -11.683  -6.858  0.00  0.00     0.665 C 
HETATM   30  N           1     -18.807 -11.989  -8.108  0.00  0.00    -0.235 N 
HETATM   31  N           1     -20.154 -11.396  -6.443  0.00  0.00    -0.235 N 
HETATM   32  H           1     -17.849 -12.226  -8.451  0.00  0.00     0.174 HD
HETATM   33  H           1     -19.616 -11.996  -8.770  0.00  0.00     0.174 HD
HETATM   34  H           1     -20.966 -11.404  -7.108  0.00  0.00     0.174 HD
HETATM   35  H           1     -20.304 -11.150  -5.433  0.00  0.00     0.174 HD
ENDBRANCH  26  27
ENDBRANCH  25  26
ENDBRANCH  24  25
ENDBRANCH  23  24
BRANCH  23  36
HETATM   36  C           1     -20.291 -10.115  -1.936  0.00  0.00     0.196 C 
HETATM   37  O           1     -19.549 -10.824  -1.223  0.00  0.00    -0.646 OA
HETATM   38  O           1     -21.470  -9.896  -1.586  0.00  0.00    -0.646 OA
ENDBRANCH  23  36
ENDBRANCH   3  23
TORSDOF 13
ENDMDL
MODEL 3
REMARK VINA RESULT:      -7.4      2.456      3.998
REMARK  13 active torsions:
REMARK  status: ('A' for Active; 'I' for Inactive)
REMARK       I    between atoms: N_9  and  C_10 
REMARK       I    between atoms: C_10  and  N_11 
REMARK    1  A    between atoms: N_12  and  C_13 
REMARK    2  A    between atoms: C_13  and  C_14 
REMARK    3  A    between atoms: C_14  and  C_15 
REMARK    4  A    between atoms: C_15  and  C_16 
REMARK    5  A    between atoms: C_16  and  C_17 
REMARK    6  A    between atoms: C_16  and  N_20 
REMARK       I    between atoms: N_20  and  C_21 
REMARK    7  A    between atoms: C_21  and  C_22 
REMARK    8  A    between atoms: C_22  and  C_23 
REMARK    9  A    between atoms: C_22  and  N_35 
REMARK   10  A    between atoms: C_23  and  C_24 
REMARK   11  A    between atoms: C_27  and  O_28 
REMARK   12  A    between atoms: O_28  and  P_29 
REMARK   13  A    between atoms: P_29  and  O_30 
ROOT
HETATM    1  O           1     -19.493  -7.676  -6.046  0.00  0.00    -0.271 OA
HETATM    2  H           1     -20.699  -8.033  -3.172  0.00  0.00     0.163 HD
HETATM    3  N           1     -20.128  -8.242  -3.982  0.00  0.00    -0.345 N 
HETATM    4  C           1     -20.173  -7.426  -5.080  0.00  0.00     0.249 C 
ENDROOT
BRANCH   4   5
HETATM    5  C           1     -21.074  -6.215  -5.084  0.00  0.00     0.278 C 
BRANCH   5   6
HETATM    6  C           1     -20.310  -5.015  -5.627  0.00  0.00     0.081 C 
BRANCH   6   7
HETATM    7  C           1     -20.845  -4.650  -6.975  0.00  0.00    -0.056 A 
HETATM    8  C           1     -20.048  -4.806  -8.109  0.00  0.00     0.010 A 
HETATM    9  C           1     -20.547  -4.466  -9.366  0.00  0.00     0.038 A 
HETATM   10  C           1     -21.845  -3.970  -9.489  0.00  0.00     0.081 A 
HETATM   11  C           1     -22.643  -3.814  -8.357  0.00  0.00     0.038 A 
HETATM   12  C           1     -22.143  -4.154  -7.100  0.00  0.00     0.010 A 
BRANCH  10  13
HETATM   13  O           1     -22.330  -3.640 -10.711  0.00  0.00    -0.247 OA
BRANCH  13  14
HETATM   14  P           1     -23.706  -4.334 -11.192  0.00  0.00     0.411 P 
HETATM   15  O           1     -23.981  -5.521 -10.351  0.00  0.00    -0.624 OA
HETATM   16  O           1     -24.819  -3.367 -11.060  0.00  0.00    -0.624 OA
BRANCH  14  17
HETATM   17  O           1     -23.570  -4.789 -12.735  0.00  0.00    -0.300 OA
HETATM   18  H           1     -23.591  -5.731 -12.714  0.00  0.00     0.223 HD
ENDBRANCH  14  17
ENDBRANCH  13  14
ENDBRANCH  10  13
ENDBRANCH   6   7
ENDBRANCH   5   6
BRANCH   5  19
HETATM   19  N           1     -21.528  -5.926  -3.683  0.00  0.00    -0.066 N 
HETATM   20  H           1     -22.086  -6.733  -3.324  0.00  0.00     0.275 HD
HETATM   21  H           1     -20.693  -5.781  -3.071  0.00  0.00     0.275 HD
HETATM   22  H           1     -22.118  -5.064  -3.679  0.00  0.00     0.275 HD
ENDBRANCH   5  19
ENDBRANCH   4   5
BRANCH   3  23
HETATM   23  C           1     -19.263  -9.405  -3.977  0.00  0.00     0.185 C 
BRANCH  23  24
HETATM   24  C           1     -18.819  -9.702  -2.551  0.00  0.00     0.038 C 
BRANCH  24  25
HETATM   25  C           1     -17.455 -10.378  -2.573  0.00  0.00     0.023 C 
BRANCH  25  26
HETATM   26  C           1     -16.573  -9.709  -3.620  0.00  0.00     0.138 C 
BRANCH  26  27
HETATM   27  N           1     -15.557 -10.663  -4.087  0.00  0.00    -0.227 N 
HETATM   28  H           1     -14.809 -10.997  -3.431  0.00  0.00     0.177 HD
HETATM   29  C           1     -15.584 -11.082  -5.281  0.00  0.00     0.665 C 
HETATM   30  N           1     -14.686 -11.927  -5.694  0.00  0.00    -0.235 N 
HETATM   31  N           1     -16.486 -10.680  -6.074  0.00  0.00    -0.235 N 
HETATM   32  H           1     -13.941 -12.258  -5.040  0.00  0.00     0.174 HD
HETATM   33  H           1     -14.708 -12.272  -6.680  0.00  0.00     0.174 HD
HETATM   34  H           1     -16.508 -11.028  -7.064  0.00  0.00     0.174 HD
HETATM   35  H           1     -17.212  -9.999  -5.739  0.00  0.00     0.174 HD
ENDBRANCH  26  27
ENDBRANCH  25  26
ENDBRANCH  24  25
ENDBRANCH  23  24
BRANCH  23  36
HETATM   36  C           1     -20.013 -10.593  -4.528  0.00  0.00     0.196 C 
HETATM   37  O           1     -21.141 -10.885  -4.076  0.00  0.00    -0.646 OA
HETATM   38  O           1     -19.506 -11.285  -5.437  0.00  0.00    -0.646 OA
ENDBRANCH  23  36
ENDBRANCH   3  23
TORSDOF 13
ENDMDL
MODEL 4
REMARK VINA RESULT:      -7.3      1.328      2.083
REMARK  13 active torsions:
REMARK  status: ('A' for Active; 'I' for Inactive)
REMARK       I    between atoms: N_9  and  C_10 
REMARK       I    between atoms: C_10  and  N_11 
REMARK    1  A    between atoms: N_12  and  C_13 
REMARK    2  A    between atoms: C_13  and  C_14 
REMARK    3  A    between atoms: C_14  and  C_15 
REMARK    4  A    between atoms: C_15  and  C_16 
REMARK    5  A    between atoms: C_16  and  C_17 
REMARK    6  A    between atoms: C_16  and  N_20 
REMARK       I    between atoms: N_20  and  C_21 
REMARK    7  A    between atoms: C_21  and  C_22 
REMARK    8  A    between atoms: C_22  and  C_23 
REMARK    9  A    between atoms: C_22  and  N_35 
REMARK   10  A    between atoms: C_23  and  C_24 
REMARK   11  A    between atoms: C_27  and  O_28 
REMARK   12  A    between atoms: O_28  and  P_29 
REMARK   13  A    between atoms: P_29  and  O_30 
ROOT
HETATM    1  O           1     -20.732  -8.187  -5.711  0.00  0.00    -0.271 OA
HETATM    2  H           1     -22.142  -8.568  -2.935  0.00  0.00     0.163 HD
HETATM    3  N           1     -21.623  -8.824  -3.766  0.00  0.00    -0.345 N 
HETATM    4  C           1     -21.350  -7.881  -4.719  0.00  0.00     0.249 C 
ENDROOT
BRANCH   4   5
HETATM    5  C           1     -21.821  -6.460  -4.531  0.00  0.00     0.278 C 
BRANCH   5   6
HETATM    6  C           1     -20.739  -5.498  -5.004  0.00  0.00     0.081 C 
BRANCH   6   7
HETATM    7  C           1     -21.104  -4.958  -6.351  0.00  0.00    -0.056 A 
HETATM    8  C           1     -20.107  -4.506  -7.216  0.00  0.00     0.010 A 
HETATM    9  C           1     -20.448  -4.003  -8.471  0.00  0.00     0.038 A 
HETATM   10  C           1     -21.786  -3.951  -8.861  0.00  0.00     0.081 A 
HETATM   11  C           1     -22.783  -4.402  -7.998  0.00  0.00     0.038 A 
HETATM   12  C           1     -22.442  -4.906  -6.742  0.00  0.00     0.010 A 
BRANCH  10  13
HETATM   13  O           1     -22.116  -3.461 -10.081  0.00  0.00    -0.247 OA
BRANCH  13  14
HETATM   14  P           1     -21.057  -3.650 -11.286  0.00  0.00     0.411 P 
HETATM   15  O           1     -20.178  -2.461 -11.360  0.00  0.00    -0.624 OA
HETATM   16  O           1     -20.237  -4.856 -11.037  0.00  0.00    -0.624 OA
BRANCH  14  17
HETATM   17  O           1     -21.851  -3.818 -12.681  0.00  0.00    -0.300 OA
HETATM   18  H           1     -22.587  -4.370 -12.478  0.00  0.00     0.223 HD
ENDBRANCH  14  17
ENDBRANCH  13  14
ENDBRANCH  10  13
ENDBRANCH   6   7
ENDBRANCH   5   6
BRANCH   5  19
HETATM   19  N           1     -22.105  -6.216  -3.079  0.00  0.00    -0.066 N 
HETATM   20  H           1     -22.684  -7.000  -2.700  0.00  0.00     0.275 HD
HETATM   21  H           1     -21.204  -6.165  -2.553  0.00  0.00     0.275 HD
HETATM   22  H           1     -22.624  -5.315  -2.972  0.00  0.00     0.275 HD
ENDBRANCH   5  19
ENDBRANCH   4   5
BRANCH   3  23
HETATM   23  C           1     -21.170 -10.190  -3.945  0.00  0.00     0.185 C 
BRANCH  23  24
HETATM   24  C           1     -20.166 -10.540  -2.855  0.00  0.00     0.038 C 
BRANCH  24  25
HETATM   25  C           1     -20.124  -9.420  -1.825  0.00  0.00     0.023 C 
BRANCH  25  26
HETATM   26  C           1     -20.792  -9.886  -0.539  0.00  0.00     0.138 C 
BRANCH  26  27
HETATM   27  N           1     -21.610  -8.796   0.013  0.00  0.00    -0.227 N 
HETATM   28  H           1     -21.156  -7.899   0.315  0.00  0.00     0.177 HD
HETATM   29  C           1     -22.863  -8.939   0.123  0.00  0.00     0.665 C 
HETATM   30  N           1     -23.587  -7.975   0.610  0.00  0.00    -0.235 N 
HETATM   31  N           1     -23.412 -10.021  -0.241  0.00  0.00    -0.235 N 
HETATM   32  H           1     -23.134  -7.083   0.911  0.00  0.00     0.174 HD
HETATM   33  H           1     -24.621  -8.093   0.701  0.00  0.00     0.174 HD
HETATM   34  H           1     -24.451 -10.139  -0.149  0.00  0.00     0.174 HD
HETATM   35  H           1     -22.827 -10.799  -0.635  0.00  0.00     0.174 HD
ENDBRANCH  26  27
ENDBRANCH  25  26
ENDBRANCH  24  25
ENDBRANCH  23  24
BRANCH  23  36
HETATM   36  C           1     -22.351 -11.126  -3.861  0.00  0.00     0.196 C 
HETATM   37  O           1     -23.092 -11.110  -2.855  0.00  0.00    -0.646 OA
HETATM   38  O           1     -22.587 -11.920  -4.798  0.00  0.00    -0.646 OA
ENDBRANCH  23  36
ENDBRANCH   3  23
TORSDOF 13
ENDMDL
MODEL 5
REMARK VINA RESULT:      -7.2      1.899      3.447
REMARK  13 active torsions:
REMARK  status: ('A' for Active; 'I' for Inactive)
REMARK       I    between atoms: N_9  and  C_10 
REMARK       I    between atoms: C_10  and  N_11 
REMARK    1  A    between atoms: N_12  and  C_13 
REMARK    2  A    between atoms: C_13  and  C_14 
REMARK    3  A    between atoms: C_14  and  C_15 
REMARK    4  A    between atoms: C_15  and  C_16 
REMARK    5  A    between atoms: C_16  and  C_17 
REMARK    6  A    between atoms: C_16  and  N_20 
REMARK       I    between atoms: N_20  and  C_21 
REMARK    7  A    between atoms: C_21  and  C_22 
REMARK    8  A    between atoms: C_22  and  C_23 
REMARK    9  A    between atoms: C_22  and  N_35 
REMARK   10  A    between atoms: C_23  and  C_24 
REMARK   11  A    between atoms: C_27  and  O_28 
REMARK   12  A    between atoms: O_28  and  P_29 
REMARK   13  A    between atoms: P_29  and  O_30 
ROOT
HETATM    1  O           1     -19.980  -8.310  -5.375  0.00  0.00    -0.271 OA
HETATM    2  H           1     -22.458  -8.581  -3.471  0.00  0.00     0.163 HD
HETATM    3  N           1     -21.622  -8.864  -3.967  0.00  0.00    -0.345 N 
HETATM    4  C           1     -20.977  -7.973  -4.782  0.00  0.00     0.249 C 
ENDROOT
BRANCH   4   5
HETATM    5  C           1     -21.513  -6.571  -4.941  0.00  0.00     0.278 C 
BRANCH   5   6
HETATM    6  C           1     -20.448  -5.690  -5.581  0.00  0.00     0.081 C 
BRANCH   6   7
HETATM    7  C           1     -20.962  -5.146  -6.877  0.00  0.00    -0.056 A 
HETATM    8  C           1     -22.224  -4.553  -6.934  0.00  0.00     0.010 A 
HETATM    9  C           1     -22.703  -4.046  -8.141  0.00  0.00     0.038 A 
HETATM   10  C           1     -21.920  -4.131  -9.292  0.00  0.00     0.081 A 
HETATM   11  C           1     -20.659  -4.722  -9.236  0.00  0.00     0.038 A 
HETATM   12  C           1     -20.180  -5.229  -8.028  0.00  0.00     0.010 A 
BRANCH  10  13
HETATM   13  O           1     -22.386  -3.637 -10.465  0.00  0.00    -0.247 OA
BRANCH  13  14
HETATM   14  P           1     -23.715  -4.307 -11.094  0.00  0.00     0.411 P 
HETATM   15  O           1     -24.047  -5.540 -10.345  0.00  0.00    -0.624 OA
HETATM   16  O           1     -24.841  -3.352 -10.998  0.00  0.00    -0.624 OA
BRANCH  14  17
HETATM   17  O           1     -23.452  -4.674 -12.644  0.00  0.00    -0.300 OA
HETATM   18  H           1     -24.139  -5.277 -12.872  0.00  0.00     0.223 HD
ENDBRANCH  14  17
ENDBRANCH  13  14
ENDBRANCH  10  13
ENDBRANCH   6   7
ENDBRANCH   5   6
BRANCH   5  19
HETATM   19  N           1     -21.874  -6.019  -3.594  0.00  0.00    -0.066 N 
HETATM   20  H           1     -22.175  -5.023  -3.695  0.00  0.00     0.275 HD
HETATM   21  H           1     -22.657  -6.579  -3.188  0.00  0.00     0.275 HD
HETATM   22  H           1     -21.043  -6.071  -2.962  0.00  0.00     0.275 HD
ENDBRANCH   5  19
ENDBRANCH   4   5
BRANCH   3  23
HETATM   23  C           1     -21.108 -10.211  -3.813  0.00  0.00     0.185 C 
BRANCH  23  24
HETATM   24  C           1     -20.118 -10.248  -2.657  0.00  0.00     0.038 C 
BRANCH  24  25
HETATM   25  C           1     -19.144 -11.401  -2.858  0.00  0.00     0.023 C 
BRANCH  25  26
HETATM   26  C           1     -18.802 -11.525  -4.336  0.00  0.00     0.138 C 
BRANCH  26  27
HETATM   27  N           1     -17.485 -10.921  -4.588  0.00  0.00    -0.227 N 
HETATM   28  H           1     -16.730 -10.986  -3.862  0.00  0.00     0.177 HD
HETATM   29  C           1     -17.262 -10.324  -5.682  0.00  0.00     0.665 C 
HETATM   30  N           1     -16.097  -9.792  -5.905  0.00  0.00    -0.235 N 
HETATM   31  N           1     -18.172 -10.247  -6.559  0.00  0.00    -0.235 N 
HETATM   32  H           1     -15.347  -9.855  -5.182  0.00  0.00     0.174 HD
HETATM   33  H           1     -15.913  -9.298  -6.808  0.00  0.00     0.174 HD
HETATM   34  H           1     -17.986  -9.752  -7.466  0.00  0.00     0.174 HD
HETATM   35  H           1     -19.112 -10.678  -6.378  0.00  0.00     0.174 HD
ENDBRANCH  26  27
ENDBRANCH  25  26
ENDBRANCH  24  25
ENDBRANCH  23  24
BRANCH  23  36
HETATM   36  C           1     -22.250 -11.155  -3.529  0.00  0.00     0.196 C 
HETATM   37  O           1     -22.432 -12.153  -4.260  0.00  0.00    -0.646 OA
HETATM   38  O           1     -23.013 -10.940  -2.563  0.00  0.00    -0.646 OA
ENDBRANCH  23  36
ENDBRANCH   3  23
TORSDOF 13
ENDMDL
MODEL 6
REMARK VINA RESULT:      -7.1      1.787      2.313
REMARK  13 active torsions:
REMARK  status: ('A' for Active; 'I' for Inactive)
REMARK       I    between atoms: N_9  and  C_10 
REMARK       I    between atoms: C_10  and  N_11 
REMARK    1  A    between atoms: N_12  and  C_13 
REMARK    2  A    between atoms: C_13  and  C_14 
REMARK    3  A    between atoms: C_14  and  C_15 
REMARK    4  A    between atoms: C_15  and  C_16 
REMARK    5  A    between atoms: C_16  and  C_17 
REMARK    6  A    between atoms: C_16  and  N_20 
REMARK       I    between atoms: N_20  and  C_21 
REMARK    7  A    between atoms: C_21  and  C_22 
REMARK    8  A    between atoms: C_22  and  C_23 
REMARK    9  A    between atoms: C_22  and  N_35 
REMARK   10  A    between atoms: C_23  and  C_24 
REMARK   11  A    between atoms: C_27  and  O_28 
REMARK   12  A    between atoms: O_28  and  P_29 
REMARK   13  A    between atoms: P_29  and  O_30 
ROOT
HETATM    1  O           1     -20.808  -7.560  -3.022  0.00  0.00    -0.271 OA
HETATM    2  H           1     -19.050  -9.488  -4.763  0.00  0.00     0.163 HD
HETATM    3  N           1     -19.510  -9.130  -3.935  0.00  0.00    -0.345 N 
HETATM    4  C           1     -20.260  -7.987  -4.010  0.00  0.00     0.249 C 
ENDROOT
BRANCH   4   5
HETATM    5  C           1     -20.402  -7.262  -5.326  0.00  0.00     0.278 C 
BRANCH   5   6
HETATM    6  C           1     -20.932  -5.856  -5.076  0.00  0.00     0.081 C 
BRANCH   6   7
HETATM    7  C           1     -21.319  -5.229  -6.379  0.00  0.00    -0.056 A 
HETATM    8  C           1     -22.629  -4.796  -6.584  0.00  0.00     0.010 A 
HETATM    9  C           1     -22.989  -4.212  -7.798  0.00  0.00     0.038 A 
HETATM   10  C           1     -22.038  -4.060  -8.807  0.00  0.00     0.081 A 
HETATM   11  C           1     -20.729  -4.492  -8.604  0.00  0.00     0.038 A 
HETATM   12  C           1     -20.369  -5.077  -7.389  0.00  0.00     0.010 A 
BRANCH  10  13
HETATM   13  O           1     -22.389  -3.492  -9.987  0.00  0.00    -0.247 OA
BRANCH  13  14
HETATM   14  P           1     -23.545  -4.207 -10.858  0.00  0.00     0.411 P 
HETATM   15  O           1     -23.074  -4.386 -12.251  0.00  0.00    -0.624 OA
HETATM   16  O           1     -23.861  -5.528 -10.270  0.00  0.00    -0.624 OA
BRANCH  14  17
HETATM   17  O           1     -24.871  -3.286 -10.855  0.00  0.00    -0.300 OA
HETATM   18  H           1     -24.637  -2.519 -11.350  0.00  0.00     0.223 HD
ENDBRANCH  14  17
ENDBRANCH  13  14
ENDBRANCH  10  13
ENDBRANCH   6   7
ENDBRANCH   5   6
BRANCH   5  19
HETATM   19  N           1     -21.361  -8.008  -6.206  0.00  0.00    -0.066 N 
HETATM   20  H           1     -20.826  -8.559  -6.915  0.00  0.00     0.275 HD
HETATM   21  H           1     -21.935  -8.657  -5.622  0.00  0.00     0.275 HD
HETATM   22  H           1     -21.988  -7.328  -6.693  0.00  0.00     0.275 HD
ENDBRANCH   5  19
ENDBRANCH   4   5
BRANCH   3  23
HETATM   23  C           1     -19.374  -9.827  -2.672  0.00  0.00     0.185 C 
BRANCH  23  24
HETATM   24  C           1     -20.149 -11.137  -2.728  0.00  0.00     0.038 C 
BRANCH  24  25
HETATM   25  C           1     -21.458 -10.986  -1.966  0.00  0.00     0.023 C 
BRANCH  25  26
HETATM   26  C           1     -21.184 -10.374  -0.599  0.00  0.00     0.138 C 
BRANCH  26  27
HETATM   27  N           1     -22.424  -9.795  -0.063  0.00  0.00    -0.227 N 
HETATM   28  H           1     -23.228 -10.419   0.193  0.00  0.00     0.177 HD
HETATM   29  C           1     -22.522  -8.542   0.092  0.00  0.00     0.665 C 
HETATM   30  N           1     -23.618  -8.030   0.568  0.00  0.00    -0.235 N 
HETATM   31  N           1     -21.553  -7.788  -0.216  0.00  0.00    -0.235 N 
HETATM   32  H           1     -24.418  -8.652   0.821  0.00  0.00     0.174 HD
HETATM   33  H           1     -23.699  -6.995   0.694  0.00  0.00     0.174 HD
HETATM   34  H           1     -21.634  -6.749  -0.087  0.00  0.00     0.174 HD
HETATM   35  H           1     -20.667  -8.202  -0.599  0.00  0.00     0.174 HD
ENDBRANCH  26  27
ENDBRANCH  25  26
ENDBRANCH  24  25
ENDBRANCH  23  24
BRANCH  23  36
HETATM   36  C           1     -17.916 -10.116  -2.412  0.00  0.00     0.196 C 
HETATM   37  O           1     -17.579 -11.187  -1.862  0.00  0.00    -0.646 OA
HETATM   38  O           1     -17.044  -9.284  -2.746  0.00  0.00    -0.646 OA
ENDBRANCH  23  36
ENDBRANCH   3  23
TORSDOF 13
ENDMDL
MODEL 7
REMARK VINA RESULT:      -7.1      1.461      2.016
REMARK  13 active torsions:
REMARK  status: ('A' for Active; 'I' for Inactive)
REMARK       I    between atoms: N_9  and  C_10 
REMARK       I    between atoms: C_10  and  N_11 
REMARK    1  A    between atoms: N_12  and  C_13 
REMARK    2  A    between atoms: C_13  and  C_14 
REMARK    3  A    between atoms: C_14  and  C_15 
REMARK    4  A    between atoms: C_15  and  C_16 
REMARK    5  A    between atoms: C_16  and  C_17 
REMARK    6  A    between atoms: C_16  and  N_20 
REMARK       I    between atoms: N_20  and  C_21 
REMARK    7  A    between atoms: C_21  and  C_22 
REMARK    8  A    between atoms: C_22  and  C_23 
REMARK    9  A    between atoms: C_22  and  N_35 
REMARK   10  A    between atoms: C_23  and  C_24 
REMARK   11  A    between atoms: C_27  and  O_28 
REMARK   12  A    between atoms: O_28  and  P_29 
REMARK   13  A    between atoms: P_29  and  O_30 
ROOT
HETATM    1  O           1     -19.692  -9.114  -4.154  0.00  0.00    -0.271 OA
HETATM    2  H           1     -21.847  -9.860  -6.308  0.00  0.00     0.163 HD
HETATM    3  N           1     -21.086 -10.001  -5.655  0.00  0.00    -0.345 N 
HETATM    4  C           1     -20.600  -8.945  -4.933  0.00  0.00     0.249 C 
ENDROOT
BRANCH   4   5
HETATM    5  C           1     -21.198  -7.571  -5.110  0.00  0.00     0.278 C 
BRANCH   5   6
HETATM    6  C           1     -20.177  -6.654  -5.773  0.00  0.00     0.081 C 
BRANCH   6   7
HETATM    7  C           1     -20.869  -5.767  -6.759  0.00  0.00    -0.056 A 
HETATM    8  C           1     -22.117  -5.225  -6.455  0.00  0.00     0.010 A 
HETATM    9  C           1     -22.762  -4.398  -7.375  0.00  0.00     0.038 A 
HETATM   10  C           1     -22.157  -4.113  -8.599  0.00  0.00     0.081 A 
HETATM   11  C           1     -20.909  -4.654  -8.904  0.00  0.00     0.038 A 
HETATM   12  C           1     -20.265  -5.481  -7.984  0.00  0.00     0.010 A 
BRANCH  10  13
HETATM   13  O           1     -22.784  -3.309  -9.493  0.00  0.00    -0.247 OA
BRANCH  13  14
HETATM   14  P           1     -23.689  -4.006 -10.634  0.00  0.00     0.411 P 
HETATM   15  O           1     -24.904  -3.191 -10.866  0.00  0.00    -0.624 OA
HETATM   16  O           1     -22.912  -4.102 -11.890  0.00  0.00    -0.624 OA
BRANCH  14  17
HETATM   17  O           1     -24.119  -5.486 -10.153  0.00  0.00    -0.300 OA
HETATM   18  H           1     -24.378  -5.384  -9.252  0.00  0.00     0.223 HD
ENDBRANCH  14  17
ENDBRANCH  13  14
ENDBRANCH  10  13
ENDBRANCH   6   7
ENDBRANCH   5   6
BRANCH   5  19
HETATM   19  N           1     -21.573  -7.013  -3.769  0.00  0.00    -0.066 N 
HETATM   20  H           1     -21.998  -6.066  -3.892  0.00  0.00     0.275 HD
HETATM   21  H           1     -22.264  -7.648  -3.310  0.00  0.00     0.275 HD
HETATM   22  H           1     -20.718  -6.936  -3.172  0.00  0.00     0.275 HD
ENDBRANCH   5  19
ENDBRANCH   4   5
BRANCH   3  23
HETATM   23  C           1     -20.513 -11.322  -5.485  0.00  0.00     0.185 C 
BRANCH  23  24
HETATM   24  C           1     -21.580 -12.276  -4.965  0.00  0.00     0.038 C 
BRANCH  24  25
HETATM   25  C           1     -22.540 -11.519  -4.057  0.00  0.00     0.023 C 
BRANCH  25  26
HETATM   26  C           1     -22.056 -11.611  -2.616  0.00  0.00     0.138 C 
BRANCH  26  27
HETATM   27  N           1     -22.640 -10.515  -1.831  0.00  0.00    -0.227 N 
HETATM   28  H           1     -23.682 -10.435  -1.735  0.00  0.00     0.177 HD
HETATM   29  C           1     -21.887  -9.667  -1.269  0.00  0.00     0.665 C 
HETATM   30  N           1     -22.403  -8.698  -0.573  0.00  0.00    -0.235 N 
HETATM   31  N           1     -20.629  -9.763  -1.383  0.00  0.00    -0.235 N 
HETATM   32  H           1     -23.441  -8.619  -0.479  0.00  0.00     0.174 HD
HETATM   33  H           1     -21.781  -7.998  -0.109  0.00  0.00     0.174 HD
HETATM   34  H           1     -20.004  -9.060  -0.916  0.00  0.00     0.174 HD
HETATM   35  H           1     -20.212 -10.547  -1.944  0.00  0.00     0.174 HD
ENDBRANCH  26  27
ENDBRANCH  25  26
ENDBRANCH  24  25
ENDBRANCH  23  24
BRANCH  23  36
HETATM   36  C           1     -19.996 -11.820  -6.812  0.00  0.00     0.196 C 
HETATM   37  O           1     -18.931 -11.365  -7.279  0.00  0.00    -0.646 OA
HETATM   38  O           1     -20.635 -12.689  -7.445  0.00  0.00    -0.646 OA
ENDBRANCH  23  36
ENDBRANCH   3  23
TORSDOF 13
ENDMDL
MODEL 8
REMARK VINA RESULT:      -6.7      2.609      3.935
REMARK  13 active torsions:
REMARK  status: ('A' for Active; 'I' for Inactive)
REMARK       I    between atoms: N_9  and  C_10 
REMARK       I    between atoms: C_10  and  N_11 
REMARK    1  A    between atoms: N_12  and  C_13 
REMARK    2  A    between atoms: C_13  and  C_14 
REMARK    3  A    between atoms: C_14  and  C_15 
REMARK    4  A    between atoms: C_15  and  C_16 
REMARK    5  A    between atoms: C_16  and  C_17 
REMARK    6  A    between atoms: C_16  and  N_20 
REMARK       I    between atoms: N_20  and  C_21 
REMARK    7  A    between atoms: C_21  and  C_22 
REMARK    8  A    between atoms: C_22  and  C_23 
REMARK    9  A    between atoms: C_22  and  N_35 
REMARK   10  A    between atoms: C_23  and  C_24 
REMARK   11  A    between atoms: C_27  and  O_28 
REMARK   12  A    between atoms: O_28  and  P_29 
REMARK   13  A    between atoms: P_29  and  O_30 
ROOT
HETATM    1  O           1     -21.241  -9.851  -3.728  0.00  0.00    -0.271 OA
HETATM    2  H           1     -21.324  -7.151  -2.133  0.00  0.00     0.163 HD
HETATM    3  N           1     -21.408  -8.147  -2.295  0.00  0.00    -0.345 N 
HETATM    4  C           1     -21.141  -8.663  -3.534  0.00  0.00     0.249 C 
ENDROOT
BRANCH   4   5
HETATM    5  C           1     -20.722  -7.748  -4.659  0.00  0.00     0.278 C 
BRANCH   5   6
HETATM    6  C           1     -21.291  -6.355  -4.419  0.00  0.00     0.081 C 
BRANCH   6   7
HETATM    7  C           1     -21.171  -5.545  -5.671  0.00  0.00    -0.056 A 
HETATM    8  C           1     -19.917  -5.123  -6.113  0.00  0.00     0.010 A 
HETATM    9  C           1     -19.805  -4.367  -7.280  0.00  0.00     0.038 A 
HETATM   10  C           1     -20.949  -4.034  -8.006  0.00  0.00     0.081 A 
HETATM   11  C           1     -22.203  -4.456  -7.566  0.00  0.00     0.038 A 
HETATM   12  C           1     -22.314  -5.211  -6.398  0.00  0.00     0.010 A 
BRANCH  10  13
HETATM   13  O           1     -20.840  -3.300  -9.140  0.00  0.00    -0.247 OA
BRANCH  13  14
HETATM   14  P           1     -20.796  -4.086 -10.550  0.00  0.00     0.411 P 
HETATM   15  O           1     -19.821  -5.198 -10.464  0.00  0.00    -0.624 OA
HETATM   16  O           1     -22.138  -4.629 -10.855  0.00  0.00    -0.624 OA
BRANCH  14  17
HETATM   17  O           1     -20.348  -3.069 -11.721  0.00  0.00    -0.300 OA
HETATM   18  H           1     -19.976  -3.617 -12.391  0.00  0.00     0.223 HD
ENDBRANCH  14  17
ENDBRANCH  13  14
ENDBRANCH  10  13
ENDBRANCH   6   7
ENDBRANCH   5   6
BRANCH   5  19
HETATM   19  N           1     -21.244  -8.283  -5.959  0.00  0.00    -0.066 N 
HETATM   20  H           1     -20.738  -9.165  -6.201  0.00  0.00     0.275 HD
HETATM   21  H           1     -22.266  -8.482  -5.868  0.00  0.00     0.275 HD
HETATM   22  H           1     -21.092  -7.576  -6.713  0.00  0.00     0.275 HD
ENDBRANCH   5  19
ENDBRANCH   4   5
BRANCH   3  23
HETATM   23  C           1     -21.810  -9.026  -1.214  0.00  0.00     0.185 C 
BRANCH  23  24
HETATM   24  C           1     -20.586  -9.421  -0.399  0.00  0.00     0.038 C 
BRANCH  24  25
HETATM   25  C           1     -20.600 -10.924  -0.156  0.00  0.00     0.023 C 
BRANCH  25  26
HETATM   26  C           1     -19.301 -11.534  -0.665  0.00  0.00     0.138 C 
BRANCH  26  27
HETATM   27  N           1     -19.277 -11.483  -2.134  0.00  0.00    -0.227 N 
HETATM   28  H           1     -20.126 -11.766  -2.683  0.00  0.00     0.177 HD
HETATM   29  C           1     -18.234 -11.097  -2.737  0.00  0.00     0.665 C 
HETATM   30  N           1     -18.213 -11.051  -4.036  0.00  0.00    -0.235 N 
HETATM   31  N           1     -17.210 -10.755  -2.076  0.00  0.00    -0.235 N 
HETATM   32  H           1     -19.058 -11.334  -4.582  0.00  0.00     0.174 HD
HETATM   33  H           1     -17.351 -10.733  -4.534  0.00  0.00     0.174 HD
HETATM   34  H           1     -16.344 -10.435  -2.576  0.00  0.00     0.174 HD
HETATM   35  H           1     -17.227 -10.791  -1.026  0.00  0.00     0.174 HD
ENDBRANCH  26  27
ENDBRANCH  25  26
ENDBRANCH  24  25
ENDBRANCH  23  24
BRANCH  23  36
HETATM   36  C           1     -22.798  -8.310  -0.326  0.00  0.00     0.196 C 
HETATM   37  O           1     -23.561  -8.966   0.415  0.00  0.00    -0.646 OA
HETATM   38  O           1     -22.852  -7.061  -0.331  0.00  0.00    -0.646 OA
ENDBRANCH  23  36
ENDBRANCH   3  23
TORSDOF 13
ENDMDL
MODEL 9
REMARK VINA RESULT:      -6.7      2.238      3.758
REMARK  13 active torsions:
REMARK  status: ('A' for Active; 'I' for Inactive)
REMARK       I    between atoms: N_9  and  C_10 
REMARK       I    between atoms: C_10  and  N_11 
REMARK    1  A    between atoms: N_12  and  C_13 
REMARK    2  A    between atoms: C_13  and  C_14 
REMARK    3  A    between atoms: C_14  and  C_15 
REMARK    4  A    between atoms: C_15  and  C_16 
REMARK    5  A    between atoms: C_16  and  C_17 
REMARK    6  A    between atoms: C_16  and  N_20 
REMARK       I    between atoms: N_20  and  C_21 
REMARK    7  A    between atoms: C_21  and  C_22 
REMARK    8  A    between atoms: C_22  and  C_23 
REMARK    9  A    between atoms: C_22  and  N_35 
REMARK   10  A    between atoms: C_23  and  C_24 
REMARK   11  A    between atoms: C_27  and  O_28 
REMARK   12  A    between atoms: O_28  and  P_29 
REMARK   13  A    between atoms: P_29  and  O_30 
ROOT
HETATM    1  O           1     -21.933  -9.103  -4.160  0.00  0.00    -0.271 OA
HETATM    2  H           1     -19.998  -7.484  -2.295  0.00  0.00     0.163 HD
HETATM    3  N           1     -20.453  -8.295  -2.697  0.00  0.00    -0.345 N 
HETATM    4  C           1     -21.389  -8.136  -3.682  0.00  0.00     0.249 C 
ENDROOT
BRANCH   4   5
HETATM    5  C           1     -21.743  -6.752  -4.170  0.00  0.00     0.278 C 
BRANCH   5   6
HETATM    6  C           1     -20.502  -6.084  -4.748  0.00  0.00     0.081 C 
BRANCH   6   7
HETATM    7  C           1     -20.869  -5.336  -5.990  0.00  0.00    -0.056 A 
HETATM    8  C           1     -22.165  -5.424  -6.501  0.00  0.00     0.010 A 
HETATM    9  C           1     -22.507  -4.726  -7.659  0.00  0.00     0.038 A 
HETATM   10  C           1     -21.555  -3.940  -8.306  0.00  0.00     0.081 A 
HETATM   11  C           1     -20.260  -3.850  -7.796  0.00  0.00     0.038 A 
HETATM   12  C           1     -19.918  -4.549  -6.638  0.00  0.00     0.010 A 
BRANCH  10  13
HETATM   13  O           1     -21.888  -3.262  -9.431  0.00  0.00    -0.247 OA
BRANCH  13  14
HETATM   14  P           1     -21.590  -3.963 -10.855  0.00  0.00     0.411 P 
HETATM   15  O           1     -20.326  -4.731 -10.771  0.00  0.00    -0.624 OA
HETATM   16  O           1     -22.702  -4.878 -11.197  0.00  0.00    -0.624 OA
BRANCH  14  17
HETATM   17  O           1     -21.455  -2.830 -11.997  0.00  0.00    -0.300 OA
HETATM   18  H           1     -21.613  -3.282 -12.809  0.00  0.00     0.223 HD
ENDBRANCH  14  17
ENDBRANCH  13  14
ENDBRANCH  10  13
ENDBRANCH   6   7
ENDBRANCH   5   6
BRANCH   5  19
HETATM   19  N           1     -22.261  -5.935  -3.024  0.00  0.00    -0.066 N 
HETATM   20  H           1     -22.966  -5.248  -3.375  0.00  0.00     0.275 HD
HETATM   21  H           1     -22.711  -6.567  -2.323  0.00  0.00     0.275 HD
HETATM   22  H           1     -21.469  -5.423  -2.575  0.00  0.00     0.275 HD
ENDBRANCH   5  19
ENDBRANCH   4   5
BRANCH   3  23
HETATM   23  C           1     -20.112  -9.624  -2.227  0.00  0.00     0.185 C 
BRANCH  23  24
HETATM   24  C           1     -18.613  -9.846  -2.374  0.00  0.00     0.038 C 
BRANCH  24  25
HETATM   25  C           1     -18.316 -10.408  -3.758  0.00  0.00     0.023 C 
BRANCH  25  26
HETATM   26  C           1     -19.320 -11.503  -4.089  0.00  0.00     0.138 C 
BRANCH  26  27
HETATM   27  N           1     -19.824 -11.310  -5.456  0.00  0.00    -0.227 N 
HETATM   28  H           1     -19.213 -10.864  -6.183  0.00  0.00     0.177 HD
HETATM   29  C           1     -20.996 -11.682  -5.756  0.00  0.00     0.665 C 
HETATM   30  N           1     -21.442 -11.513  -6.966  0.00  0.00    -0.235 N 
HETATM   31  N           1     -21.734 -12.221  -4.880  0.00  0.00    -0.235 N 
HETATM   32  H           1     -20.833 -11.068  -7.689  0.00  0.00     0.174 HD
HETATM   33  H           1     -22.410 -11.820  -7.214  0.00  0.00     0.174 HD
HETATM   34  H           1     -22.706 -12.530  -5.129  0.00  0.00     0.174 HD
HETATM   35  H           1     -21.374 -12.359  -3.903  0.00  0.00     0.174 HD
ENDBRANCH  26  27
ENDBRANCH  25  26
ENDBRANCH  24  25
ENDBRANCH  23  24
BRANCH  23  36
HETATM   36  C           1     -20.501  -9.759  -0.775  0.00  0.00     0.196 C 
HETATM   37  O           1     -20.974  -8.780  -0.161  0.00  0.00    -0.646 OA
HETATM   38  O           1     -20.349 -10.852  -0.187  0.00  0.00    -0.646 OA
ENDBRANCH  23  36
ENDBRANCH   3  23
TORSDOF 13
ENDMDL
