MODEL 1
REMARK VINA RESULT:      -6.1      0.000      0.000
REMARK  11 active torsions:
REMARK  status: ('A' for Active; 'I' for Inactive)
REMARK    1  A    between atoms: Se_2  and  C_3 
REMARK    2  A    between atoms: C_3  and  C_4 
REMARK    3  A    between atoms: C_4  and  C_5 
REMARK    4  A    between atoms: C_5  and  C_6 
REMARK    5  A    between atoms: C_5  and  N_9 
REMARK       I    between atoms: N_9  and  C_10 
REMARK    6  A    between atoms: C_10  and  C_11 
REMARK    7  A    between atoms: C_11  and  C_12 
REMARK    8  A    between atoms: C_11  and  N_18 
REMARK    9  A    between atoms: C_12  and  O_13 
REMARK   10  A    between atoms: O_13  and  P_14 
REMARK   11  A    between atoms: P_14  and  O_15 
ROOT
HETATM    1  N           1     -31.950  -5.619 -16.706  0.00  0.00    -0.345 N 
HETATM    2  C           1     -32.547  -4.391 -16.805  0.00  0.00     0.251 C 
HETATM    3  O           1     -31.983  -3.490 -17.378  0.00  0.00    -0.271 OA
HETATM    4  H           1     -32.422  -6.374 -16.226  0.00  0.00     0.163 HD
ENDROOT
BRANCH   2   5
HETATM    5  C           1     -33.910  -4.164 -16.199  0.00  0.00     0.298 C 
BRANCH   5   6
HETATM    6  C           1     -34.429  -2.793 -16.611  0.00  0.00     0.224 C 
BRANCH   6   7
HETATM    7  O           1     -35.041  -2.174 -15.511  0.00  0.00    -0.287 OA
BRANCH   7   8
HETATM    8  P           1     -35.797  -0.780 -15.814  0.00  0.00     0.406 P 
HETATM    9  O           1     -34.886   0.349 -15.523  0.00  0.00    -0.624 OA
HETATM   10  O           1     -37.000  -0.676 -14.959  0.00  0.00    -0.624 OA
BRANCH   8  11
HETATM   11  O           1     -36.235  -0.730 -17.368  0.00  0.00    -0.300 OA
HETATM   12  H           1     -35.716  -0.041 -17.745  0.00  0.00     0.223 HD
ENDBRANCH   8  11
ENDBRANCH   7   8
ENDBRANCH   6   7
ENDBRANCH   5   6
BRANCH   5  13
HETATM   13  N           1     -33.809  -4.230 -14.704  0.00  0.00    -0.064 N 
HETATM   14  H           1     -33.828  -3.262 -14.310  0.00  0.00     0.275 HD
HETATM   15  H           1     -34.616  -4.776 -14.324  0.00  0.00     0.275 HD
HETATM   16  H           1     -32.914  -4.697 -14.435  0.00  0.00     0.275 HD
ENDBRANCH   5  13
ENDBRANCH   2   5
BRANCH   1  17
HETATM   17  C           1     -30.640  -5.837 -17.289  0.00  0.00     0.185 C 
BRANCH  17  18
HETATM   18  C           1     -29.571  -5.633 -16.225  0.00  0.00     0.036 C 
BRANCH  18  19
HETATM   19  C           1     -28.453  -4.766 -16.788  0.00  0.00     0.003 C 
BRANCH  19  20
HETATM   20 Se           1     -26.971  -5.902 -17.352  0.00  0.00     0.000 Se
HETATM   21  C           1     -26.919  -6.935 -15.700  0.00  0.00     0.000 C 
ENDBRANCH  19  20
ENDBRANCH  18  19
ENDBRANCH  17  18
BRANCH  17  22
HETATM   22  C           1     -30.556  -7.245 -17.825  0.00  0.00     0.196 C 
HETATM   23  O           1     -31.252  -7.583 -18.807  0.00  0.00    -0.646 OA
HETATM   24  O           1     -29.791  -8.074 -17.286  0.00  0.00    -0.646 OA
ENDBRANCH  17  22
ENDBRANCH   1  17
TORSDOF 11
ENDMDL
MODEL 2
REMARK VINA RESULT:      -5.9      6.013      8.740
REMARK  11 active torsions:
REMARK  status: ('A' for Active; 'I' for Inactive)
REMARK    1  A    between atoms: Se_2  and  C_3 
REMARK    2  A    between atoms: C_3  and  C_4 
REMARK    3  A    between atoms: C_4  and  C_5 
REMARK    4  A    between atoms: C_5  and  C_6 
REMARK    5  A    between atoms: C_5  and  N_9 
REMARK       I    between atoms: N_9  and  C_10 
REMARK    6  A    between atoms: C_10  and  C_11 
REMARK    7  A    between atoms: C_11  and  C_12 
REMARK    8  A    between atoms: C_11  and  N_18 
REMARK    9  A    between atoms: C_12  and  O_13 
REMARK   10  A    between atoms: O_13  and  P_14 
REMARK   11  A    between atoms: P_14  and  O_15 
ROOT
HETATM    1  N           1     -26.496  -6.788 -17.191  0.00  0.00    -0.345 N 
HETATM    2  C           1     -25.270  -6.439 -16.692  0.00  0.00     0.251 C 
HETATM    3  O           1     -25.183  -5.577 -15.850  0.00  0.00    -0.271 OA
HETATM    4  H           1     -26.568  -7.511 -17.895  0.00  0.00     0.163 HD
ENDROOT
BRANCH   2   5
HETATM    5  C           1     -24.026  -7.132 -17.192  0.00  0.00     0.298 C 
BRANCH   5   6
HETATM    6  C           1     -24.223  -7.546 -18.645  0.00  0.00     0.224 C 
BRANCH   6   7
HETATM    7  O           1     -24.667  -6.443 -19.389  0.00  0.00    -0.287 OA
BRANCH   7   8
HETATM    8  P           1     -25.496  -6.783 -20.732  0.00  0.00     0.406 P 
HETATM    9  O           1     -24.714  -7.718 -21.571  0.00  0.00    -0.624 OA
HETATM   10  O           1     -25.747  -5.535 -21.486  0.00  0.00    -0.624 OA
BRANCH   8  11
HETATM   11  O           1     -26.906  -7.465 -20.337  0.00  0.00    -0.300 OA
HETATM   12  H           1     -27.200  -7.890 -21.125  0.00  0.00     0.223 HD
ENDBRANCH   8  11
ENDBRANCH   7   8
ENDBRANCH   6   7
ENDBRANCH   5   6
BRANCH   5  13
HETATM   13  N           1     -23.764  -8.351 -16.358  0.00  0.00    -0.064 N 
HETATM   14  H           1     -24.552  -8.490 -15.686  0.00  0.00     0.275 HD
HETATM   15  H           1     -23.685  -9.188 -16.981  0.00  0.00     0.275 HD
HETATM   16  H           1     -22.873  -8.226 -15.828  0.00  0.00     0.275 HD
ENDBRANCH   5  13
ENDBRANCH   2   5
BRANCH   1  17
HETATM   17  C           1     -27.690  -6.123 -16.709  0.00  0.00     0.185 C 
BRANCH  17  18
HETATM   18  C           1     -28.798  -6.256 -17.746  0.00  0.00     0.036 C 
BRANCH  18  19
HETATM   19  C           1     -28.915  -4.958 -18.533  0.00  0.00     0.003 C 
BRANCH  19  20
HETATM   20 Se           1     -30.121  -3.740 -17.603  0.00  0.00     0.000 Se
HETATM   21  C           1     -31.321  -5.143 -16.978  0.00  0.00     0.000 C 
ENDBRANCH  19  20
ENDBRANCH  18  19
ENDBRANCH  17  18
BRANCH  17  22
HETATM   22  C           1     -28.133  -6.758 -15.414  0.00  0.00     0.196 C 
HETATM   23  O           1     -27.654  -7.858 -15.062  0.00  0.00    -0.646 OA
HETATM   24  O           1     -28.980  -6.186 -14.694  0.00  0.00    -0.646 OA
ENDBRANCH  17  22
ENDBRANCH   1  17
TORSDOF 11
ENDMDL
MODEL 3
REMARK VINA RESULT:      -5.9     13.088     15.201
REMARK  11 active torsions:
REMARK  status: ('A' for Active; 'I' for Inactive)
REMARK    1  A    between atoms: Se_2  and  C_3 
REMARK    2  A    between atoms: C_3  and  C_4 
REMARK    3  A    between atoms: C_4  and  C_5 
REMARK    4  A    between atoms: C_5  and  C_6 
REMARK    5  A    between atoms: C_5  and  N_9 
REMARK       I    between atoms: N_9  and  C_10 
REMARK    6  A    between atoms: C_10  and  C_11 
REMARK    7  A    between atoms: C_11  and  C_12 
REMARK    8  A    between atoms: C_11  and  N_18 
REMARK    9  A    between atoms: C_12  and  O_13 
REMARK   10  A    between atoms: O_13  and  P_14 
REMARK   11  A    between atoms: P_14  and  O_15 
ROOT
HETATM    1  N           1     -21.608  -5.660  -5.918  0.00  0.00    -0.345 N 
HETATM    2  C           1     -20.841  -4.722  -6.556  0.00  0.00     0.251 C 
HETATM    3  O           1     -19.713  -4.509  -6.182  0.00  0.00    -0.271 OA
HETATM    4  H           1     -22.553  -5.839  -6.231  0.00  0.00     0.163 HD
ENDROOT
BRANCH   2   5
HETATM    5  C           1     -21.406  -3.956  -7.727  0.00  0.00     0.298 C 
BRANCH   5   6
HETATM    6  C           1     -22.786  -4.499  -8.073  0.00  0.00     0.224 C 
BRANCH   6   7
HETATM    7  O           1     -23.507  -3.527  -8.784  0.00  0.00    -0.287 OA
BRANCH   7   8
HETATM    8  P           1     -23.801  -3.859 -10.336  0.00  0.00     0.406 P 
HETATM    9  O           1     -25.046  -3.180 -10.758  0.00  0.00    -0.624 OA
HETATM   10  O           1     -23.952  -5.321 -10.508  0.00  0.00    -0.624 OA
BRANCH   8  11
HETATM   11  O           1     -22.570  -3.335 -11.242  0.00  0.00    -0.300 OA
HETATM   12  H           1     -22.145  -2.678 -10.718  0.00  0.00     0.223 HD
ENDBRANCH   8  11
ENDBRANCH   7   8
ENDBRANCH   6   7
ENDBRANCH   5   6
BRANCH   5  13
HETATM   13  N           1     -20.498  -4.112  -8.910  0.00  0.00    -0.064 N 
HETATM   14  H           1     -19.855  -4.921  -8.753  0.00  0.00     0.275 HD
HETATM   15  H           1     -21.071  -4.284  -9.768  0.00  0.00     0.275 HD
HETATM   16  H           1     -19.936  -3.240  -9.036  0.00  0.00     0.275 HD
ENDBRANCH   5  13
ENDBRANCH   2   5
BRANCH   1  17
HETATM   17  C           1     -21.064  -6.397  -4.794  0.00  0.00     0.185 C 
BRANCH  17  18
HETATM   18  C           1     -22.142  -6.569  -3.731  0.00  0.00     0.036 C 
BRANCH  18  19
HETATM   19  C           1     -21.519  -6.432  -2.349  0.00  0.00     0.003 C 
BRANCH  19  20
HETATM   20 Se           1     -21.452  -8.181  -1.490  0.00  0.00     0.000 Se
HETATM   21  C           1     -22.679  -7.705  -0.052  0.00  0.00     0.000 C 
ENDBRANCH  19  20
ENDBRANCH  18  19
ENDBRANCH  17  18
BRANCH  17  22
HETATM   22  C           1     -20.595  -7.753  -5.260  0.00  0.00     0.196 C 
HETATM   23  O           1     -19.552  -8.252  -4.783  0.00  0.00    -0.646 OA
HETATM   24  O           1     -21.249  -8.378  -6.124  0.00  0.00    -0.646 OA
ENDBRANCH  17  22
ENDBRANCH   1  17
TORSDOF 11
ENDMDL
MODEL 4
REMARK VINA RESULT:      -5.9      5.917      8.503
REMARK  11 active torsions:
REMARK  status: ('A' for Active; 'I' for Inactive)
REMARK    1  A    between atoms: Se_2  and  C_3 
REMARK    2  A    between atoms: C_3  and  C_4 
REMARK    3  A    between atoms: C_4  and  C_5 
REMARK    4  A    between atoms: C_5  and  C_6 
REMARK    5  A    between atoms: C_5  and  N_9 
REMARK       I    between atoms: N_9  and  C_10 
REMARK    6  A    between atoms: C_10  and  C_11 
REMARK    7  A    between atoms: C_11  and  C_12 
REMARK    8  A    between atoms: C_11  and  N_18 
REMARK    9  A    between atoms: C_12  and  O_13 
REMARK   10  A    between atoms: O_13  and  P_14 
REMARK   11  A    between atoms: P_14  and  O_15 
ROOT
HETATM    1  N           1     -27.373  -6.608 -17.768  0.00  0.00    -0.345 N 
HETATM    2  C           1     -26.601  -6.104 -16.757  0.00  0.00     0.251 C 
HETATM    3  O           1     -27.107  -5.441 -15.883  0.00  0.00    -0.271 OA
HETATM    4  H           1     -26.949  -7.163 -18.500  0.00  0.00     0.163 HD
ENDROOT
BRANCH   2   5
HETATM    5  C           1     -25.117  -6.377 -16.732  0.00  0.00     0.298 C 
BRANCH   5   6
HETATM    6  C           1     -24.735  -7.225 -17.939  0.00  0.00     0.224 C 
BRANCH   6   7
HETATM    7  O           1     -24.692  -6.415 -19.085  0.00  0.00    -0.287 OA
BRANCH   7   8
HETATM    8  P           1     -25.017  -7.152 -20.484  0.00  0.00     0.406 P 
HETATM    9  O           1     -23.988  -8.183 -20.748  0.00  0.00    -0.624 OA
HETATM   10  O           1     -25.011  -6.157 -21.578  0.00  0.00    -0.624 OA
BRANCH   8  11
HETATM   11  O           1     -26.471  -7.852 -20.401  0.00  0.00    -0.300 OA
HETATM   12  H           1     -26.964  -7.318 -19.802  0.00  0.00     0.223 HD
ENDBRANCH   8  11
ENDBRANCH   7   8
ENDBRANCH   6   7
ENDBRANCH   5   6
BRANCH   5  13
HETATM   13  N           1     -24.765  -7.115 -15.474  0.00  0.00    -0.064 N 
HETATM   14  H           1     -24.168  -7.940 -15.709  0.00  0.00     0.275 HD
HETATM   15  H           1     -24.241  -6.477 -14.832  0.00  0.00     0.275 HD
HETATM   16  H           1     -25.640  -7.440 -15.005  0.00  0.00     0.275 HD
ENDBRANCH   5  13
ENDBRANCH   2   5
BRANCH   1  17
HETATM   17  C           1     -28.798  -6.346 -17.791  0.00  0.00     0.185 C 
BRANCH  17  18
HETATM   18  C           1     -29.074  -5.113 -18.641  0.00  0.00     0.036 C 
BRANCH  18  19
HETATM   19  C           1     -29.643  -4.007 -17.762  0.00  0.00     0.003 C 
BRANCH  19  20
HETATM   20 Se           1     -31.130  -4.710 -16.715  0.00  0.00     0.000 Se
HETATM   21  C           1     -32.463  -3.531 -17.511  0.00  0.00     0.000 C 
ENDBRANCH  19  20
ENDBRANCH  18  19
ENDBRANCH  17  18
BRANCH  17  22
HETATM   22  C           1     -29.519  -7.534 -18.378  0.00  0.00     0.196 C 
HETATM   23  O           1     -30.572  -7.952 -17.847  0.00  0.00    -0.646 OA
HETATM   24  O           1     -29.064  -8.102 -19.394  0.00  0.00    -0.646 OA
ENDBRANCH  17  22
ENDBRANCH   1  17
TORSDOF 11
ENDMDL
MODEL 5
REMARK VINA RESULT:      -5.9      6.091      7.718
REMARK  11 active torsions:
REMARK  status: ('A' for Active; 'I' for Inactive)
REMARK    1  A    between atoms: Se_2  and  C_3 
REMARK    2  A    between atoms: C_3  and  C_4 
REMARK    3  A    between atoms: C_4  and  C_5 
REMARK    4  A    between atoms: C_5  and  C_6 
REMARK    5  A    between atoms: C_5  and  N_9 
REMARK       I    between atoms: N_9  and  C_10 
REMARK    6  A    between atoms: C_10  and  C_11 
REMARK    7  A    between atoms: C_11  and  C_12 
REMARK    8  A    between atoms: C_11  and  N_18 
REMARK    9  A    between atoms: C_12  and  O_13 
REMARK   10  A    between atoms: O_13  and  P_14 
REMARK   11  A    between atoms: P_14  and  O_15 
ROOT
HETATM    1  N           1     -27.576  -6.977 -18.873  0.00  0.00    -0.345 N 
HETATM    2  C           1     -28.259  -5.834 -18.555  0.00  0.00     0.251 C 
HETATM    3  O           1     -28.465  -4.998 -19.403  0.00  0.00    -0.271 OA
HETATM    4  H           1     -27.404  -7.677 -18.163  0.00  0.00     0.163 HD
ENDROOT
BRANCH   2   5
HETATM    5  C           1     -28.755  -5.618 -17.147  0.00  0.00     0.298 C 
BRANCH   5   6
HETATM    6  C           1     -27.616  -5.099 -16.279  0.00  0.00     0.224 C 
BRANCH   6   7
HETATM    7  O           1     -26.391  -5.537 -16.804  0.00  0.00    -0.287 OA
BRANCH   7   8
HETATM    8  P           1     -25.592  -6.627 -15.919  0.00  0.00     0.406 P 
HETATM    9  O           1     -24.632  -7.353 -16.780  0.00  0.00    -0.624 OA
HETATM   10  O           1     -26.554  -7.586 -15.333  0.00  0.00    -0.624 OA
BRANCH   8  11
HETATM   11  O           1     -24.791  -5.876 -14.734  0.00  0.00    -0.300 OA
HETATM   12  H           1     -23.953  -5.660 -15.106  0.00  0.00     0.223 HD
ENDBRANCH   8  11
ENDBRANCH   7   8
ENDBRANCH   6   7
ENDBRANCH   5   6
BRANCH   5  13
HETATM   13  N           1     -29.253  -6.918 -16.588  0.00  0.00    -0.064 N 
HETATM   14  H           1     -30.218  -7.105 -16.946  0.00  0.00     0.275 HD
HETATM   15  H           1     -28.616  -7.692 -16.886  0.00  0.00     0.275 HD
HETATM   16  H           1     -29.273  -6.866 -15.545  0.00  0.00     0.275 HD
ENDBRANCH   5  13
ENDBRANCH   2   5
BRANCH   1  17
HETATM   17  C           1     -27.101  -7.184 -20.227  0.00  0.00     0.185 C 
BRANCH  17  18
HETATM   18  C           1     -25.589  -7.365 -20.211  0.00  0.00     0.036 C 
BRANCH  18  19
HETATM   19  C           1     -24.962  -6.501 -21.297  0.00  0.00     0.003 C 
BRANCH  19  20
HETATM   20 Se           1     -23.994  -7.636 -22.553  0.00  0.00     0.000 Se
HETATM   21  C           1     -22.824  -8.415 -21.202  0.00  0.00     0.000 C 
ENDBRANCH  19  20
ENDBRANCH  18  19
ENDBRANCH  17  18
BRANCH  17  22
HETATM   22  C           1     -27.750  -8.417 -20.805  0.00  0.00     0.196 C 
HETATM   23  O           1     -27.216  -9.011 -21.767  0.00  0.00    -0.646 OA
HETATM   24  O           1     -28.823  -8.843 -20.324  0.00  0.00    -0.646 OA
ENDBRANCH  17  22
ENDBRANCH   1  17
TORSDOF 11
ENDMDL
MODEL 6
REMARK VINA RESULT:      -5.6     15.143     17.451
REMARK  11 active torsions:
REMARK  status: ('A' for Active; 'I' for Inactive)
REMARK    1  A    between atoms: Se_2  and  C_3 
REMARK    2  A    between atoms: C_3  and  C_4 
REMARK    3  A    between atoms: C_4  and  C_5 
REMARK    4  A    between atoms: C_5  and  C_6 
REMARK    5  A    between atoms: C_5  and  N_9 
REMARK       I    between atoms: N_9  and  C_10 
REMARK    6  A    between atoms: C_10  and  C_11 
REMARK    7  A    between atoms: C_11  and  C_12 
REMARK    8  A    between atoms: C_11  and  N_18 
REMARK    9  A    between atoms: C_12  and  O_13 
REMARK   10  A    between atoms: O_13  and  P_14 
REMARK   11  A    between atoms: P_14  and  O_15 
ROOT
HETATM    1  N           1     -21.058  -5.508  -4.969  0.00  0.00    -0.345 N 
HETATM    2  C           1     -21.501  -6.571  -4.230  0.00  0.00     0.251 C 
HETATM    3  O           1     -22.044  -7.502  -4.775  0.00  0.00    -0.271 OA
HETATM    4  H           1     -20.603  -4.728  -4.513  0.00  0.00     0.163 HD
ENDROOT
BRANCH   2   5
HETATM    5  C           1     -21.311  -6.579  -2.733  0.00  0.00     0.298 C 
BRANCH   5   6
HETATM    6  C           1     -21.307  -8.017  -2.228  0.00  0.00     0.224 C 
BRANCH   6   7
HETATM    7  O           1     -20.753  -8.059  -0.940  0.00  0.00    -0.287 OA
BRANCH   7   8
HETATM    8  P           1     -21.705  -8.654   0.220  0.00  0.00     0.406 P 
HETATM    9  O           1     -21.020  -8.540   1.527  0.00  0.00    -0.624 OA
HETATM   10  O           1     -21.996 -10.077  -0.062  0.00  0.00    -0.624 OA
BRANCH   8  11
HETATM   11  O           1     -23.088  -7.820   0.264  0.00  0.00    -0.300 OA
HETATM   12  H           1     -23.624  -8.271   0.894  0.00  0.00     0.223 HD
ENDBRANCH   8  11
ENDBRANCH   7   8
ENDBRANCH   6   7
ENDBRANCH   5   6
BRANCH   5  13
HETATM   13  N           1     -22.434  -5.826  -2.083  0.00  0.00    -0.064 N 
HETATM   14  H           1     -22.118  -4.856  -1.857  0.00  0.00     0.275 HD
HETATM   15  H           1     -23.249  -5.784  -2.737  0.00  0.00     0.275 HD
HETATM   16  H           1     -22.718  -6.313  -1.204  0.00  0.00     0.275 HD
ENDBRANCH   5  13
ENDBRANCH   2   5
BRANCH   1  17
HETATM   17  C           1     -21.240  -5.500  -6.408  0.00  0.00     0.185 C 
BRANCH  17  18
HETATM   18  C           1     -21.786  -4.147  -6.843  0.00  0.00     0.036 C 
BRANCH  18  19
HETATM   19  C           1     -23.025  -4.352  -7.704  0.00  0.00     0.003 C 
BRANCH  19  20
HETATM   20 Se           1     -22.629  -3.846  -9.544  0.00  0.00     0.000 Se
HETATM   21  C           1     -24.474  -3.413  -9.997  0.00  0.00     0.000 C 
ENDBRANCH  19  20
ENDBRANCH  18  19
ENDBRANCH  17  18
BRANCH  17  22
HETATM   22  C           1     -19.914  -5.749  -7.084  0.00  0.00     0.196 C 
HETATM   23  O           1     -19.396  -6.887  -7.044  0.00  0.00    -0.646 OA
HETATM   24  O           1     -19.333  -4.818  -7.683  0.00  0.00    -0.646 OA
ENDBRANCH  17  22
ENDBRANCH   1  17
TORSDOF 11
ENDMDL
MODEL 7
REMARK VINA RESULT:      -5.5     13.472     15.681
REMARK  11 active torsions:
REMARK  status: ('A' for Active; 'I' for Inactive)
REMARK    1  A    between atoms: Se_2  and  C_3 
REMARK    2  A    between atoms: C_3  and  C_4 
REMARK    3  A    between atoms: C_4  and  C_5 
REMARK    4  A    between atoms: C_5  and  C_6 
REMARK    5  A    between atoms: C_5  and  N_9 
REMARK       I    between atoms: N_9  and  C_10 
REMARK    6  A    between atoms: C_10  and  C_11 
REMARK    7  A    between atoms: C_11  and  C_12 
REMARK    8  A    between atoms: C_11  and  N_18 
REMARK    9  A    between atoms: C_12  and  O_13 
REMARK   10  A    between atoms: O_13  and  P_14 
REMARK   11  A    between atoms: P_14  and  O_15 
ROOT
HETATM    1  N           1     -21.010  -6.662  -4.867  0.00  0.00    -0.345 N 
HETATM    2  C           1     -21.755  -5.847  -5.676  0.00  0.00     0.251 C 
HETATM    3  O           1     -22.958  -5.829  -5.572  0.00  0.00    -0.271 OA
HETATM    4  H           1     -20.002  -6.676  -4.954  0.00  0.00     0.163 HD
ENDROOT
BRANCH   2   5
HETATM    5  C           1     -21.073  -4.970  -6.697  0.00  0.00     0.298 C 
BRANCH   5   6
HETATM    6  C           1     -22.123  -4.222  -7.509  0.00  0.00     0.224 C 
BRANCH   6   7
HETATM    7  O           1     -22.168  -4.746  -8.810  0.00  0.00    -0.287 OA
BRANCH   7   8
HETATM    8  P           1     -23.335  -4.169  -9.764  0.00  0.00     0.406 P 
HETATM    9  O           1     -23.954  -5.284 -10.516  0.00  0.00    -0.624 OA
HETATM   10  O           1     -22.758  -3.193 -10.715  0.00  0.00    -0.624 OA
BRANCH   8  11
HETATM   11  O           1     -24.459  -3.440  -8.861  0.00  0.00    -0.300 OA
HETATM   12  H           1     -24.250  -3.676  -7.974  0.00  0.00     0.223 HD
ENDBRANCH   8  11
ENDBRANCH   7   8
ENDBRANCH   6   7
ENDBRANCH   5   6
BRANCH   5  13
HETATM   13  N           1     -20.247  -5.822  -7.615  0.00  0.00    -0.064 N 
HETATM   14  H           1     -20.876  -6.413  -8.203  0.00  0.00     0.275 HD
HETATM   15  H           1     -19.668  -5.207  -8.232  0.00  0.00     0.275 HD
HETATM   16  H           1     -19.619  -6.436  -7.049  0.00  0.00     0.275 HD
ENDBRANCH   5  13
ENDBRANCH   2   5
BRANCH   1  17
HETATM   17  C           1     -21.666  -7.503  -3.885  0.00  0.00     0.185 C 
BRANCH  17  18
HETATM   18  C           1     -21.011  -8.878  -3.878  0.00  0.00     0.036 C 
BRANCH  18  19
HETATM   19  C           1     -19.721  -8.831  -4.685  0.00  0.00     0.003 C 
BRANCH  19  20
HETATM   20 Se           1     -19.200 -10.642  -5.185  0.00  0.00     0.000 Se
HETATM   21  C           1     -17.498 -10.112  -5.973  0.00  0.00     0.000 C 
ENDBRANCH  19  20
ENDBRANCH  18  19
ENDBRANCH  17  18
BRANCH  17  22
HETATM   22  C           1     -21.537  -6.877  -2.519  0.00  0.00     0.196 C 
HETATM   23  O           1     -20.759  -7.372  -1.675  0.00  0.00    -0.646 OA
HETATM   24  O           1     -22.211  -5.864  -2.230  0.00  0.00    -0.646 OA
ENDBRANCH  17  22
ENDBRANCH   1  17
TORSDOF 11
ENDMDL
MODEL 8
REMARK VINA RESULT:      -5.4      4.589      6.055
REMARK  11 active torsions:
REMARK  status: ('A' for Active; 'I' for Inactive)
REMARK    1  A    between atoms: Se_2  and  C_3 
REMARK    2  A    between atoms: C_3  and  C_4 
REMARK    3  A    between atoms: C_4  and  C_5 
REMARK    4  A    between atoms: C_5  and  C_6 
REMARK    5  A    between atoms: C_5  and  N_9 
REMARK       I    between atoms: N_9  and  C_10 
REMARK    6  A    between atoms: C_10  and  C_11 
REMARK    7  A    between atoms: C_11  and  C_12 
REMARK    8  A    between atoms: C_11  and  N_18 
REMARK    9  A    between atoms: C_12  and  O_13 
REMARK   10  A    between atoms: O_13  and  P_14 
REMARK   11  A    between atoms: P_14  and  O_15 
ROOT
HETATM    1  N           1     -26.842  -6.853 -19.009  0.00  0.00    -0.345 N 
HETATM    2  C           1     -27.736  -6.032 -18.378  0.00  0.00     0.251 C 
HETATM    3  O           1     -28.492  -5.349 -19.028  0.00  0.00    -0.271 OA
HETATM    4  H           1     -26.209  -7.425 -18.465  0.00  0.00     0.163 HD
ENDROOT
BRANCH   2   5
HETATM    5  C           1     -27.778  -5.979 -16.871  0.00  0.00     0.298 C 
BRANCH   5   6
HETATM    6  C           1     -28.465  -4.694 -16.425  0.00  0.00     0.224 C 
BRANCH   6   7
HETATM    7  O           1     -29.721  -5.001 -15.878  0.00  0.00    -0.287 OA
BRANCH   7   8
HETATM    8  P           1     -30.987  -4.806 -16.861  0.00  0.00     0.406 P 
HETATM    9  O           1     -32.136  -4.286 -16.087  0.00  0.00    -0.624 OA
HETATM   10  O           1     -31.346  -6.107 -17.466  0.00  0.00    -0.624 OA
BRANCH   8  11
HETATM   11  O           1     -30.607  -3.756 -18.029  0.00  0.00    -0.300 OA
HETATM   12  H           1     -29.839  -4.117 -18.440  0.00  0.00     0.223 HD
ENDBRANCH   8  11
ENDBRANCH   7   8
ENDBRANCH   6   7
ENDBRANCH   5   6
BRANCH   5  13
HETATM   13  N           1     -26.379  -6.008 -16.331  0.00  0.00    -0.064 N 
HETATM   14  H           1     -25.771  -5.378 -16.902  0.00  0.00     0.275 HD
HETATM   15  H           1     -26.383  -5.681 -15.337  0.00  0.00     0.275 HD
HETATM   16  H           1     -26.008  -6.984 -16.375  0.00  0.00     0.275 HD
ENDBRANCH   5  13
ENDBRANCH   2   5
BRANCH   1  17
HETATM   17  C           1     -26.802  -6.905 -20.458  0.00  0.00     0.185 C 
BRANCH  17  18
HETATM   18  C           1     -25.364  -6.737 -20.932  0.00  0.00     0.036 C 
BRANCH  18  19
HETATM   19  C           1     -24.429  -7.489 -19.994  0.00  0.00     0.003 C 
BRANCH  19  20
HETATM   20 Se           1     -23.031  -8.363 -21.034  0.00  0.00     0.000 Se
HETATM   21  C           1     -23.702  -7.750 -22.759  0.00  0.00     0.000 C 
ENDBRANCH  19  20
ENDBRANCH  18  19
ENDBRANCH  17  18
BRANCH  17  22
HETATM   22  C           1     -27.337  -8.234 -20.929  0.00  0.00     0.196 C 
HETATM   23  O           1     -28.429  -8.658 -20.494  0.00  0.00    -0.646 OA
HETATM   24  O           1     -26.686  -8.913 -21.754  0.00  0.00    -0.646 OA
ENDBRANCH  17  22
ENDBRANCH   1  17
TORSDOF 11
ENDMDL
MODEL 9
REMARK VINA RESULT:      -5.2      2.350      2.896
REMARK  11 active torsions:
REMARK  status: ('A' for Active; 'I' for Inactive)
REMARK    1  A    between atoms: Se_2  and  C_3 
REMARK    2  A    between atoms: C_3  and  C_4 
REMARK    3  A    between atoms: C_4  and  C_5 
REMARK    4  A    between atoms: C_5  and  C_6 
REMARK    5  A    between atoms: C_5  and  N_9 
REMARK       I    between atoms: N_9  and  C_10 
REMARK    6  A    between atoms: C_10  and  C_11 
REMARK    7  A    between atoms: C_11  and  C_12 
REMARK    8  A    between atoms: C_11  and  N_18 
REMARK    9  A    between atoms: C_12  and  O_13 
REMARK   10  A    between atoms: O_13  and  P_14 
REMARK   11  A    between atoms: P_14  and  O_15 
ROOT
HETATM    1  N           1     -31.797  -5.093 -16.267  0.00  0.00    -0.345 N 
HETATM    2  C           1     -32.663  -4.117 -16.679  0.00  0.00     0.251 C 
HETATM    3  O           1     -32.259  -3.190 -17.340  0.00  0.00    -0.271 OA
HETATM    4  H           1     -32.136  -5.869 -15.714  0.00  0.00     0.163 HD
ENDROOT
BRANCH   2   5
HETATM    5  C           1     -34.124  -4.199 -16.309  0.00  0.00     0.298 C 
BRANCH   5   6
HETATM    6  C           1     -34.379  -3.371 -15.056  0.00  0.00     0.224 C 
BRANCH   6   7
HETATM    7  O           1     -33.688  -3.935 -13.973  0.00  0.00    -0.287 OA
BRANCH   7   8
HETATM    8  P           1     -34.285  -3.615 -12.508  0.00  0.00     0.406 P 
HETATM    9  O           1     -34.891  -4.841 -11.943  0.00  0.00    -0.624 OA
HETATM   10  O           1     -35.317  -2.559 -12.616  0.00  0.00    -0.624 OA
BRANCH   8  11
HETATM   11  O           1     -33.096  -3.107 -11.540  0.00  0.00    -0.300 OA
HETATM   12  H           1     -33.513  -2.931 -10.714  0.00  0.00     0.223 HD
ENDBRANCH   8  11
ENDBRANCH   7   8
ENDBRANCH   6   7
ENDBRANCH   5   6
BRANCH   5  13
HETATM   13  N           1     -34.493  -5.628 -16.045  0.00  0.00    -0.064 N 
HETATM   14  H           1     -33.868  -6.258 -16.598  0.00  0.00     0.275 HD
HETATM   15  H           1     -34.381  -5.834 -15.025  0.00  0.00     0.275 HD
HETATM   16  H           1     -35.486  -5.790 -16.325  0.00  0.00     0.275 HD
ENDBRANCH   5  13
ENDBRANCH   2   5
BRANCH   1  17
HETATM   17  C           1     -30.394  -5.014 -16.624  0.00  0.00     0.185 C 
BRANCH  17  18
HETATM   18  C           1     -29.545  -5.492 -15.453  0.00  0.00     0.036 C 
BRANCH  18  19
HETATM   19  C           1     -28.072  -5.405 -15.825  0.00  0.00     0.003 C 
BRANCH  19  20
HETATM   20 Se           1     -27.255  -7.168 -15.662  0.00  0.00     0.000 Se
HETATM   21  C           1     -25.525  -6.613 -16.367  0.00  0.00     0.000 C 
ENDBRANCH  19  20
ENDBRANCH  18  19
ENDBRANCH  17  18
BRANCH  17  22
HETATM   22  C           1     -30.131  -5.886 -17.826  0.00  0.00     0.196 C 
HETATM   23  O           1     -29.502  -5.428 -18.805  0.00  0.00    -0.646 OA
HETATM   24  O           1     -30.543  -7.067 -17.845  0.00  0.00    -0.646 OA
ENDBRANCH  17  22
ENDBRANCH   1  17
TORSDOF 11
ENDMDL
