MODEL 1
REMARK VINA RESULT:      -7.6      0.000      0.000
REMARK  10 active torsions:
REMARK  status: ('A' for Active; 'I' for Inactive)
REMARK    1  A    between atoms: C_3  and  C_13 
REMARK    2  A    between atoms: C_3  and  C_20 
REMARK    3  A    between atoms: C_4  and  C_22 
REMARK    4  A    between atoms: C_4  and  O_5 
REMARK    5  A    between atoms: O_5  and  P_10 
REMARK    6  A    between atoms: N_6  and  C_13 
REMARK    7  A    between atoms: P_10  and  O_11 
REMARK    8  A    between atoms: C_13  and  C_19 
REMARK    9  A    between atoms: C_16  and  C_22 
REMARK   10  A    between atoms: N_18  and  C_22 
REMARK       I    between atoms: N_18  and  C_19 
ROOT
HETATM    1  C           1     -20.943  -6.823  -4.470  0.00  0.00     0.278 C 
ENDROOT
BRANCH   1   2
HETATM    2  C           1     -21.913  -7.911  -4.028  0.00  0.00     0.083 C 
BRANCH   2   3
HETATM    3  C           1     -21.301  -8.704  -2.915  0.00  0.00    -0.028 A 
HETATM    4  C           1     -21.529  -8.511  -1.525  0.00  0.00    -0.002 A 
HETATM    5  C           1     -20.765  -9.462  -0.847  0.00  0.00     0.042 A 
HETATM    6  C           1     -22.317  -7.616  -0.775  0.00  0.00     0.014 A 
HETATM    7  N           1     -20.099 -10.199  -1.801  0.00  0.00    -0.365 N 
HETATM    8  C           1     -20.748  -9.562   0.549  0.00  0.00     0.030 A 
HETATM    9  H           1     -19.444 -10.993  -1.595  0.00  0.00     0.165 HD
HETATM   10  C           1     -20.417  -9.749  -3.055  0.00  0.00     0.096 A 
HETATM   11  C           1     -21.538  -8.661   1.271  0.00  0.00     0.002 A 
HETATM   12  C           1     -22.311  -7.703   0.622  0.00  0.00     0.001 A 
ENDBRANCH   2   3
ENDBRANCH   1   2
BRANCH   1  13
HETATM   13  N           1     -21.196  -5.576  -3.676  0.00  0.00    -0.066 N 
HETATM   14  H           1     -20.356  -5.355  -3.095  0.00  0.00     0.275 HD
HETATM   15  H           1     -21.387  -4.781  -4.328  0.00  0.00     0.275 HD
HETATM   16  H           1     -22.023  -5.723  -3.053  0.00  0.00     0.275 HD
ENDBRANCH   1  13
BRANCH   1  17
HETATM   17  C           1     -21.144  -6.535  -5.938  0.00  0.00     0.249 C 
HETATM   18  O           1     -21.296  -7.445  -6.717  0.00  0.00    -0.271 OA
HETATM   19  N           1     -21.153  -5.241  -6.386  0.00  0.00    -0.343 N 
HETATM   20  H           1     -21.025  -4.479  -5.734  0.00  0.00     0.163 HD
BRANCH  19  21
HETATM   21  C           1     -21.346  -4.964  -7.796  0.00  0.00     0.210 C 
BRANCH  21  22
HETATM   22  C           1     -22.261  -3.757  -7.956  0.00  0.00     0.217 C 
BRANCH  22  23
HETATM   23  O           1     -23.561  -4.191  -8.250  0.00  0.00    -0.287 OA
BRANCH  23  24
HETATM   24  P           1     -24.041  -4.001  -9.780  0.00  0.00     0.406 P 
HETATM   25  O           1     -24.065  -5.317 -10.458  0.00  0.00    -0.624 OA
HETATM   26  O           1     -23.099  -3.101 -10.484  0.00  0.00    -0.624 OA
BRANCH  24  27
HETATM   27  O           1     -25.522  -3.356  -9.804  0.00  0.00    -0.300 OA
HETATM   28  H           1     -25.971  -3.803 -10.500  0.00  0.00     0.223 HD
ENDBRANCH  24  27
ENDBRANCH  23  24
ENDBRANCH  22  23
ENDBRANCH  21  22
BRANCH  21  29
HETATM   29  C           1     -20.013  -4.672  -8.440  0.00  0.00     0.198 C 
HETATM   30  O           1     -19.897  -4.717  -9.684  0.00  0.00    -0.646 OA
HETATM   31  O           1     -19.025  -4.387  -7.730  0.00  0.00    -0.646 OA
ENDBRANCH  21  29
ENDBRANCH  19  21
ENDBRANCH   1  17
TORSDOF 10
ENDMDL
MODEL 2
REMARK VINA RESULT:      -7.5      4.254      8.430
REMARK  10 active torsions:
REMARK  status: ('A' for Active; 'I' for Inactive)
REMARK    1  A    between atoms: C_3  and  C_13 
REMARK    2  A    between atoms: C_3  and  C_20 
REMARK    3  A    between atoms: C_4  and  C_22 
REMARK    4  A    between atoms: C_4  and  O_5 
REMARK    5  A    between atoms: O_5  and  P_10 
REMARK    6  A    between atoms: N_6  and  C_13 
REMARK    7  A    between atoms: P_10  and  O_11 
REMARK    8  A    between atoms: C_13  and  C_19 
REMARK    9  A    between atoms: C_16  and  C_22 
REMARK   10  A    between atoms: N_18  and  C_22 
REMARK       I    between atoms: N_18  and  C_19 
ROOT
HETATM    1  C           1     -21.562  -6.331  -5.494  0.00  0.00     0.278 C 
ENDROOT
BRANCH   1   2
HETATM    2  C           1     -20.954  -5.135  -6.213  0.00  0.00     0.083 C 
BRANCH   2   3
HETATM    3  C           1     -21.874  -4.688  -7.307  0.00  0.00    -0.028 A 
HETATM    4  C           1     -21.515  -4.465  -8.664  0.00  0.00    -0.002 A 
HETATM    5  C           1     -22.671  -4.060  -9.334  0.00  0.00     0.042 A 
HETATM    6  C           1     -20.313  -4.570  -9.391  0.00  0.00     0.014 A 
HETATM    7  N           1     -23.688  -4.040  -8.406  0.00  0.00    -0.365 N 
HETATM    8  C           1     -22.685  -3.753 -10.699  0.00  0.00     0.030 A 
HETATM    9  H           1     -24.683  -3.774  -8.613  0.00  0.00     0.165 HD
HETATM   10  C           1     -23.216  -4.418  -7.177  0.00  0.00     0.096 A 
HETATM   11  C           1     -21.479  -3.865 -11.399  0.00  0.00     0.002 A 
HETATM   12  C           1     -20.310  -4.268 -10.758  0.00  0.00     0.001 A 
ENDBRANCH   2   3
ENDBRANCH   1   2
BRANCH   1  13
HETATM   13  N           1     -21.952  -5.932  -4.102  0.00  0.00    -0.066 N 
HETATM   14  H           1     -21.291  -5.204  -3.749  0.00  0.00     0.275 HD
HETATM   15  H           1     -22.923  -5.545  -4.110  0.00  0.00     0.275 HD
HETATM   16  H           1     -21.914  -6.769  -3.476  0.00  0.00     0.275 HD
ENDBRANCH   1  13
BRANCH   1  17
HETATM   17  C           1     -20.551  -7.450  -5.432  0.00  0.00     0.249 C 
HETATM   18  O           1     -19.653  -7.498  -6.239  0.00  0.00    -0.271 OA
HETATM   19  N           1     -20.651  -8.410  -4.461  0.00  0.00    -0.343 N 
HETATM   20  H           1     -21.403  -8.370  -3.785  0.00  0.00     0.163 HD
BRANCH  19  21
HETATM   21  C           1     -19.679  -9.484  -4.401  0.00  0.00     0.210 C 
BRANCH  21  22
HETATM   22  C           1     -19.362  -9.801  -2.945  0.00  0.00     0.217 C 
BRANCH  22  23
HETATM   23  O           1     -19.731  -8.716  -2.139  0.00  0.00    -0.287 OA
BRANCH  23  24
HETATM   24  P           1     -21.158  -8.841  -1.393  0.00  0.00     0.406 P 
HETATM   25  O           1     -21.936  -7.599  -1.605  0.00  0.00    -0.624 OA
HETATM   26  O           1     -20.940  -9.046   0.056  0.00  0.00    -0.624 OA
BRANCH  24  27
HETATM   27  O           1     -21.974 -10.096  -1.999  0.00  0.00    -0.300 OA
HETATM   28  H           1     -21.322 -10.756  -2.162  0.00  0.00     0.223 HD
ENDBRANCH  24  27
ENDBRANCH  23  24
ENDBRANCH  22  23
ENDBRANCH  21  22
BRANCH  21  29
HETATM   29  C           1     -20.243 -10.712  -5.072  0.00  0.00     0.198 C 
HETATM   30  O           1     -20.882 -11.551  -4.401  0.00  0.00    -0.646 OA
HETATM   31  O           1     -20.070 -10.891  -6.296  0.00  0.00    -0.646 OA
ENDBRANCH  21  29
ENDBRANCH  19  21
ENDBRANCH   1  17
TORSDOF 10
ENDMDL
MODEL 3
REMARK VINA RESULT:      -7.3      4.146      8.364
REMARK  10 active torsions:
REMARK  status: ('A' for Active; 'I' for Inactive)
REMARK    1  A    between atoms: C_3  and  C_13 
REMARK    2  A    between atoms: C_3  and  C_20 
REMARK    3  A    between atoms: C_4  and  C_22 
REMARK    4  A    between atoms: C_4  and  O_5 
REMARK    5  A    between atoms: O_5  and  P_10 
REMARK    6  A    between atoms: N_6  and  C_13 
REMARK    7  A    between atoms: P_10  and  O_11 
REMARK    8  A    between atoms: C_13  and  C_19 
REMARK    9  A    between atoms: C_16  and  C_22 
REMARK   10  A    between atoms: N_18  and  C_22 
REMARK       I    between atoms: N_18  and  C_19 
ROOT
HETATM    1  C           1     -21.630  -6.357  -5.857  0.00  0.00     0.278 C 
ENDROOT
BRANCH   1   2
HETATM    2  C           1     -20.894  -5.035  -6.025  0.00  0.00     0.083 C 
BRANCH   2   3
HETATM    3  C           1     -20.809  -4.690  -7.480  0.00  0.00    -0.028 A 
HETATM    4  C           1     -21.897  -4.321  -8.318  0.00  0.00    -0.002 A 
HETATM    5  C           1     -21.374  -4.088  -9.591  0.00  0.00     0.042 A 
HETATM    6  C           1     -23.282  -4.163  -8.115  0.00  0.00     0.014 A 
HETATM    7  N           1     -20.017  -4.310  -9.517  0.00  0.00    -0.365 N 
HETATM    8  C           1     -22.170  -3.702 -10.675  0.00  0.00     0.030 A 
HETATM    9  H           1     -19.349  -4.212 -10.321  0.00  0.00     0.165 HD
HETATM   10  C           1     -19.665  -4.675  -8.244  0.00  0.00     0.096 A 
HETATM   11  C           1     -23.542  -3.552 -10.449  0.00  0.00     0.002 A 
HETATM   12  C           1     -24.092  -3.778  -9.190  0.00  0.00     0.001 A 
ENDBRANCH   2   3
ENDBRANCH   1   2
BRANCH   1  13
HETATM   13  N           1     -22.785  -6.169  -4.920  0.00  0.00    -0.066 N 
HETATM   14  H           1     -23.681  -6.338  -5.430  0.00  0.00     0.275 HD
HETATM   15  H           1     -22.704  -6.847  -4.127  0.00  0.00     0.275 HD
HETATM   16  H           1     -22.775  -5.192  -4.547  0.00  0.00     0.275 HD
ENDBRANCH   1  13
BRANCH   1  17
HETATM   17  C           1     -20.687  -7.391  -5.293  0.00  0.00     0.249 C 
HETATM   18  O           1     -19.655  -7.645  -5.868  0.00  0.00    -0.271 OA
HETATM   19  N           1     -21.001  -8.042  -4.131  0.00  0.00    -0.343 N 
HETATM   20  H           1     -21.866  -7.831  -3.650  0.00  0.00     0.163 HD
BRANCH  19  21
HETATM   21  C           1     -20.095  -9.036  -3.589  0.00  0.00     0.210 C 
BRANCH  21  22
HETATM   22  C           1     -19.913  -8.796  -2.095  0.00  0.00     0.217 C 
BRANCH  22  23
HETATM   23  O           1     -20.749  -7.749  -1.685  0.00  0.00    -0.287 OA
BRANCH  23  24
HETATM   24  P           1     -21.852  -8.121  -0.566  0.00  0.00     0.406 P 
HETATM   25  O           1     -22.856  -7.036  -0.481  0.00  0.00    -0.624 OA
HETATM   26  O           1     -21.188  -8.283   0.747  0.00  0.00    -0.624 OA
BRANCH  24  27
HETATM   27  O           1     -22.587  -9.502  -0.972  0.00  0.00    -0.300 OA
HETATM   28  H           1     -23.248  -9.253  -1.594  0.00  0.00     0.223 HD
ENDBRANCH  24  27
ENDBRANCH  23  24
ENDBRANCH  22  23
ENDBRANCH  21  22
BRANCH  21  29
HETATM   29  C           1     -20.667 -10.415  -3.810  0.00  0.00     0.198 C 
HETATM   30  O           1     -20.824 -10.846  -4.973  0.00  0.00    -0.646 OA
HETATM   31  O           1     -20.985 -11.124  -2.832  0.00  0.00    -0.646 OA
ENDBRANCH  21  29
ENDBRANCH  19  21
ENDBRANCH   1  17
TORSDOF 10
ENDMDL
MODEL 4
REMARK VINA RESULT:      -7.3      4.501      8.685
REMARK  10 active torsions:
REMARK  status: ('A' for Active; 'I' for Inactive)
REMARK    1  A    between atoms: C_3  and  C_13 
REMARK    2  A    between atoms: C_3  and  C_20 
REMARK    3  A    between atoms: C_4  and  C_22 
REMARK    4  A    between atoms: C_4  and  O_5 
REMARK    5  A    between atoms: O_5  and  P_10 
REMARK    6  A    between atoms: N_6  and  C_13 
REMARK    7  A    between atoms: P_10  and  O_11 
REMARK    8  A    between atoms: C_13  and  C_19 
REMARK    9  A    between atoms: C_16  and  C_22 
REMARK   10  A    between atoms: N_18  and  C_22 
REMARK       I    between atoms: N_18  and  C_19 
ROOT
HETATM    1  C           1     -21.530  -6.282  -5.403  0.00  0.00     0.278 C 
ENDROOT
BRANCH   1   2
HETATM    2  C           1     -20.937  -5.089  -6.141  0.00  0.00     0.083 C 
BRANCH   2   3
HETATM    3  C           1     -21.856  -4.679  -7.250  0.00  0.00    -0.028 A 
HETATM    4  C           1     -21.493  -4.489  -8.612  0.00  0.00    -0.002 A 
HETATM    5  C           1     -22.650  -4.112  -9.296  0.00  0.00     0.042 A 
HETATM    6  C           1     -20.287  -4.603  -9.331  0.00  0.00     0.014 A 
HETATM    7  N           1     -23.671  -4.076  -8.373  0.00  0.00    -0.365 N 
HETATM    8  C           1     -22.660  -3.841 -10.669  0.00  0.00     0.030 A 
HETATM    9  H           1     -24.667  -3.824  -8.591  0.00  0.00     0.165 HD
HETATM   10  C           1     -23.201  -4.418  -7.133  0.00  0.00     0.096 A 
HETATM   11  C           1     -21.451  -3.961 -11.361  0.00  0.00     0.002 A 
HETATM   12  C           1     -20.281  -4.336 -10.705  0.00  0.00     0.001 A 
ENDBRANCH   2   3
ENDBRANCH   1   2
BRANCH   1  13
HETATM   13  N           1     -21.681  -5.945  -3.950  0.00  0.00    -0.066 N 
HETATM   14  H           1     -21.696  -6.825  -3.387  0.00  0.00     0.275 HD
HETATM   15  H           1     -20.877  -5.351  -3.645  0.00  0.00     0.275 HD
HETATM   16  H           1     -22.576  -5.424  -3.805  0.00  0.00     0.275 HD
ENDBRANCH   1  13
BRANCH   1  17
HETATM   17  C           1     -20.614  -7.472  -5.552  0.00  0.00     0.249 C 
HETATM   18  O           1     -19.659  -7.411  -6.288  0.00  0.00    -0.271 OA
HETATM   19  N           1     -20.867  -8.621  -4.851  0.00  0.00    -0.343 N 
HETATM   20  H           1     -21.668  -8.672  -4.236  0.00  0.00     0.163 HD
BRANCH  19  21
HETATM   21  C           1     -19.987  -9.765  -4.994  0.00  0.00     0.210 C 
BRANCH  21  22
HETATM   22  C           1     -19.339 -10.076  -3.651  0.00  0.00     0.217 C 
BRANCH  22  23
HETATM   23  O           1     -18.226  -9.244  -3.465  0.00  0.00    -0.287 OA
BRANCH  23  24
HETATM   24  P           1     -16.782  -9.945  -3.637  0.00  0.00     0.406 P 
HETATM   25  O           1     -15.810  -9.307  -2.721  0.00  0.00    -0.624 OA
HETATM   26  O           1     -16.320  -9.787  -5.034  0.00  0.00    -0.624 OA
BRANCH  24  27
HETATM   27  O           1     -16.900 -11.517  -3.284  0.00  0.00    -0.300 OA
HETATM   28  H           1     -16.174 -11.694  -2.711  0.00  0.00     0.223 HD
ENDBRANCH  24  27
ENDBRANCH  23  24
ENDBRANCH  22  23
ENDBRANCH  21  22
BRANCH  21  29
HETATM   29  C           1     -20.785 -10.960  -5.455  0.00  0.00     0.198 C 
HETATM   30  O           1     -21.325 -11.712  -4.615  0.00  0.00    -0.646 OA
HETATM   31  O           1     -20.904 -11.199  -6.675  0.00  0.00    -0.646 OA
ENDBRANCH  21  29
ENDBRANCH  19  21
ENDBRANCH   1  17
TORSDOF 10
ENDMDL
MODEL 5
REMARK VINA RESULT:      -7.2      4.126      8.377
REMARK  10 active torsions:
REMARK  status: ('A' for Active; 'I' for Inactive)
REMARK    1  A    between atoms: C_3  and  C_13 
REMARK    2  A    between atoms: C_3  and  C_20 
REMARK    3  A    between atoms: C_4  and  C_22 
REMARK    4  A    between atoms: C_4  and  O_5 
REMARK    5  A    between atoms: O_5  and  P_10 
REMARK    6  A    between atoms: N_6  and  C_13 
REMARK    7  A    between atoms: P_10  and  O_11 
REMARK    8  A    between atoms: C_13  and  C_19 
REMARK    9  A    between atoms: C_16  and  C_22 
REMARK   10  A    between atoms: N_18  and  C_22 
REMARK       I    between atoms: N_18  and  C_19 
ROOT
HETATM    1  C           1     -21.698  -6.458  -5.146  0.00  0.00     0.278 C 
ENDROOT
BRANCH   1   2
HETATM    2  C           1     -20.860  -5.722  -6.183  0.00  0.00     0.083 C 
BRANCH   2   3
HETATM    3  C           1     -21.763  -5.043  -7.166  0.00  0.00    -0.028 A 
HETATM    4  C           1     -21.430  -4.686  -8.501  0.00  0.00    -0.002 A 
HETATM    5  C           1     -22.557  -4.079  -9.058  0.00  0.00     0.042 A 
HETATM    6  C           1     -20.274  -4.821  -9.294  0.00  0.00     0.014 A 
HETATM    7  N           1     -23.533  -4.073  -8.086  0.00  0.00    -0.365 N 
HETATM    8  C           1     -22.585  -3.598 -10.372  0.00  0.00     0.030 A 
HETATM    9  H           1     -24.499  -3.680  -8.209  0.00  0.00     0.165 HD
HETATM   10  C           1     -23.063  -4.654  -6.938  0.00  0.00     0.096 A 
HETATM   11  C           1     -21.425  -3.745 -11.138  0.00  0.00     0.002 A 
HETATM   12  C           1     -20.285  -4.346 -10.610  0.00  0.00     0.001 A 
ENDBRANCH   2   3
ENDBRANCH   1   2
BRANCH   1  13
HETATM   13  N           1     -21.483  -5.838  -3.798  0.00  0.00    -0.066 N 
HETATM   14  H           1     -21.446  -6.586  -3.070  0.00  0.00     0.275 HD
HETATM   15  H           1     -20.580  -5.309  -3.799  0.00  0.00     0.275 HD
HETATM   16  H           1     -22.270  -5.184  -3.586  0.00  0.00     0.275 HD
ENDBRANCH   1  13
BRANCH   1  17
HETATM   17  C           1     -21.286  -7.910  -5.104  0.00  0.00     0.249 C 
HETATM   18  O           1     -21.257  -8.559  -6.122  0.00  0.00    -0.271 OA
HETATM   19  N           1     -20.947  -8.490  -3.911  0.00  0.00    -0.343 N 
HETATM   20  H           1     -20.972  -7.946  -3.059  0.00  0.00     0.163 HD
BRANCH  19  21
HETATM   21  C           1     -20.551  -9.884  -3.870  0.00  0.00     0.210 C 
BRANCH  21  22
HETATM   22  C           1     -19.031  -9.979  -3.841  0.00  0.00     0.217 C 
BRANCH  22  23
HETATM   23  O           1     -18.615 -11.067  -4.620  0.00  0.00    -0.287 OA
BRANCH  23  24
HETATM   24  P           1     -18.098 -10.714  -6.109  0.00  0.00     0.406 P 
HETATM   25  O           1     -18.960 -11.390  -7.105  0.00  0.00    -0.624 OA
HETATM   26  O           1     -16.702 -11.180  -6.269  0.00  0.00    -0.624 OA
BRANCH  24  27
HETATM   27  O           1     -18.162  -9.117  -6.337  0.00  0.00    -0.300 OA
HETATM   28  H           1     -18.425  -9.009  -7.235  0.00  0.00     0.223 HD
ENDBRANCH  24  27
ENDBRANCH  23  24
ENDBRANCH  22  23
ENDBRANCH  21  22
BRANCH  21  29
HETATM   29  C           1     -21.119 -10.534  -2.632  0.00  0.00     0.198 C 
HETATM   30  O           1     -22.162 -10.081  -2.113  0.00  0.00    -0.646 OA
HETATM   31  O           1     -20.546 -11.522  -2.127  0.00  0.00    -0.646 OA
ENDBRANCH  21  29
ENDBRANCH  19  21
ENDBRANCH   1  17
TORSDOF 10
ENDMDL
MODEL 6
REMARK VINA RESULT:      -7.1     13.332     15.638
REMARK  10 active torsions:
REMARK  status: ('A' for Active; 'I' for Inactive)
REMARK    1  A    between atoms: C_3  and  C_13 
REMARK    2  A    between atoms: C_3  and  C_20 
REMARK    3  A    between atoms: C_4  and  C_22 
REMARK    4  A    between atoms: C_4  and  O_5 
REMARK    5  A    between atoms: O_5  and  P_10 
REMARK    6  A    between atoms: N_6  and  C_13 
REMARK    7  A    between atoms: P_10  and  O_11 
REMARK    8  A    between atoms: C_13  and  C_19 
REMARK    9  A    between atoms: C_16  and  C_22 
REMARK   10  A    between atoms: N_18  and  C_22 
REMARK       I    between atoms: N_18  and  C_19 
ROOT
HETATM    1  C           1     -29.377  -6.425 -16.275  0.00  0.00     0.278 C 
ENDROOT
BRANCH   1   2
HETATM    2  C           1     -28.384  -5.356 -16.711  0.00  0.00     0.083 C 
BRANCH   2   3
HETATM    3  C           1     -27.053  -5.989 -16.977  0.00  0.00    -0.028 A 
HETATM    4  C           1     -26.516  -6.306 -18.254  0.00  0.00    -0.002 A 
HETATM    5  C           1     -25.261  -6.879 -18.042  0.00  0.00     0.042 A 
HETATM    6  C           1     -26.979  -6.161 -19.577  0.00  0.00     0.014 A 
HETATM    7  N           1     -25.054  -6.904 -16.681  0.00  0.00    -0.365 N 
HETATM    8  C           1     -24.442  -7.315 -19.091  0.00  0.00     0.030 A 
HETATM    9  H           1     -24.192  -7.280 -16.213  0.00  0.00     0.165 HD
HETATM   10  C           1     -26.132  -6.368 -16.028  0.00  0.00     0.096 A 
HETATM   11  C           1     -24.924  -7.160 -20.394  0.00  0.00     0.002 A 
HETATM   12  C           1     -26.172  -6.591 -20.637  0.00  0.00     0.001 A 
ENDBRANCH   2   3
ENDBRANCH   1   2
BRANCH   1  13
HETATM   13  N           1     -28.955  -7.754 -16.825  0.00  0.00    -0.066 N 
HETATM   14  H           1     -28.067  -8.057 -16.365  0.00  0.00     0.275 HD
HETATM   15  H           1     -29.702  -8.461 -16.640  0.00  0.00     0.275 HD
HETATM   16  H           1     -28.801  -7.670 -17.856  0.00  0.00     0.275 HD
ENDBRANCH   1  13
BRANCH   1  17
HETATM   17  C           1     -30.751  -6.078 -16.794  0.00  0.00     0.249 C 
HETATM   18  O           1     -31.226  -6.705 -17.710  0.00  0.00    -0.271 OA
HETATM   19  N           1     -31.459  -5.053 -16.225  0.00  0.00    -0.343 N 
HETATM   20  H           1     -31.060  -4.528 -15.458  0.00  0.00     0.163 HD
BRANCH  19  21
HETATM   21  C           1     -32.779  -4.720 -16.724  0.00  0.00     0.210 C 
BRANCH  21  22
HETATM   22  C           1     -33.769  -4.701 -15.566  0.00  0.00     0.217 C 
BRANCH  22  23
HETATM   23  O           1     -33.193  -4.044 -14.470  0.00  0.00    -0.287 OA
BRANCH  23  24
HETATM   24  P           1     -34.059  -4.050 -13.107  0.00  0.00     0.406 P 
HETATM   25  O           1     -34.900  -2.833 -13.050  0.00  0.00    -0.624 OA
HETATM   26  O           1     -33.145  -4.072 -11.943  0.00  0.00    -0.624 OA
BRANCH  24  27
HETATM   27  O           1     -35.004  -5.359 -13.075  0.00  0.00    -0.300 OA
HETATM   28  H           1     -35.087  -5.578 -12.163  0.00  0.00     0.223 HD
ENDBRANCH  24  27
ENDBRANCH  23  24
ENDBRANCH  22  23
ENDBRANCH  21  22
BRANCH  21  29
HETATM   29  C           1     -32.744  -3.360 -17.377  0.00  0.00     0.198 C 
HETATM   30  O           1     -33.744  -2.613 -17.317  0.00  0.00    -0.646 OA
HETATM   31  O           1     -31.716  -2.982 -17.977  0.00  0.00    -0.646 OA
ENDBRANCH  21  29
ENDBRANCH  19  21
ENDBRANCH   1  17
TORSDOF 10
ENDMDL
MODEL 7
REMARK VINA RESULT:      -7.1      4.345      8.868
REMARK  10 active torsions:
REMARK  status: ('A' for Active; 'I' for Inactive)
REMARK    1  A    between atoms: C_3  and  C_13 
REMARK    2  A    between atoms: C_3  and  C_20 
REMARK    3  A    between atoms: C_4  and  C_22 
REMARK    4  A    between atoms: C_4  and  O_5 
REMARK    5  A    between atoms: O_5  and  P_10 
REMARK    6  A    between atoms: N_6  and  C_13 
REMARK    7  A    between atoms: P_10  and  O_11 
REMARK    8  A    between atoms: C_13  and  C_19 
REMARK    9  A    between atoms: C_16  and  C_22 
REMARK   10  A    between atoms: N_18  and  C_22 
REMARK       I    between atoms: N_18  and  C_19 
ROOT
HETATM    1  C           1     -20.672  -5.868  -5.899  0.00  0.00     0.278 C 
ENDROOT
BRANCH   1   2
HETATM    2  C           1     -21.066  -4.424  -6.180  0.00  0.00     0.083 C 
BRANCH   2   3
HETATM    3  C           1     -21.968  -4.375  -7.374  0.00  0.00    -0.028 A 
HETATM    4  C           1     -21.557  -4.264  -8.731  0.00  0.00    -0.002 A 
HETATM    5  C           1     -22.714  -4.254  -9.512  0.00  0.00     0.042 A 
HETATM    6  C           1     -20.306  -4.170  -9.372  0.00  0.00     0.014 A 
HETATM    7  N           1     -23.783  -4.355  -8.650  0.00  0.00    -0.365 N 
HETATM    8  C           1     -22.683  -4.154 -10.907  0.00  0.00     0.030 A 
HETATM    9  H           1     -24.791  -4.374  -8.944  0.00  0.00     0.165 HD
HETATM   10  C           1     -23.342  -4.429  -7.355  0.00  0.00     0.096 A 
HETATM   11  C           1     -21.429  -4.063 -11.521  0.00  0.00     0.002 A 
HETATM   12  C           1     -20.258  -4.071 -10.768  0.00  0.00     0.001 A 
ENDBRANCH   2   3
ENDBRANCH   1   2
BRANCH   1  13
HETATM   13  N           1     -20.828  -6.680  -7.149  0.00  0.00    -0.066 N 
HETATM   14  H           1     -21.827  -6.969  -7.256  0.00  0.00     0.275 HD
HETATM   15  H           1     -20.543  -6.107  -7.975  0.00  0.00     0.275 HD
HETATM   16  H           1     -20.225  -7.532  -7.089  0.00  0.00     0.275 HD
ENDBRANCH   1  13
BRANCH   1  17
HETATM   17  C           1     -21.562  -6.431  -4.817  0.00  0.00     0.249 C 
HETATM   18  O           1     -22.761  -6.307  -4.896  0.00  0.00    -0.271 OA
HETATM   19  N           1     -21.009  -7.083  -3.748  0.00  0.00    -0.343 N 
HETATM   20  H           1     -20.005  -7.187  -3.682  0.00  0.00     0.163 HD
BRANCH  19  21
HETATM   21  C           1     -21.864  -7.625  -2.709  0.00  0.00     0.210 C 
BRANCH  21  22
HETATM   22  C           1     -21.157  -8.789  -2.026  0.00  0.00     0.217 C 
BRANCH  22  23
HETATM   23  O           1     -22.037  -9.875  -1.923  0.00  0.00    -0.287 OA
BRANCH  23  24
HETATM   24  P           1     -22.358 -10.385  -0.425  0.00  0.00     0.406 P 
HETATM   25  O           1     -21.841 -11.761  -0.250  0.00  0.00    -0.624 OA
HETATM   26  O           1     -23.822 -10.377  -0.204  0.00  0.00    -0.624 OA
BRANCH  24  27
HETATM   27  O           1     -21.646  -9.404   0.643  0.00  0.00    -0.300 OA
HETATM   28  H           1     -21.460  -8.615   0.164  0.00  0.00     0.223 HD
ENDBRANCH  24  27
ENDBRANCH  23  24
ENDBRANCH  22  23
ENDBRANCH  21  22
BRANCH  21  29
HETATM   29  C           1     -22.162  -6.552  -1.691  0.00  0.00     0.198 C 
HETATM   30  O           1     -22.644  -6.862  -0.580  0.00  0.00    -0.646 OA
HETATM   31  O           1     -21.929  -5.354  -1.960  0.00  0.00    -0.646 OA
ENDBRANCH  21  29
ENDBRANCH  19  21
ENDBRANCH   1  17
TORSDOF 10
ENDMDL
MODEL 8
REMARK VINA RESULT:      -7.0      2.281      3.103
REMARK  10 active torsions:
REMARK  status: ('A' for Active; 'I' for Inactive)
REMARK    1  A    between atoms: C_3  and  C_13 
REMARK    2  A    between atoms: C_3  and  C_20 
REMARK    3  A    between atoms: C_4  and  C_22 
REMARK    4  A    between atoms: C_4  and  O_5 
REMARK    5  A    between atoms: O_5  and  P_10 
REMARK    6  A    between atoms: N_6  and  C_13 
REMARK    7  A    between atoms: P_10  and  O_11 
REMARK    8  A    between atoms: C_13  and  C_19 
REMARK    9  A    between atoms: C_16  and  C_22 
REMARK   10  A    between atoms: N_18  and  C_22 
REMARK       I    between atoms: N_18  and  C_19 
ROOT
HETATM    1  C           1     -21.185 -10.088  -5.057  0.00  0.00     0.278 C 
ENDROOT
BRANCH   1   2
HETATM    2  C           1     -20.703 -10.869  -3.842  0.00  0.00     0.083 C 
BRANCH   2   3
HETATM    3  C           1     -21.747 -10.820  -2.770  0.00  0.00    -0.028 A 
HETATM    4  C           1     -21.900  -9.796  -1.795  0.00  0.00    -0.002 A 
HETATM    5  C           1     -22.990 -10.148  -0.998  0.00  0.00     0.042 A 
HETATM    6  C           1     -21.213  -8.599  -1.514  0.00  0.00     0.014 A 
HETATM    7  N           1     -23.474 -11.344  -1.479  0.00  0.00    -0.365 N 
HETATM    8  C           1     -23.430  -9.359   0.071  0.00  0.00     0.030 A 
HETATM    9  H           1     -24.296 -11.862  -1.082  0.00  0.00     0.165 HD
HETATM   10  C           1     -22.728 -11.759  -2.551  0.00  0.00     0.096 A 
HETATM   11  C           1     -22.731  -8.175   0.331  0.00  0.00     0.002 A 
HETATM   12  C           1     -21.640  -7.798  -0.448  0.00  0.00     0.001 A 
ENDBRANCH   2   3
ENDBRANCH   1   2
BRANCH   1  13
HETATM   13  N           1     -20.974 -10.909  -6.294  0.00  0.00    -0.066 N 
HETATM   14  H           1     -20.098 -10.601  -6.773  0.00  0.00     0.275 HD
HETATM   15  H           1     -20.891 -11.918  -6.032  0.00  0.00     0.275 HD
HETATM   16  H           1     -21.787 -10.782  -6.939  0.00  0.00     0.275 HD
ENDBRANCH   1  13
BRANCH   1  17
HETATM   17  C           1     -20.408  -8.799  -5.170  0.00  0.00     0.249 C 
HETATM   18  O           1     -19.316  -8.706  -4.662  0.00  0.00    -0.271 OA
HETATM   19  N           1     -20.941  -7.736  -5.848  0.00  0.00    -0.343 N 
HETATM   20  H           1     -21.856  -7.813  -6.272  0.00  0.00     0.163 HD
BRANCH  19  21
HETATM   21  C           1     -20.194  -6.498  -5.956  0.00  0.00     0.210 C 
BRANCH  21  22
HETATM   22  C           1     -20.408  -5.896  -7.339  0.00  0.00     0.217 C 
BRANCH  22  23
HETATM   23  O           1     -21.780  -5.733  -7.571  0.00  0.00    -0.287 OA
BRANCH  23  24
HETATM   24  P           1     -22.238  -4.289  -8.130  0.00  0.00     0.406 P 
HETATM   25  O           1     -21.942  -4.202  -9.578  0.00  0.00    -0.624 OA
HETATM   26  O           1     -21.500  -3.226  -7.411  0.00  0.00    -0.624 OA
BRANCH  24  27
HETATM   27  O           1     -23.824  -4.098  -7.893  0.00  0.00    -0.300 OA
HETATM   28  H           1     -24.231  -4.769  -8.413  0.00  0.00     0.223 HD
ENDBRANCH  24  27
ENDBRANCH  23  24
ENDBRANCH  22  23
ENDBRANCH  21  22
BRANCH  21  29
HETATM   29  C           1     -20.673  -5.526  -4.906  0.00  0.00     0.198 C 
HETATM   30  O           1     -20.089  -4.431  -4.756  0.00  0.00    -0.646 OA
HETATM   31  O           1     -21.652  -5.816  -4.186  0.00  0.00    -0.646 OA
ENDBRANCH  21  29
ENDBRANCH  19  21
ENDBRANCH   1  17
TORSDOF 10
ENDMDL
MODEL 9
REMARK VINA RESULT:      -7.0      3.980      8.262
REMARK  10 active torsions:
REMARK  status: ('A' for Active; 'I' for Inactive)
REMARK    1  A    between atoms: C_3  and  C_13 
REMARK    2  A    between atoms: C_3  and  C_20 
REMARK    3  A    between atoms: C_4  and  C_22 
REMARK    4  A    between atoms: C_4  and  O_5 
REMARK    5  A    between atoms: O_5  and  P_10 
REMARK    6  A    between atoms: N_6  and  C_13 
REMARK    7  A    between atoms: P_10  and  O_11 
REMARK    8  A    between atoms: C_13  and  C_19 
REMARK    9  A    between atoms: C_16  and  C_22 
REMARK   10  A    between atoms: N_18  and  C_22 
REMARK       I    between atoms: N_18  and  C_19 
ROOT
HETATM    1  C           1     -20.002  -5.557  -6.206  0.00  0.00     0.278 C 
ENDROOT
BRANCH   1   2
HETATM    2  C           1     -20.647  -4.194  -6.421  0.00  0.00     0.083 C 
BRANCH   2   3
HETATM    3  C           1     -21.692  -4.298  -7.489  0.00  0.00    -0.028 A 
HETATM    4  C           1     -21.469  -4.209  -8.890  0.00  0.00    -0.002 A 
HETATM    5  C           1     -22.709  -4.358  -9.514  0.00  0.00     0.042 A 
HETATM    6  C           1     -20.327  -4.015  -9.692  0.00  0.00     0.014 A 
HETATM    7  N           1     -23.644  -4.530  -8.517  0.00  0.00    -0.365 N 
HETATM    8  C           1     -22.864  -4.322 -10.904  0.00  0.00     0.030 A 
HETATM    9  H           1     -24.672  -4.669  -8.677  0.00  0.00     0.165 HD
HETATM   10  C           1     -23.038  -4.495  -7.289  0.00  0.00     0.096 A 
HETATM   11  C           1     -21.715  -4.129 -11.678  0.00  0.00     0.002 A 
HETATM   12  C           1     -20.465  -3.977 -11.084  0.00  0.00     0.001 A 
ENDBRANCH   2   3
ENDBRANCH   1   2
BRANCH   1  13
HETATM   13  N           1     -20.099  -6.359  -7.469  0.00  0.00    -0.066 N 
HETATM   14  H           1     -19.140  -6.629  -7.786  0.00  0.00     0.275 HD
HETATM   15  H           1     -20.662  -7.222  -7.292  0.00  0.00     0.275 HD
HETATM   16  H           1     -20.562  -5.786  -8.211  0.00  0.00     0.275 HD
ENDBRANCH   1  13
BRANCH   1  17
HETATM   17  C           1     -20.717  -6.283  -5.093  0.00  0.00     0.249 C 
HETATM   18  O           1     -21.528  -5.699  -4.414  0.00  0.00    -0.271 OA
HETATM   19  N           1     -20.446  -7.604  -4.853  0.00  0.00    -0.343 N 
HETATM   20  H           1     -19.767  -8.092  -5.421  0.00  0.00     0.163 HD
BRANCH  19  21
HETATM   21  C           1     -21.133  -8.301  -3.783  0.00  0.00     0.210 C 
BRANCH  21  22
HETATM   22  C           1     -21.667  -9.630  -4.305  0.00  0.00     0.217 C 
BRANCH  22  23
HETATM   23  O           1     -21.149  -9.871  -5.584  0.00  0.00    -0.287 OA
BRANCH  23  24
HETATM   24  P           1     -20.526 -11.341  -5.830  0.00  0.00     0.406 P 
HETATM   25  O           1     -19.445 -11.257  -6.838  0.00  0.00    -0.624 OA
HETATM   26  O           1     -21.587 -12.250  -6.319  0.00  0.00    -0.624 OA
BRANCH  24  27
HETATM   27  O           1     -19.925 -11.910  -4.443  0.00  0.00    -0.300 OA
HETATM   28  H           1     -18.997 -11.766  -4.502  0.00  0.00     0.223 HD
ENDBRANCH  24  27
ENDBRANCH  23  24
ENDBRANCH  22  23
ENDBRANCH  21  22
BRANCH  21  29
HETATM   29  C           1     -20.172  -8.557  -2.648  0.00  0.00     0.198 C 
HETATM   30  O           1     -20.232  -7.861  -1.612  0.00  0.00    -0.646 OA
HETATM   31  O           1     -19.317  -9.462  -2.746  0.00  0.00    -0.646 OA
ENDBRANCH  21  29
ENDBRANCH  19  21
ENDBRANCH   1  17
TORSDOF 10
ENDMDL
