MODEL 1
REMARK VINA RESULT:      -8.0      0.000      0.000
REMARK  8 active torsions:
REMARK  status: ('A' for Active; 'I' for Inactive)
REMARK    1  A    between atoms: C_2  and  C_3 
REMARK    2  A    between atoms: C_3  and  C_23 
REMARK    3  A    between atoms: C_4  and  C_5 
REMARK    4  A    between atoms: C_4  and  C_11 
REMARK    5  A    between atoms: C_4  and  N_21 
REMARK       I    between atoms: C_5  and  N_17 
REMARK    6  A    between atoms: O_8  and  C_11 
REMARK    7  A    between atoms: C_13  and  C_23 
REMARK    8  A    between atoms: N_17  and  C_23 
ROOT
HETATM    1  C           1     -35.194   0.271 -14.147  0.00  0.00     0.251 C 
HETATM    2  O           1     -34.470   1.191 -13.851  0.00  0.00    -0.271 OA
HETATM    3  H           1     -34.336  -1.611 -14.221  0.00  0.00     0.163 HD
HETATM    4  N           1     -34.925  -0.988 -13.683  0.00  0.00    -0.344 N 
ENDROOT
BRANCH   4   5
HETATM    5  C           1     -35.484  -1.431 -12.420  0.00  0.00     0.189 C 
BRANCH   5   6
HETATM    6  C           1     -34.358  -1.666 -11.422  0.00  0.00     0.074 C 
BRANCH   6   7
HETATM    7  C           1     -34.090  -3.135 -11.310  0.00  0.00    -0.056 A 
HETATM    8  C           1     -35.083  -3.992 -10.840  0.00  0.00     0.007 A 
HETATM    9  C           1     -34.832  -5.360 -10.736  0.00  0.00     0.001 A 
HETATM   10  C           1     -33.587  -5.870 -11.101  0.00  0.00     0.000 A 
HETATM   11  C           1     -32.592  -5.013 -11.572  0.00  0.00     0.001 A 
HETATM   12  C           1     -32.844  -3.645 -11.676  0.00  0.00     0.007 A 
ENDBRANCH   6   7
ENDBRANCH   5   6
BRANCH   5  13
HETATM   13  C           1     -36.419  -0.373 -11.886  0.00  0.00     0.197 C 
HETATM   14  O           1     -35.989   0.501 -11.102  0.00  0.00    -0.646 OA
HETATM   15  O           1     -37.621  -0.371 -12.227  0.00  0.00    -0.646 OA
ENDBRANCH   5  13
ENDBRANCH   4   5
BRANCH   1  16
HETATM   16  C           1     -36.395   0.509 -15.029  0.00  0.00     0.302 C 
BRANCH  16  17
HETATM   17  C           1     -36.587  -0.681 -15.960  0.00  0.00     0.153 C 
HETATM   18  C           1     -38.074  -0.948 -16.143  0.00  0.00     0.042 C 
BRANCH  17  19
HETATM   19  O           1     -36.007  -0.399 -17.205  0.00  0.00    -0.393 OA
HETATM   20  H           1     -36.540  -0.821 -17.857  0.00  0.00     0.210 HD
ENDBRANCH  17  19
ENDBRANCH  16  17
BRANCH  16  21
HETATM   21  N           1     -36.179   1.750 -15.844  0.00  0.00    -0.064 N 
HETATM   22  H           1     -36.277   2.591 -15.232  0.00  0.00     0.275 HD
HETATM   23  H           1     -36.890   1.792 -16.609  0.00  0.00     0.275 HD
HETATM   24  H           1     -35.221   1.731 -16.259  0.00  0.00     0.275 HD
ENDBRANCH  16  21
ENDBRANCH   1  16
TORSDOF 8
ENDMDL
MODEL 2
REMARK VINA RESULT:      -7.8      1.684      2.179
REMARK  8 active torsions:
REMARK  status: ('A' for Active; 'I' for Inactive)
REMARK    1  A    between atoms: C_2  and  C_3 
REMARK    2  A    between atoms: C_3  and  C_23 
REMARK    3  A    between atoms: C_4  and  C_5 
REMARK    4  A    between atoms: C_4  and  C_11 
REMARK    5  A    between atoms: C_4  and  N_21 
REMARK       I    between atoms: C_5  and  N_17 
REMARK    6  A    between atoms: O_8  and  C_11 
REMARK    7  A    between atoms: C_13  and  C_23 
REMARK    8  A    between atoms: N_17  and  C_23 
ROOT
HETATM    1  C           1     -36.690  -0.405 -13.303  0.00  0.00     0.251 C 
HETATM    2  O           1     -37.737  -0.795 -13.762  0.00  0.00    -0.271 OA
HETATM    3  H           1     -36.796   0.985 -11.774  0.00  0.00     0.163 HD
HETATM    4  N           1     -36.626   0.014 -12.002  0.00  0.00    -0.344 N 
ENDROOT
BRANCH   4   5
HETATM    5  C           1     -36.316  -0.934 -10.949  0.00  0.00     0.189 C 
BRANCH   5   6
HETATM    6  C           1     -34.807  -1.130 -10.873  0.00  0.00     0.074 C 
BRANCH   6   7
HETATM    7  C           1     -34.485  -2.585 -11.015  0.00  0.00    -0.056 A 
HETATM    8  C           1     -35.475  -3.543 -10.802  0.00  0.00     0.007 A 
HETATM    9  C           1     -35.175  -4.898 -10.934  0.00  0.00     0.001 A 
HETATM   10  C           1     -33.883  -5.296 -11.278  0.00  0.00     0.000 A 
HETATM   11  C           1     -32.892  -4.338 -11.491  0.00  0.00     0.001 A 
HETATM   12  C           1     -33.193  -2.982 -11.359  0.00  0.00     0.007 A 
ENDBRANCH   6   7
ENDBRANCH   5   6
BRANCH   5  13
HETATM   13  C           1     -36.823  -0.405  -9.630  0.00  0.00     0.197 C 
HETATM   14  O           1     -38.047  -0.213  -9.463  0.00  0.00    -0.646 OA
HETATM   15  O           1     -36.019  -0.158  -8.705  0.00  0.00    -0.646 OA
ENDBRANCH   5  13
ENDBRANCH   4   5
BRANCH   1  16
HETATM   16  C           1     -35.452  -0.378 -14.165  0.00  0.00     0.302 C 
BRANCH  16  17
HETATM   17  C           1     -35.768   0.303 -15.490  0.00  0.00     0.153 C 
HETATM   18  C           1     -36.109  -0.751 -16.534  0.00  0.00     0.042 C 
BRANCH  17  19
HETATM   19  O           1     -36.861   1.165 -15.324  0.00  0.00    -0.393 OA
HETATM   20  H           1     -36.623   1.782 -14.652  0.00  0.00     0.210 HD
ENDBRANCH  17  19
ENDBRANCH  16  17
BRANCH  16  21
HETATM   21  N           1     -34.993  -1.783 -14.424  0.00  0.00    -0.064 N 
HETATM   22  H           1     -34.653  -1.864 -15.409  0.00  0.00     0.275 HD
HETATM   23  H           1     -35.790  -2.442 -14.276  0.00  0.00     0.275 HD
HETATM   24  H           1     -34.216  -2.021 -13.767  0.00  0.00     0.275 HD
ENDBRANCH  16  21
ENDBRANCH   1  16
TORSDOF 8
ENDMDL
MODEL 3
REMARK VINA RESULT:      -7.6      2.877      5.443
REMARK  8 active torsions:
REMARK  status: ('A' for Active; 'I' for Inactive)
REMARK    1  A    between atoms: C_2  and  C_3 
REMARK    2  A    between atoms: C_3  and  C_23 
REMARK    3  A    between atoms: C_4  and  C_5 
REMARK    4  A    between atoms: C_4  and  C_11 
REMARK    5  A    between atoms: C_4  and  N_21 
REMARK       I    between atoms: C_5  and  N_17 
REMARK    6  A    between atoms: O_8  and  C_11 
REMARK    7  A    between atoms: C_13  and  C_23 
REMARK    8  A    between atoms: N_17  and  C_23 
ROOT
HETATM    1  C           1     -34.829  -1.950 -10.674  0.00  0.00     0.251 C 
HETATM    2  O           1     -33.690  -1.717 -10.351  0.00  0.00    -0.271 OA
HETATM    3  H           1     -36.293  -1.623  -9.248  0.00  0.00     0.163 HD
HETATM    4  N           1     -35.860  -1.265 -10.090  0.00  0.00    -0.344 N 
ENDROOT
BRANCH   4   5
HETATM    5  C           1     -36.332  -0.026 -10.677  0.00  0.00     0.189 C 
BRANCH   5   6
HETATM    6  C           1     -37.370  -0.336 -11.748  0.00  0.00     0.074 C 
BRANCH   6   7
HETATM    7  C           1     -36.827   0.038 -13.092  0.00  0.00    -0.056 A 
HETATM    8  C           1     -37.635  -0.062 -14.223  0.00  0.00     0.007 A 
HETATM    9  C           1     -37.129   0.286 -15.475  0.00  0.00     0.001 A 
HETATM   10  C           1     -35.814   0.734 -15.596  0.00  0.00     0.000 A 
HETATM   11  C           1     -35.005   0.835 -14.464  0.00  0.00     0.001 A 
HETATM   12  C           1     -35.512   0.486 -13.211  0.00  0.00     0.007 A 
ENDBRANCH   6   7
ENDBRANCH   5   6
BRANCH   5  13
HETATM   13  C           1     -36.955   0.833  -9.604  0.00  0.00     0.197 C 
HETATM   14  O           1     -36.351   1.022  -8.526  0.00  0.00    -0.646 OA
HETATM   15  O           1     -38.075   1.355  -9.794  0.00  0.00    -0.646 OA
ENDBRANCH   5  13
ENDBRANCH   4   5
BRANCH   1  16
HETATM   16  C           1     -35.118  -2.998 -11.721  0.00  0.00     0.302 C 
BRANCH  16  17
HETATM   17  C           1     -34.970  -4.385 -11.108  0.00  0.00     0.153 C 
HETATM   18  C           1     -34.839  -5.419 -12.218  0.00  0.00     0.042 C 
BRANCH  17  19
HETATM   19  O           1     -33.824  -4.419 -10.300  0.00  0.00    -0.393 OA
HETATM   20  H           1     -34.088  -4.141  -9.440  0.00  0.00     0.210 HD
ENDBRANCH  17  19
ENDBRANCH  16  17
BRANCH  16  21
HETATM   21  N           1     -34.150  -2.849 -12.857  0.00  0.00    -0.064 N 
HETATM   22  H           1     -33.405  -2.165 -12.594  0.00  0.00     0.275 HD
HETATM   23  H           1     -34.656  -2.503 -13.703  0.00  0.00     0.275 HD
HETATM   24  H           1     -33.714  -3.775 -13.066  0.00  0.00     0.275 HD
ENDBRANCH  16  21
ENDBRANCH   1  16
TORSDOF 8
ENDMDL
MODEL 4
REMARK VINA RESULT:      -7.0     15.425     17.998
REMARK  8 active torsions:
REMARK  status: ('A' for Active; 'I' for Inactive)
REMARK    1  A    between atoms: C_2  and  C_3 
REMARK    2  A    between atoms: C_3  and  C_23 
REMARK    3  A    between atoms: C_4  and  C_5 
REMARK    4  A    between atoms: C_4  and  C_11 
REMARK    5  A    between atoms: C_4  and  N_21 
REMARK       I    between atoms: C_5  and  N_17 
REMARK    6  A    between atoms: O_8  and  C_11 
REMARK    7  A    between atoms: C_13  and  C_23 
REMARK    8  A    between atoms: N_17  and  C_23 
ROOT
HETATM    1  C           1     -21.585  -6.564  -3.013  0.00  0.00     0.251 C 
HETATM    2  O           1     -21.023  -5.621  -2.511  0.00  0.00    -0.271 OA
HETATM    3  H           1     -23.335  -6.171  -4.046  0.00  0.00     0.163 HD
HETATM    4  N           1     -22.351  -6.387  -4.134  0.00  0.00    -0.344 N 
ENDROOT
BRANCH   4   5
HETATM    5  C           1     -21.751  -6.509  -5.449  0.00  0.00     0.189 C 
BRANCH   5   6
HETATM    6  C           1     -20.883  -5.288  -5.725  0.00  0.00     0.074 C 
BRANCH   6   7
HETATM    7  C           1     -21.089  -4.838  -7.138  0.00  0.00    -0.056 A 
HETATM    8  C           1     -20.053  -4.953  -8.064  0.00  0.00     0.007 A 
HETATM    9  C           1     -20.245  -4.534  -9.380  0.00  0.00     0.001 A 
HETATM   10  C           1     -21.473  -3.999  -9.770  0.00  0.00     0.000 A 
HETATM   11  C           1     -22.509  -3.883  -8.843  0.00  0.00     0.001 A 
HETATM   12  C           1     -22.317  -4.303  -7.526  0.00  0.00     0.007 A 
ENDBRANCH   6   7
ENDBRANCH   5   6
BRANCH   5  13
HETATM   13  C           1     -20.900  -7.754  -5.500  0.00  0.00     0.197 C 
HETATM   14  O           1     -19.671  -7.680  -5.285  0.00  0.00    -0.646 OA
HETATM   15  O           1     -21.425  -8.859  -5.757  0.00  0.00    -0.646 OA
ENDBRANCH   5  13
ENDBRANCH   4   5
BRANCH   1  16
HETATM   16  C           1     -21.445  -7.938  -2.406  0.00  0.00     0.302 C 
BRANCH  16  17
HETATM   17  C           1     -22.213  -7.994  -1.092  0.00  0.00     0.153 C 
HETATM   18  C           1     -21.251  -8.308   0.046  0.00  0.00     0.042 C 
BRANCH  17  19
HETATM   19  O           1     -22.828  -6.756  -0.855  0.00  0.00    -0.393 OA
HETATM   20  H           1     -23.755  -6.886  -0.961  0.00  0.00     0.210 HD
ENDBRANCH  17  19
ENDBRANCH  16  17
BRANCH  16  21
HETATM   21  N           1     -19.995  -8.225  -2.148  0.00  0.00    -0.064 N 
HETATM   22  H           1     -19.435  -7.357  -2.300  0.00  0.00     0.275 HD
HETATM   23  H           1     -19.666  -8.970  -2.803  0.00  0.00     0.275 HD
HETATM   24  H           1     -19.875  -8.550  -1.163  0.00  0.00     0.275 HD
ENDBRANCH  16  21
ENDBRANCH   1  16
TORSDOF 8
ENDMDL
MODEL 5
REMARK VINA RESULT:      -6.9     14.426     16.978
REMARK  8 active torsions:
REMARK  status: ('A' for Active; 'I' for Inactive)
REMARK    1  A    between atoms: C_2  and  C_3 
REMARK    2  A    between atoms: C_3  and  C_23 
REMARK    3  A    between atoms: C_4  and  C_5 
REMARK    4  A    between atoms: C_4  and  C_11 
REMARK    5  A    between atoms: C_4  and  N_21 
REMARK       I    between atoms: C_5  and  N_17 
REMARK    6  A    between atoms: O_8  and  C_11 
REMARK    7  A    between atoms: C_13  and  C_23 
REMARK    8  A    between atoms: N_17  and  C_23 
ROOT
HETATM    1  C           1     -21.159  -5.786  -4.712  0.00  0.00     0.251 C 
HETATM    2  O           1     -20.314  -5.139  -4.143  0.00  0.00    -0.271 OA
HETATM    3  H           1     -22.781  -4.748  -5.472  0.00  0.00     0.163 HD
HETATM    4  N           1     -21.910  -5.211  -5.702  0.00  0.00    -0.344 N 
ENDROOT
BRANCH   4   5
HETATM    5  C           1     -21.460  -5.265  -7.079  0.00  0.00     0.189 C 
BRANCH   5   6
HETATM    6  C           1     -21.731  -3.927  -7.753  0.00  0.00     0.074 C 
BRANCH   6   7
HETATM    7  C           1     -22.000  -4.147  -9.210  0.00  0.00    -0.056 A 
HETATM    8  C           1     -23.265  -4.552  -9.632  0.00  0.00     0.007 A 
HETATM    9  C           1     -23.514  -4.758 -10.989  0.00  0.00     0.001 A 
HETATM   10  C           1     -22.498  -4.558 -11.923  0.00  0.00     0.000 A 
HETATM   11  C           1     -21.232  -4.152 -11.501  0.00  0.00     0.001 A 
HETATM   12  C           1     -20.983  -3.947 -10.143  0.00  0.00     0.007 A 
ENDBRANCH   6   7
ENDBRANCH   5   6
BRANCH   5  13
HETATM   13  C           1     -19.980  -5.556  -7.112  0.00  0.00     0.197 C 
HETATM   14  O           1     -19.157  -4.615  -7.085  0.00  0.00    -0.646 OA
HETATM   15  O           1     -19.576  -6.737  -7.168  0.00  0.00    -0.646 OA
ENDBRANCH   5  13
ENDBRANCH   4   5
BRANCH   1  16
HETATM   16  C           1     -21.388  -7.228  -4.333  0.00  0.00     0.302 C 
BRANCH  16  17
HETATM   17  C           1     -21.889  -7.304  -2.897  0.00  0.00     0.153 C 
HETATM   18  C           1     -20.743  -7.713  -1.981  0.00  0.00     0.042 C 
BRANCH  17  19
HETATM   19  O           1     -22.375  -6.049  -2.504  0.00  0.00    -0.393 OA
HETATM   20  H           1     -22.879  -5.712  -3.226  0.00  0.00     0.210 HD
ENDBRANCH  17  19
ENDBRANCH  16  17
BRANCH  16  21
HETATM   21  N           1     -20.100  -7.988  -4.453  0.00  0.00    -0.064 N 
HETATM   22  H           1     -20.239  -8.967  -4.117  0.00  0.00     0.275 HD
HETATM   23  H           1     -19.367  -7.522  -3.872  0.00  0.00     0.275 HD
HETATM   24  H           1     -19.797  -8.002  -5.452  0.00  0.00     0.275 HD
ENDBRANCH  16  21
ENDBRANCH   1  16
TORSDOF 8
ENDMDL
MODEL 6
REMARK VINA RESULT:      -6.8     15.797     18.165
REMARK  8 active torsions:
REMARK  status: ('A' for Active; 'I' for Inactive)
REMARK    1  A    between atoms: C_2  and  C_3 
REMARK    2  A    between atoms: C_3  and  C_23 
REMARK    3  A    between atoms: C_4  and  C_5 
REMARK    4  A    between atoms: C_4  and  C_11 
REMARK    5  A    between atoms: C_4  and  N_21 
REMARK       I    between atoms: C_5  and  N_17 
REMARK    6  A    between atoms: O_8  and  C_11 
REMARK    7  A    between atoms: C_13  and  C_23 
REMARK    8  A    between atoms: N_17  and  C_23 
ROOT
HETATM    1  C           1     -20.347  -6.660  -6.229  0.00  0.00     0.251 C 
HETATM    2  O           1     -19.422  -6.559  -6.998  0.00  0.00    -0.271 OA
HETATM    3  H           1     -21.424  -8.426  -6.284  0.00  0.00     0.163 HD
HETATM    4  N           1     -20.729  -7.894  -5.776  0.00  0.00    -0.344 N 
ENDROOT
BRANCH   4   5
HETATM    5  C           1     -20.139  -8.438  -4.569  0.00  0.00     0.189 C 
BRANCH   5   6
HETATM    6  C           1     -21.166  -9.301  -3.847  0.00  0.00     0.074 C 
BRANCH   6   7
HETATM    7  C           1     -21.612  -8.607  -2.598  0.00  0.00    -0.056 A 
HETATM    8  C           1     -21.916  -9.350  -1.458  0.00  0.00     0.007 A 
HETATM    9  C           1     -22.332  -8.703  -0.295  0.00  0.00     0.001 A 
HETATM   10  C           1     -22.445  -7.313  -0.272  0.00  0.00     0.000 A 
HETATM   11  C           1     -22.140  -6.569  -1.412  0.00  0.00     0.001 A 
HETATM   12  C           1     -21.725  -7.217  -2.576  0.00  0.00     0.007 A 
ENDBRANCH   6   7
ENDBRANCH   5   6
BRANCH   5  13
HETATM   13  C           1     -18.940  -9.279  -4.931  0.00  0.00     0.197 C 
HETATM   14  O           1     -18.882  -9.837  -6.048  0.00  0.00    -0.646 OA
HETATM   15  O           1     -18.004  -9.417  -4.114  0.00  0.00    -0.646 OA
ENDBRANCH   5  13
ENDBRANCH   4   5
BRANCH   1  16
HETATM   16  C           1     -21.082  -5.426  -5.765  0.00  0.00     0.302 C 
BRANCH  16  17
HETATM   17  C           1     -21.866  -4.834  -6.930  0.00  0.00     0.153 C 
HETATM   18  C           1     -21.318  -3.452  -7.260  0.00  0.00     0.042 C 
BRANCH  17  19
HETATM   19  O           1     -21.740  -5.667  -8.051  0.00  0.00    -0.393 OA
HETATM   20  H           1     -21.145  -6.358  -7.813  0.00  0.00     0.210 HD
ENDBRANCH  17  19
ENDBRANCH  16  17
BRANCH  16  21
HETATM   21  N           1     -20.094  -4.414  -5.264  0.00  0.00    -0.064 N 
HETATM   22  H           1     -19.178  -4.552  -5.746  0.00  0.00     0.275 HD
HETATM   23  H           1     -19.967  -4.534  -4.234  0.00  0.00     0.275 HD
HETATM   24  H           1     -20.451  -3.453  -5.462  0.00  0.00     0.275 HD
ENDBRANCH  16  21
ENDBRANCH   1  16
TORSDOF 8
ENDMDL
MODEL 7
REMARK VINA RESULT:      -6.8      2.755      4.523
REMARK  8 active torsions:
REMARK  status: ('A' for Active; 'I' for Inactive)
REMARK    1  A    between atoms: C_2  and  C_3 
REMARK    2  A    between atoms: C_3  and  C_23 
REMARK    3  A    between atoms: C_4  and  C_5 
REMARK    4  A    between atoms: C_4  and  C_11 
REMARK    5  A    between atoms: C_4  and  N_21 
REMARK       I    between atoms: C_5  and  N_17 
REMARK    6  A    between atoms: O_8  and  C_11 
REMARK    7  A    between atoms: C_13  and  C_23 
REMARK    8  A    between atoms: N_17  and  C_23 
ROOT
HETATM    1  C           1     -35.261  -0.117 -12.746  0.00  0.00     0.251 C 
HETATM    2  O           1     -35.081   1.050 -12.495  0.00  0.00    -0.271 OA
HETATM    3  H           1     -33.677  -1.404 -12.405  0.00  0.00     0.163 HD
HETATM    4  N           1     -34.571  -1.079 -12.059  0.00  0.00    -0.344 N 
ENDROOT
BRANCH   4   5
HETATM    5  C           1     -35.120  -1.632 -10.837  0.00  0.00     0.189 C 
BRANCH   5   6
HETATM    6  C           1     -36.615  -1.349 -10.779  0.00  0.00     0.074 C 
BRANCH   6   7
HETATM    7  C           1     -36.888  -0.318  -9.728  0.00  0.00    -0.056 A 
HETATM    8  C           1     -36.211  -0.367  -8.510  0.00  0.00     0.007 A 
HETATM    9  C           1     -36.465   0.594  -7.532  0.00  0.00     0.001 A 
HETATM   10  C           1     -37.397   1.603  -7.771  0.00  0.00     0.000 A 
HETATM   11  C           1     -38.075   1.653  -8.989  0.00  0.00     0.001 A 
HETATM   12  C           1     -37.820   0.692  -9.968  0.00  0.00     0.007 A 
ENDBRANCH   6   7
ENDBRANCH   5   6
BRANCH   5  13
HETATM   13  C           1     -34.888  -3.123 -10.811  0.00  0.00     0.197 C 
HETATM   14  O           1     -33.765  -3.575 -10.499  0.00  0.00    -0.646 OA
HETATM   15  O           1     -35.819  -3.905 -11.100  0.00  0.00    -0.646 OA
ENDBRANCH   5  13
ENDBRANCH   4   5
BRANCH   1  16
HETATM   16  C           1     -36.247  -0.515 -13.816  0.00  0.00     0.302 C 
BRANCH  16  17
HETATM   17  C           1     -35.677  -0.173 -15.187  0.00  0.00     0.153 C 
HETATM   18  C           1     -36.448   0.999 -15.779  0.00  0.00     0.042 C 
BRANCH  17  19
HETATM   19  O           1     -34.325   0.176 -15.057  0.00  0.00    -0.393 OA
HETATM   20  H           1     -34.000  -0.267 -14.292  0.00  0.00     0.210 HD
ENDBRANCH  17  19
ENDBRANCH  16  17
BRANCH  16  21
HETATM   21  N           1     -37.535   0.227 -13.612  0.00  0.00    -0.064 N 
HETATM   22  H           1     -37.562   0.620 -12.644  0.00  0.00     0.275 HD
HETATM   23  H           1     -38.339  -0.427 -13.744  0.00  0.00     0.275 HD
HETATM   24  H           1     -37.600   1.005 -14.306  0.00  0.00     0.275 HD
ENDBRANCH  16  21
ENDBRANCH   1  16
TORSDOF 8
ENDMDL
MODEL 8
REMARK VINA RESULT:      -6.8      9.632     11.161
REMARK  8 active torsions:
REMARK  status: ('A' for Active; 'I' for Inactive)
REMARK    1  A    between atoms: C_2  and  C_3 
REMARK    2  A    between atoms: C_3  and  C_23 
REMARK    3  A    between atoms: C_4  and  C_5 
REMARK    4  A    between atoms: C_4  and  C_11 
REMARK    5  A    between atoms: C_4  and  N_21 
REMARK       I    between atoms: C_5  and  N_17 
REMARK    6  A    between atoms: O_8  and  C_11 
REMARK    7  A    between atoms: C_13  and  C_23 
REMARK    8  A    between atoms: N_17  and  C_23 
ROOT
HETATM    1  C           1     -28.626  -5.251 -16.499  0.00  0.00     0.251 C 
HETATM    2  O           1     -28.901  -5.141 -15.329  0.00  0.00    -0.271 OA
HETATM    3  H           1     -26.838  -4.419 -17.125  0.00  0.00     0.163 HD
HETATM    4  N           1     -27.316  -5.280 -16.895  0.00  0.00    -0.344 N 
ENDROOT
BRANCH   4   5
HETATM    5  C           1     -26.613  -6.545 -16.984  0.00  0.00     0.189 C 
BRANCH   5   6
HETATM    6  C           1     -25.240  -6.319 -17.603  0.00  0.00     0.074 C 
BRANCH   6   7
HETATM    7  C           1     -25.211  -6.903 -18.981  0.00  0.00    -0.056 A 
HETATM    8  C           1     -26.366  -6.909 -19.761  0.00  0.00     0.007 A 
HETATM    9  C           1     -26.338  -7.452 -21.045  0.00  0.00     0.001 A 
HETATM   10  C           1     -25.155  -7.991 -21.549  0.00  0.00     0.000 A 
HETATM   11  C           1     -23.998  -7.985 -20.769  0.00  0.00     0.001 A 
HETATM   12  C           1     -24.026  -7.441 -19.484  0.00  0.00     0.007 A 
ENDBRANCH   6   7
ENDBRANCH   5   6
BRANCH   5  13
HETATM   13  C           1     -26.454  -7.131 -15.603  0.00  0.00     0.197 C 
HETATM   14  O           1     -27.413  -7.721 -15.060  0.00  0.00    -0.646 OA
HETATM   15  O           1     -25.363  -7.026 -15.002  0.00  0.00    -0.646 OA
ENDBRANCH   5  13
ENDBRANCH   4   5
BRANCH   1  16
HETATM   16  C           1     -29.726  -5.358 -17.527  0.00  0.00     0.302 C 
BRANCH  16  17
HETATM   17  C           1     -30.111  -3.965 -18.007  0.00  0.00     0.153 C 
HETATM   18  C           1     -31.493  -3.608 -17.477  0.00  0.00     0.042 C 
BRANCH  17  19
HETATM   19  O           1     -29.175  -3.032 -17.536  0.00  0.00    -0.393 OA
HETATM   20  H           1     -28.775  -2.639 -18.293  0.00  0.00     0.210 HD
ENDBRANCH  17  19
ENDBRANCH  16  17
BRANCH  16  21
HETATM   21  N           1     -30.923  -6.021 -16.911  0.00  0.00    -0.064 N 
HETATM   22  H           1     -31.583  -5.292 -16.558  0.00  0.00     0.275 HD
HETATM   23  H           1     -30.616  -6.625 -16.116  0.00  0.00     0.275 HD
HETATM   24  H           1     -31.404  -6.607 -17.629  0.00  0.00     0.275 HD
ENDBRANCH  16  21
ENDBRANCH   1  16
TORSDOF 8
ENDMDL
MODEL 9
REMARK VINA RESULT:      -6.7     17.393     20.144
REMARK  8 active torsions:
REMARK  status: ('A' for Active; 'I' for Inactive)
REMARK    1  A    between atoms: C_2  and  C_3 
REMARK    2  A    between atoms: C_3  and  C_23 
REMARK    3  A    between atoms: C_4  and  C_5 
REMARK    4  A    between atoms: C_4  and  C_11 
REMARK    5  A    between atoms: C_4  and  N_21 
REMARK       I    between atoms: C_5  and  N_17 
REMARK    6  A    between atoms: O_8  and  C_11 
REMARK    7  A    between atoms: C_13  and  C_23 
REMARK    8  A    between atoms: N_17  and  C_23 
ROOT
HETATM    1  C           1     -19.128  -9.722  -3.906  0.00  0.00     0.251 C 
HETATM    2  O           1     -19.326 -10.758  -4.492  0.00  0.00    -0.271 OA
HETATM    3  H           1     -19.143  -7.988  -5.037  0.00  0.00     0.163 HD
HETATM    4  N           1     -19.664  -8.554  -4.379  0.00  0.00    -0.344 N 
ENDROOT
BRANCH   4   5
HETATM    5  C           1     -20.978  -8.129  -3.939  0.00  0.00     0.189 C 
BRANCH   5   6
HETATM    6  C           1     -20.854  -7.385  -2.616  0.00  0.00     0.074 C 
BRANCH   6   7
HETATM    7  C           1     -21.724  -8.042  -1.590  0.00  0.00    -0.056 A 
HETATM    8  C           1     -21.946  -9.417  -1.641  0.00  0.00     0.007 A 
HETATM    9  C           1     -22.757 -10.029  -0.685  0.00  0.00     0.001 A 
HETATM   10  C           1     -23.347  -9.264   0.322  0.00  0.00     0.000 A 
HETATM   11  C           1     -23.124  -7.888   0.373  0.00  0.00     0.001 A 
HETATM   12  C           1     -22.313  -7.277  -0.584  0.00  0.00     0.007 A 
ENDBRANCH   6   7
ENDBRANCH   5   6
BRANCH   5  13
HETATM   13  C           1     -21.585  -7.216  -4.976  0.00  0.00     0.197 C 
HETATM   14  O           1     -22.406  -6.338  -4.632  0.00  0.00    -0.646 OA
HETATM   15  O           1     -21.265  -7.336  -6.178  0.00  0.00    -0.646 OA
ENDBRANCH   5  13
ENDBRANCH   4   5
BRANCH   1  16
HETATM   16  C           1     -18.289  -9.711  -2.652  0.00  0.00     0.302 C 
BRANCH  16  17
HETATM   17  C           1     -16.826  -9.496  -3.020  0.00  0.00     0.153 C 
HETATM   18  C           1     -15.962 -10.511  -2.284  0.00  0.00     0.042 C 
BRANCH  17  19
HETATM   19  O           1     -16.662  -9.660  -4.403  0.00  0.00    -0.393 OA
HETATM   20  H           1     -16.644 -10.587  -4.569  0.00  0.00     0.210 HD
ENDBRANCH  17  19
ENDBRANCH  16  17
BRANCH  16  21
HETATM   21  N           1     -18.435 -11.024  -1.941  0.00  0.00    -0.064 N 
HETATM   22  H           1     -18.706 -10.855  -0.947  0.00  0.00     0.275 HD
HETATM   23  H           1     -17.527 -11.540  -1.972  0.00  0.00     0.275 HD
HETATM   24  H           1     -19.175 -11.593  -2.411  0.00  0.00     0.275 HD
ENDBRANCH  16  21
ENDBRANCH   1  16
TORSDOF 8
ENDMDL
