MODEL 1
REMARK VINA RESULT:      -7.3      0.000      0.000
REMARK  11 active torsions:
REMARK  status: ('A' for Active; 'I' for Inactive)
REMARK    1  A    between atoms: N_4  and  C_7 
REMARK    2  A    between atoms: P_6  and  O_14 
REMARK    3  A    between atoms: P_6  and  O_16 
REMARK    4  A    between atoms: C_7  and  C_8 
REMARK    5  A    between atoms: C_7  and  C_15 
REMARK       I    between atoms: C_8  and  N_9 
REMARK    6  A    between atoms: N_9  and  C_27 
REMARK    7  A    between atoms: C_10  and  C_15 
REMARK    8  A    between atoms: O_14  and  C_28 
REMARK    9  A    between atoms: C_18  and  C_27 
REMARK   10  A    between atoms: O_26  and  C_29 
REMARK   11  A    between atoms: C_27  and  C_28 
ROOT
HETATM    1  H           1     -23.014  -6.582  -4.621  0.00  0.00     0.163 HD
HETATM    2  C           1     -21.425  -5.651  -5.565  0.00  0.00     0.249 C 
HETATM    3  N           1     -22.024  -6.377  -4.571  0.00  0.00    -0.343 N 
HETATM    4  O           1     -20.243  -5.408  -5.507  0.00  0.00    -0.271 OA
ENDROOT
BRANCH   2   5
HETATM    5  C           1     -22.240  -5.155  -6.734  0.00  0.00     0.278 C 
BRANCH   5   6
HETATM    6  N           1     -23.646  -4.892  -6.285  0.00  0.00    -0.066 N 
HETATM    7  H           1     -23.656  -4.081  -5.626  0.00  0.00     0.275 HD
HETATM    8  H           1     -24.242  -4.672  -7.116  0.00  0.00     0.275 HD
HETATM    9  H           1     -24.022  -5.739  -5.801  0.00  0.00     0.275 HD
ENDBRANCH   5   6
BRANCH   5  10
HETATM   10  C           1     -21.630  -3.867  -7.270  0.00  0.00     0.081 C 
BRANCH  10  11
HETATM   11  C           1     -21.656  -3.885  -8.766  0.00  0.00    -0.056 A 
HETATM   12  C           1     -20.484  -4.128  -9.482  0.00  0.00     0.010 A 
HETATM   13  C           1     -20.510  -4.144 -10.877  0.00  0.00     0.037 A 
HETATM   14  C           1     -21.707  -3.916 -11.554  0.00  0.00     0.065 A 
HETATM   15  C           1     -22.879  -3.672 -10.839  0.00  0.00     0.037 A 
HETATM   16  C           1     -22.854  -3.657  -9.445  0.00  0.00     0.010 A 
BRANCH  14  17
HETATM   17  O           1     -21.731  -3.932 -12.909  0.00  0.00    -0.361 OA
HETATM   18  H           1     -22.641  -3.737 -13.195  0.00  0.00     0.217 HD
ENDBRANCH  14  17
ENDBRANCH  10  11
ENDBRANCH   5  10
ENDBRANCH   2   5
BRANCH   3  19
HETATM   19  C           1     -21.240  -6.854  -3.448  0.00  0.00     0.210 C 
BRANCH  19  20
HETATM   20  C           1     -20.882  -8.303  -3.664  0.00  0.00     0.198 C 
HETATM   21  O           1     -21.783  -9.149  -3.856  0.00  0.00    -0.646 OA
HETATM   22  O           1     -19.684  -8.660  -3.650  0.00  0.00    -0.646 OA
ENDBRANCH  19  20
BRANCH  19  23
HETATM   23  C           1     -22.053  -6.716  -2.168  0.00  0.00     0.217 C 
BRANCH  23  24
HETATM   24  O           1     -21.349  -7.296  -1.104  0.00  0.00    -0.287 OA
BRANCH  24  25
HETATM   25  P           1     -22.233  -8.137  -0.045  0.00  0.00     0.406 P 
HETATM   26  O           1     -22.508  -9.485  -0.591  0.00  0.00    -0.624 OA
HETATM   27  O           1     -23.511  -7.434   0.198  0.00  0.00    -0.624 OA
BRANCH  25  28
HETATM   28  O           1     -21.421  -8.276   1.344  0.00  0.00    -0.300 OA
HETATM   29  H           1     -20.586  -8.642   1.102  0.00  0.00     0.223 HD
ENDBRANCH  25  28
ENDBRANCH  24  25
ENDBRANCH  23  24
ENDBRANCH  19  23
ENDBRANCH   3  19
TORSDOF 11
ENDMDL
MODEL 2
REMARK VINA RESULT:      -7.2     14.006     17.360
REMARK  11 active torsions:
REMARK  status: ('A' for Active; 'I' for Inactive)
REMARK    1  A    between atoms: N_4  and  C_7 
REMARK    2  A    between atoms: P_6  and  O_14 
REMARK    3  A    between atoms: P_6  and  O_16 
REMARK    4  A    between atoms: C_7  and  C_8 
REMARK    5  A    between atoms: C_7  and  C_15 
REMARK       I    between atoms: C_8  and  N_9 
REMARK    6  A    between atoms: N_9  and  C_27 
REMARK    7  A    between atoms: C_10  and  C_15 
REMARK    8  A    between atoms: O_14  and  C_28 
REMARK    9  A    between atoms: C_18  and  C_27 
REMARK   10  A    between atoms: O_26  and  C_29 
REMARK   11  A    between atoms: C_27  and  C_28 
ROOT
HETATM    1  H           1     -36.518  -2.243 -13.172  0.00  0.00     0.163 HD
HETATM    2  C           1     -34.755  -2.211 -12.087  0.00  0.00     0.249 C 
HETATM    3  N           1     -35.906  -1.675 -12.599  0.00  0.00    -0.343 N 
HETATM    4  O           1     -34.025  -1.534 -11.403  0.00  0.00    -0.271 OA
ENDROOT
BRANCH   2   5
HETATM    5  C           1     -34.399  -3.649 -12.376  0.00  0.00     0.278 C 
BRANCH   5   6
HETATM    6  N           1     -33.932  -3.771 -13.795  0.00  0.00    -0.066 N 
HETATM    7  H           1     -33.009  -3.290 -13.902  0.00  0.00     0.275 HD
HETATM    8  H           1     -33.826  -4.782 -14.041  0.00  0.00     0.275 HD
HETATM    9  H           1     -34.631  -3.328 -14.433  0.00  0.00     0.275 HD
ENDBRANCH   5   6
BRANCH   5  10
HETATM   10  C           1     -33.288  -4.096 -11.436  0.00  0.00     0.081 C 
BRANCH  10  11
HETATM   11  C           1     -33.610  -5.451 -10.888  0.00  0.00    -0.056 A 
HETATM   12  C           1     -34.829  -5.674 -10.248  0.00  0.00     0.010 A 
HETATM   13  C           1     -35.128  -6.937  -9.737  0.00  0.00     0.037 A 
HETATM   14  C           1     -34.208  -7.977  -9.867  0.00  0.00     0.065 A 
HETATM   15  C           1     -32.989  -7.755 -10.507  0.00  0.00     0.037 A 
HETATM   16  C           1     -32.690  -6.492 -11.017  0.00  0.00     0.010 A 
BRANCH  14  17
HETATM   17  O           1     -34.499  -9.204  -9.371  0.00  0.00    -0.361 OA
HETATM   18  H           1     -35.427  -9.198  -9.080  0.00  0.00     0.217 HD
ENDBRANCH  14  17
ENDBRANCH  10  11
ENDBRANCH   5  10
ENDBRANCH   2   5
BRANCH   3  19
HETATM   19  C           1     -36.248  -0.293 -12.321  0.00  0.00     0.210 C 
BRANCH  19  20
HETATM   20  C           1     -36.930  -0.204 -10.979  0.00  0.00     0.198 C 
HETATM   21  O           1     -36.354   0.355 -10.020  0.00  0.00    -0.646 OA
HETATM   22  O           1     -38.071  -0.690 -10.824  0.00  0.00    -0.646 OA
ENDBRANCH  19  20
BRANCH  19  23
HETATM   23  C           1     -37.186   0.224 -13.403  0.00  0.00     0.217 C 
BRANCH  23  24
HETATM   24  O           1     -37.171  -0.655 -14.494  0.00  0.00    -0.287 OA
BRANCH  24  25
HETATM   25  P           1     -36.308  -0.182 -15.774  0.00  0.00     0.406 P 
HETATM   26  O           1     -36.934  -0.698 -17.012  0.00  0.00    -0.624 OA
HETATM   27  O           1     -34.930  -0.710 -15.662  0.00  0.00    -0.624 OA
BRANCH  25  28
HETATM   28  O           1     -36.264   1.432 -15.826  0.00  0.00    -0.300 OA
HETATM   29  H           1     -35.494   1.671 -15.340  0.00  0.00     0.223 HD
ENDBRANCH  25  28
ENDBRANCH  24  25
ENDBRANCH  23  24
ENDBRANCH  19  23
ENDBRANCH   3  19
TORSDOF 11
ENDMDL
MODEL 3
REMARK VINA RESULT:      -7.2     15.279     17.449
REMARK  11 active torsions:
REMARK  status: ('A' for Active; 'I' for Inactive)
REMARK    1  A    between atoms: N_4  and  C_7 
REMARK    2  A    between atoms: P_6  and  O_14 
REMARK    3  A    between atoms: P_6  and  O_16 
REMARK    4  A    between atoms: C_7  and  C_8 
REMARK    5  A    between atoms: C_7  and  C_15 
REMARK       I    between atoms: C_8  and  N_9 
REMARK    6  A    between atoms: N_9  and  C_27 
REMARK    7  A    between atoms: C_10  and  C_15 
REMARK    8  A    between atoms: O_14  and  C_28 
REMARK    9  A    between atoms: C_18  and  C_27 
REMARK   10  A    between atoms: O_26  and  C_29 
REMARK   11  A    between atoms: C_27  and  C_28 
ROOT
HETATM    1  H           1     -33.215  -3.066 -14.160  0.00  0.00     0.163 HD
HETATM    2  C           1     -34.457  -4.624 -13.602  0.00  0.00     0.249 C 
HETATM    3  N           1     -33.827  -3.800 -14.495  0.00  0.00    -0.343 N 
HETATM    4  O           1     -35.186  -5.501 -13.999  0.00  0.00    -0.271 OA
ENDROOT
BRANCH   2   5
HETATM    5  C           1     -34.240  -4.438 -12.120  0.00  0.00     0.278 C 
BRANCH   5   6
HETATM    6  N           1     -33.304  -5.495 -11.616  0.00  0.00    -0.066 N 
HETATM    7  H           1     -33.008  -5.264 -10.640  0.00  0.00     0.275 HD
HETATM    8  H           1     -33.789  -6.421 -11.621  0.00  0.00     0.275 HD
HETATM    9  H           1     -32.462  -5.540 -12.234  0.00  0.00     0.275 HD
ENDBRANCH   5   6
BRANCH   5  10
HETATM   10  C           1     -33.636  -3.063 -11.863  0.00  0.00     0.081 C 
BRANCH  10  11
HETATM   11  C           1     -34.728  -2.086 -11.559  0.00  0.00    -0.056 A 
HETATM   12  C           1     -35.697  -2.395 -10.605  0.00  0.00     0.010 A 
HETATM   13  C           1     -36.715  -1.484 -10.323  0.00  0.00     0.037 A 
HETATM   14  C           1     -36.763  -0.263 -10.995  0.00  0.00     0.065 A 
HETATM   15  C           1     -35.794   0.047 -11.950  0.00  0.00     0.037 A 
HETATM   16  C           1     -34.777  -0.864 -12.232  0.00  0.00     0.010 A 
BRANCH  14  17
HETATM   17  O           1     -37.751   0.622 -10.721  0.00  0.00    -0.361 OA
HETATM   18  H           1     -37.361   1.366 -10.231  0.00  0.00     0.217 HD
ENDBRANCH  14  17
ENDBRANCH  10  11
ENDBRANCH   5  10
ENDBRANCH   2   5
BRANCH   3  19
HETATM   19  C           1     -34.035  -3.979 -15.918  0.00  0.00     0.210 C 
BRANCH  19  20
HETATM   20  C           1     -32.708  -3.918 -16.633  0.00  0.00     0.198 C 
HETATM   21  O           1     -31.752  -4.619 -16.238  0.00  0.00    -0.646 OA
HETATM   22  O           1     -32.565  -3.164 -17.620  0.00  0.00    -0.646 OA
ENDBRANCH  19  20
BRANCH  19  23
HETATM   23  C           1     -34.945  -2.876 -16.440  0.00  0.00     0.217 C 
BRANCH  23  24
HETATM   24  O           1     -35.050  -1.862 -15.478  0.00  0.00    -0.287 OA
BRANCH  24  25
HETATM   25  P           1     -36.062  -0.654 -15.830  0.00  0.00     0.406 P 
HETATM   26  O           1     -35.416   0.640 -15.515  0.00  0.00    -0.624 OA
HETATM   27  O           1     -37.298  -0.796 -15.028  0.00  0.00    -0.624 OA
BRANCH  25  28
HETATM   28  O           1     -36.431  -0.701 -17.401  0.00  0.00    -0.300 OA
HETATM   29  H           1     -36.417  -1.616 -17.627  0.00  0.00     0.223 HD
ENDBRANCH  25  28
ENDBRANCH  24  25
ENDBRANCH  23  24
ENDBRANCH  19  23
ENDBRANCH   3  19
TORSDOF 11
ENDMDL
MODEL 4
REMARK VINA RESULT:      -7.1      3.252      8.844
REMARK  11 active torsions:
REMARK  status: ('A' for Active; 'I' for Inactive)
REMARK    1  A    between atoms: N_4  and  C_7 
REMARK    2  A    between atoms: P_6  and  O_14 
REMARK    3  A    between atoms: P_6  and  O_16 
REMARK    4  A    between atoms: C_7  and  C_8 
REMARK    5  A    between atoms: C_7  and  C_15 
REMARK       I    between atoms: C_8  and  N_9 
REMARK    6  A    between atoms: N_9  and  C_27 
REMARK    7  A    between atoms: C_10  and  C_15 
REMARK    8  A    between atoms: O_14  and  C_28 
REMARK    9  A    between atoms: C_18  and  C_27 
REMARK   10  A    between atoms: O_26  and  C_29 
REMARK   11  A    between atoms: C_27  and  C_28 
ROOT
HETATM    1  H           1     -21.741  -4.193  -6.294  0.00  0.00     0.163 HD
HETATM    2  C           1     -20.817  -6.041  -6.179  0.00  0.00     0.249 C 
HETATM    3  N           1     -21.420  -4.994  -6.823  0.00  0.00    -0.343 N 
HETATM    4  O           1     -20.432  -6.997  -6.809  0.00  0.00    -0.271 OA
ENDROOT
BRANCH   2   5
HETATM    5  C           1     -20.631  -5.999  -4.682  0.00  0.00     0.278 C 
BRANCH   5   6
HETATM    6  N           1     -20.143  -4.641  -4.277  0.00  0.00    -0.066 N 
HETATM    7  H           1     -19.168  -4.716  -3.907  0.00  0.00     0.275 HD
HETATM    8  H           1     -20.151  -4.006  -5.108  0.00  0.00     0.275 HD
HETATM    9  H           1     -20.768  -4.252  -3.535  0.00  0.00     0.275 HD
ENDBRANCH   5   6
BRANCH   5  10
HETATM   10  C           1     -21.961  -6.285  -3.997  0.00  0.00     0.081 C 
BRANCH  10  11
HETATM   11  C           1     -21.715  -6.987  -2.698  0.00  0.00    -0.056 A 
HETATM   12  C           1     -22.403  -6.595  -1.550  0.00  0.00     0.010 A 
HETATM   13  C           1     -22.173  -7.249  -0.341  0.00  0.00     0.037 A 
HETATM   14  C           1     -21.255  -8.297  -0.279  0.00  0.00     0.065 A 
HETATM   15  C           1     -20.566  -8.690  -1.427  0.00  0.00     0.037 A 
HETATM   16  C           1     -20.796  -8.035  -2.636  0.00  0.00     0.010 A 
BRANCH  14  17
HETATM   17  O           1     -21.031  -8.933   0.896  0.00  0.00    -0.361 OA
HETATM   18  H           1     -21.060  -8.270   1.607  0.00  0.00     0.217 HD
ENDBRANCH  14  17
ENDBRANCH  10  11
ENDBRANCH   5  10
ENDBRANCH   2   5
BRANCH   3  19
HETATM   19  C           1     -21.597  -5.034  -8.261  0.00  0.00     0.210 C 
BRANCH  19  20
HETATM   20  C           1     -20.410  -4.391  -8.933  0.00  0.00     0.198 C 
HETATM   21  O           1     -20.165  -4.630 -10.135  0.00  0.00    -0.646 OA
HETATM   22  O           1     -19.668  -3.619  -8.287  0.00  0.00    -0.646 OA
ENDBRANCH  19  20
BRANCH  19  23
HETATM   23  C           1     -22.864  -4.277  -8.637  0.00  0.00     0.217 C 
BRANCH  23  24
HETATM   24  O           1     -23.472  -4.900  -9.736  0.00  0.00    -0.287 OA
BRANCH  24  25
HETATM   25  P           1     -23.746  -3.960 -11.020  0.00  0.00     0.406 P 
HETATM   26  O           1     -24.989  -3.184 -10.809  0.00  0.00    -0.624 OA
HETATM   27  O           1     -23.892  -4.804 -12.227  0.00  0.00    -0.624 OA
BRANCH  25  28
HETATM   28  O           1     -22.507  -2.945 -11.219  0.00  0.00    -0.300 OA
HETATM   29  H           1     -22.033  -2.977 -10.405  0.00  0.00     0.223 HD
ENDBRANCH  25  28
ENDBRANCH  24  25
ENDBRANCH  23  24
ENDBRANCH  19  23
ENDBRANCH   3  19
TORSDOF 11
ENDMDL
MODEL 5
REMARK VINA RESULT:      -7.0     13.538     14.957
REMARK  11 active torsions:
REMARK  status: ('A' for Active; 'I' for Inactive)
REMARK    1  A    between atoms: N_4  and  C_7 
REMARK    2  A    between atoms: P_6  and  O_14 
REMARK    3  A    between atoms: P_6  and  O_16 
REMARK    4  A    between atoms: C_7  and  C_8 
REMARK    5  A    between atoms: C_7  and  C_15 
REMARK       I    between atoms: C_8  and  N_9 
REMARK    6  A    between atoms: N_9  and  C_27 
REMARK    7  A    between atoms: C_10  and  C_15 
REMARK    8  A    between atoms: O_14  and  C_28 
REMARK    9  A    between atoms: C_18  and  C_27 
REMARK   10  A    between atoms: O_26  and  C_29 
REMARK   11  A    between atoms: C_27  and  C_28 
ROOT
HETATM    1  H           1     -32.386  -3.752 -14.091  0.00  0.00     0.163 HD
HETATM    2  C           1     -33.805  -4.441 -15.431  0.00  0.00     0.249 C 
HETATM    3  N           1     -33.358  -4.010 -14.212  0.00  0.00    -0.343 N 
HETATM    4  O           1     -34.964  -4.748 -15.576  0.00  0.00    -0.271 OA
ENDROOT
BRANCH   2   5
HETATM    5  C           1     -32.849  -4.532 -16.596  0.00  0.00     0.278 C 
BRANCH   5   6
HETATM    6  N           1     -33.004  -3.319 -17.464  0.00  0.00    -0.066 N 
HETATM    7  H           1     -32.381  -3.406 -18.299  0.00  0.00     0.275 HD
HETATM    8  H           1     -33.997  -3.241 -17.778  0.00  0.00     0.275 HD
HETATM    9  H           1     -32.741  -2.465 -16.921  0.00  0.00     0.275 HD
ENDBRANCH   5   6
BRANCH   5  10
HETATM   10  C           1     -31.419  -4.604 -16.076  0.00  0.00     0.081 C 
BRANCH  10  11
HETATM   11  C           1     -30.589  -5.431 -17.006  0.00  0.00    -0.056 A 
HETATM   12  C           1     -30.987  -6.727 -17.333  0.00  0.00     0.010 A 
HETATM   13  C           1     -30.213  -7.497 -18.200  0.00  0.00     0.037 A 
HETATM   14  C           1     -29.039  -6.971 -18.740  0.00  0.00     0.065 A 
HETATM   15  C           1     -28.640  -5.676 -18.413  0.00  0.00     0.037 A 
HETATM   16  C           1     -29.414  -4.905 -17.546  0.00  0.00     0.010 A 
BRANCH  14  17
HETATM   17  O           1     -28.286  -7.720 -19.582  0.00  0.00    -0.361 OA
HETATM   18  H           1     -28.852  -7.997 -20.324  0.00  0.00     0.217 HD
ENDBRANCH  14  17
ENDBRANCH  10  11
ENDBRANCH   5  10
ENDBRANCH   2   5
BRANCH   3  19
HETATM   19  C           1     -34.276  -3.922 -13.093  0.00  0.00     0.210 C 
BRANCH  19  20
HETATM   20  C           1     -34.662  -2.481 -12.870  0.00  0.00     0.198 C 
HETATM   21  O           1     -34.484  -1.951 -11.752  0.00  0.00    -0.646 OA
HETATM   22  O           1     -35.161  -1.816 -13.803  0.00  0.00    -0.646 OA
ENDBRANCH  19  20
BRANCH  19  23
HETATM   23  C           1     -33.604  -4.468 -11.841  0.00  0.00     0.217 C 
BRANCH  23  24
HETATM   24  O           1     -34.572  -5.027 -10.996  0.00  0.00    -0.287 OA
BRANCH  24  25
HETATM   25  P           1     -34.450  -6.616 -10.733  0.00  0.00     0.406 P 
HETATM   26  O           1     -35.037  -6.945  -9.415  0.00  0.00    -0.624 OA
HETATM   27  O           1     -33.023  -7.009 -10.749  0.00  0.00    -0.624 OA
BRANCH  25  28
HETATM   28  O           1     -35.243  -7.415 -11.890  0.00  0.00    -0.300 OA
HETATM   29  H           1     -36.091  -7.006 -11.931  0.00  0.00     0.223 HD
ENDBRANCH  25  28
ENDBRANCH  24  25
ENDBRANCH  23  24
ENDBRANCH  19  23
ENDBRANCH   3  19
TORSDOF 11
ENDMDL
MODEL 6
REMARK VINA RESULT:      -6.8     13.157     15.234
REMARK  11 active torsions:
REMARK  status: ('A' for Active; 'I' for Inactive)
REMARK    1  A    between atoms: N_4  and  C_7 
REMARK    2  A    between atoms: P_6  and  O_14 
REMARK    3  A    between atoms: P_6  and  O_16 
REMARK    4  A    between atoms: C_7  and  C_8 
REMARK    5  A    between atoms: C_7  and  C_15 
REMARK       I    between atoms: C_8  and  N_9 
REMARK    6  A    between atoms: N_9  and  C_27 
REMARK    7  A    between atoms: C_10  and  C_15 
REMARK    8  A    between atoms: O_14  and  C_28 
REMARK    9  A    between atoms: C_18  and  C_27 
REMARK   10  A    between atoms: O_26  and  C_29 
REMARK   11  A    between atoms: C_27  and  C_28 
ROOT
HETATM    1  H           1     -27.299  -8.436 -19.422  0.00  0.00     0.163 HD
HETATM    2  C           1     -28.123  -6.555 -19.162  0.00  0.00     0.249 C 
HETATM    3  N           1     -27.131  -7.439 -19.489  0.00  0.00    -0.343 N 
HETATM    4  O           1     -27.924  -5.366 -19.243  0.00  0.00    -0.271 OA
ENDROOT
BRANCH   2   5
HETATM    5  C           1     -29.467  -7.066 -18.703  0.00  0.00     0.278 C 
BRANCH   5   6
HETATM    6  N           1     -29.479  -8.564 -18.764  0.00  0.00    -0.066 N 
HETATM    7  H           1     -29.292  -8.953 -17.811  0.00  0.00     0.275 HD
HETATM    8  H           1     -30.415  -8.891 -19.094  0.00  0.00     0.275 HD
HETATM    9  H           1     -28.740  -8.892 -19.426  0.00  0.00     0.275 HD
ENDBRANCH   5   6
BRANCH   5  10
HETATM   10  C           1     -29.720  -6.614 -17.271  0.00  0.00     0.081 C 
BRANCH  10  11
HETATM   11  C           1     -30.781  -5.558 -17.258  0.00  0.00    -0.056 A 
HETATM   12  C           1     -30.472  -4.254 -17.646  0.00  0.00     0.010 A 
HETATM   13  C           1     -31.461  -3.271 -17.633  0.00  0.00     0.037 A 
HETATM   14  C           1     -32.758  -3.591 -17.233  0.00  0.00     0.065 A 
HETATM   15  C           1     -33.067  -4.894 -16.845  0.00  0.00     0.037 A 
HETATM   16  C           1     -32.078  -5.878 -16.857  0.00  0.00     0.010 A 
BRANCH  14  17
HETATM   17  O           1     -33.718  -2.635 -17.221  0.00  0.00    -0.361 OA
HETATM   18  H           1     -34.442  -2.930 -17.800  0.00  0.00     0.217 HD
ENDBRANCH  14  17
ENDBRANCH  10  11
ENDBRANCH   5  10
ENDBRANCH   2   5
BRANCH   3  19
HETATM   19  C           1     -25.840  -6.949 -19.930  0.00  0.00     0.210 C 
BRANCH  19  20
HETATM   20  C           1     -25.292  -7.864 -20.997  0.00  0.00     0.198 C 
HETATM   21  O           1     -24.063  -7.894 -21.225  0.00  0.00    -0.646 OA
HETATM   22  O           1     -26.066  -8.594 -21.653  0.00  0.00    -0.646 OA
ENDBRANCH  19  20
BRANCH  19  23
HETATM   23  C           1     -24.880  -6.913 -18.749  0.00  0.00     0.217 C 
BRANCH  23  24
HETATM   24  O           1     -25.485  -6.246 -17.675  0.00  0.00    -0.287 OA
BRANCH  24  25
HETATM   25  P           1     -25.216  -6.872 -16.210  0.00  0.00     0.406 P 
HETATM   26  O           1     -24.233  -7.973 -16.316  0.00  0.00    -0.624 OA
HETATM   27  O           1     -26.484  -7.395 -15.657  0.00  0.00    -0.624 OA
BRANCH  25  28
HETATM   28  O           1     -24.634  -5.724 -15.235  0.00  0.00    -0.300 OA
HETATM   29  H           1     -23.771  -5.539 -15.563  0.00  0.00     0.223 HD
ENDBRANCH  25  28
ENDBRANCH  24  25
ENDBRANCH  23  24
ENDBRANCH  19  23
ENDBRANCH   3  19
TORSDOF 11
ENDMDL
MODEL 7
REMARK VINA RESULT:      -6.7      2.004      3.558
REMARK  11 active torsions:
REMARK  status: ('A' for Active; 'I' for Inactive)
REMARK    1  A    between atoms: N_4  and  C_7 
REMARK    2  A    between atoms: P_6  and  O_14 
REMARK    3  A    between atoms: P_6  and  O_16 
REMARK    4  A    between atoms: C_7  and  C_8 
REMARK    5  A    between atoms: C_7  and  C_15 
REMARK       I    between atoms: C_8  and  N_9 
REMARK    6  A    between atoms: N_9  and  C_27 
REMARK    7  A    between atoms: C_10  and  C_15 
REMARK    8  A    between atoms: O_14  and  C_28 
REMARK    9  A    between atoms: C_18  and  C_27 
REMARK   10  A    between atoms: O_26  and  C_29 
REMARK   11  A    between atoms: C_27  and  C_28 
ROOT
HETATM    1  H           1     -19.768  -6.934  -4.415  0.00  0.00     0.163 HD
HETATM    2  C           1     -21.273  -5.979  -5.468  0.00  0.00     0.249 C 
HETATM    3  N           1     -20.769  -6.813  -4.506  0.00  0.00    -0.343 N 
HETATM    4  O           1     -22.467  -5.833  -5.576  0.00  0.00    -0.271 OA
ENDROOT
BRANCH   2   5
HETATM    5  C           1     -20.335  -5.241  -6.392  0.00  0.00     0.278 C 
BRANCH   5   6
HETATM    6  N           1     -20.003  -6.114  -7.565  0.00  0.00    -0.066 N 
HETATM    7  H           1     -18.983  -6.344  -7.552  0.00  0.00     0.275 HD
HETATM    8  H           1     -20.558  -6.998  -7.510  0.00  0.00     0.275 HD
HETATM    9  H           1     -20.235  -5.611  -8.452  0.00  0.00     0.275 HD
ENDBRANCH   5   6
BRANCH   5  10
HETATM   10  C           1     -21.006  -3.965  -6.883  0.00  0.00     0.081 C 
BRANCH  10  11
HETATM   11  C           1     -21.325  -4.096  -8.340  0.00  0.00    -0.056 A 
HETATM   12  C           1     -22.627  -4.387  -8.746  0.00  0.00     0.010 A 
HETATM   13  C           1     -22.924  -4.510 -10.103  0.00  0.00     0.037 A 
HETATM   14  C           1     -21.919  -4.341 -11.054  0.00  0.00     0.065 A 
HETATM   15  C           1     -20.616  -4.050 -10.649  0.00  0.00     0.037 A 
HETATM   16  C           1     -20.319  -3.927  -9.292  0.00  0.00     0.010 A 
BRANCH  14  17
HETATM   17  O           1     -22.207  -4.459 -12.373  0.00  0.00    -0.361 OA
HETATM   18  H           1     -23.116  -4.798 -12.452  0.00  0.00     0.217 HD
ENDBRANCH  14  17
ENDBRANCH  10  11
ENDBRANCH   5  10
ENDBRANCH   2   5
BRANCH   3  19
HETATM   19  C           1     -21.670  -7.521  -3.617  0.00  0.00     0.210 C 
BRANCH  19  20
HETATM   20  C           1     -21.656  -6.865  -2.259  0.00  0.00     0.198 C 
HETATM   21  O           1     -21.115  -7.443  -1.291  0.00  0.00    -0.646 OA
HETATM   22  O           1     -22.185  -5.744  -2.100  0.00  0.00    -0.646 OA
ENDBRANCH  19  20
BRANCH  19  23
HETATM   23  C           1     -21.219  -8.969  -3.487  0.00  0.00     0.217 C 
BRANCH  23  24
HETATM   24  O           1     -20.811  -9.446  -4.740  0.00  0.00    -0.287 OA
BRANCH  24  25
HETATM   25  P           1     -19.217  -9.576  -4.965  0.00  0.00     0.406 P 
HETATM   26  O           1     -18.872 -10.985  -5.256  0.00  0.00    -0.624 OA
HETATM   27  O           1     -18.510  -9.138  -3.741  0.00  0.00    -0.624 OA
BRANCH  25  28
HETATM   28  O           1     -18.772  -8.646  -6.207  0.00  0.00    -0.300 OA
HETATM   29  H           1     -18.099  -8.084  -5.862  0.00  0.00     0.223 HD
ENDBRANCH  25  28
ENDBRANCH  24  25
ENDBRANCH  23  24
ENDBRANCH  19  23
ENDBRANCH   3  19
TORSDOF 11
ENDMDL
MODEL 8
REMARK VINA RESULT:      -6.6      1.778      2.618
REMARK  11 active torsions:
REMARK  status: ('A' for Active; 'I' for Inactive)
REMARK    1  A    between atoms: N_4  and  C_7 
REMARK    2  A    between atoms: P_6  and  O_14 
REMARK    3  A    between atoms: P_6  and  O_16 
REMARK    4  A    between atoms: C_7  and  C_8 
REMARK    5  A    between atoms: C_7  and  C_15 
REMARK       I    between atoms: C_8  and  N_9 
REMARK    6  A    between atoms: N_9  and  C_27 
REMARK    7  A    between atoms: C_10  and  C_15 
REMARK    8  A    between atoms: O_14  and  C_28 
REMARK    9  A    between atoms: C_18  and  C_27 
REMARK   10  A    between atoms: O_26  and  C_29 
REMARK   11  A    between atoms: C_27  and  C_28 
ROOT
HETATM    1  H           1     -22.382  -8.578  -4.203  0.00  0.00     0.163 HD
HETATM    2  C           1     -20.879  -7.736  -5.349  0.00  0.00     0.249 C 
HETATM    3  N           1     -21.461  -8.721  -4.599  0.00  0.00    -0.343 N 
HETATM    4  O           1     -19.780  -7.906  -5.822  0.00  0.00    -0.271 OA
ENDROOT
BRANCH   2   5
HETATM    5  C           1     -21.609  -6.437  -5.587  0.00  0.00     0.278 C 
BRANCH   5   6
HETATM    6  N           1     -22.251  -5.985  -4.309  0.00  0.00    -0.066 N 
HETATM    7  H           1     -21.664  -5.241  -3.868  0.00  0.00     0.275 HD
HETATM    8  H           1     -23.202  -5.601  -4.514  0.00  0.00     0.275 HD
HETATM    9  H           1     -22.336  -6.796  -3.655  0.00  0.00     0.275 HD
ENDBRANCH   5   6
BRANCH   5  10
HETATM   10  C           1     -20.622  -5.378  -6.060  0.00  0.00     0.081 C 
BRANCH  10  11
HETATM   11  C           1     -21.060  -4.843  -7.388  0.00  0.00    -0.056 A 
HETATM   12  C           1     -22.357  -4.357  -7.551  0.00  0.00     0.010 A 
HETATM   13  C           1     -22.765  -3.859  -8.789  0.00  0.00     0.037 A 
HETATM   14  C           1     -21.875  -3.847  -9.862  0.00  0.00     0.065 A 
HETATM   15  C           1     -20.578  -4.334  -9.700  0.00  0.00     0.037 A 
HETATM   16  C           1     -20.171  -4.831  -8.462  0.00  0.00     0.010 A 
BRANCH  14  17
HETATM   17  O           1     -22.271  -3.364 -11.065  0.00  0.00    -0.361 OA
HETATM   18  H           1     -21.957  -3.976 -11.752  0.00  0.00     0.217 HD
ENDBRANCH  14  17
ENDBRANCH  10  11
ENDBRANCH   5  10
ENDBRANCH   2   5
BRANCH   3  19
HETATM   19  C           1     -20.760  -9.969  -4.371  0.00  0.00     0.210 C 
BRANCH  19  20
HETATM   20  C           1     -21.265 -11.014  -5.335  0.00  0.00     0.198 C 
HETATM   21  O           1     -20.809 -11.065  -6.498  0.00  0.00    -0.646 OA
HETATM   22  O           1     -22.140 -11.829  -4.971  0.00  0.00    -0.646 OA
ENDBRANCH  19  20
BRANCH  19  23
HETATM   23  C           1     -21.004 -10.436  -2.943  0.00  0.00     0.217 C 
BRANCH  23  24
HETATM   24  O           1     -20.496  -9.485  -2.047  0.00  0.00    -0.287 OA
BRANCH  24  25
HETATM   25  P           1     -21.583  -8.739  -1.114  0.00  0.00     0.406 P 
HETATM   26  O           1     -22.770  -9.607  -0.947  0.00  0.00    -0.624 OA
HETATM   27  O           1     -21.989  -7.466  -1.750  0.00  0.00    -0.624 OA
BRANCH  25  28
HETATM   28  O           1     -20.932  -8.436   0.332  0.00  0.00    -0.300 OA
HETATM   29  H           1     -20.201  -9.028   0.400  0.00  0.00     0.223 HD
ENDBRANCH  25  28
ENDBRANCH  24  25
ENDBRANCH  23  24
ENDBRANCH  19  23
ENDBRANCH   3  19
TORSDOF 11
ENDMDL
MODEL 9
REMARK VINA RESULT:      -6.5     12.859     14.811
REMARK  11 active torsions:
REMARK  status: ('A' for Active; 'I' for Inactive)
REMARK    1  A    between atoms: N_4  and  C_7 
REMARK    2  A    between atoms: P_6  and  O_14 
REMARK    3  A    between atoms: P_6  and  O_16 
REMARK    4  A    between atoms: C_7  and  C_8 
REMARK    5  A    between atoms: C_7  and  C_15 
REMARK       I    between atoms: C_8  and  N_9 
REMARK    6  A    between atoms: N_9  and  C_27 
REMARK    7  A    between atoms: C_10  and  C_15 
REMARK    8  A    between atoms: O_14  and  C_28 
REMARK    9  A    between atoms: C_18  and  C_27 
REMARK   10  A    between atoms: O_26  and  C_29 
REMARK   11  A    between atoms: C_27  and  C_28 
ROOT
HETATM    1  H           1     -27.016  -8.323 -18.716  0.00  0.00     0.163 HD
HETATM    2  C           1     -28.109  -6.683 -19.351  0.00  0.00     0.249 C 
HETATM    3  N           1     -26.974  -7.433 -19.199  0.00  0.00    -0.343 N 
HETATM    4  O           1     -28.059  -5.623 -19.928  0.00  0.00    -0.271 OA
ENDROOT
BRANCH   2   5
HETATM    5  C           1     -29.422  -7.181 -18.798  0.00  0.00     0.278 C 
BRANCH   5   6
HETATM    6  N           1     -29.443  -8.680 -18.836  0.00  0.00    -0.066 N 
HETATM    7  H           1     -30.113  -9.001 -19.572  0.00  0.00     0.275 HD
HETATM    8  H           1     -28.486  -9.036 -19.060  0.00  0.00     0.275 HD
HETATM    9  H           1     -29.743  -9.049 -17.906  0.00  0.00     0.275 HD
ENDBRANCH   5   6
BRANCH   5  10
HETATM   10  C           1     -29.580  -6.708 -17.359  0.00  0.00     0.081 C 
BRANCH  10  11
HETATM   11  C           1     -29.540  -5.213 -17.316  0.00  0.00    -0.056 A 
HETATM   12  C           1     -30.643  -4.472 -17.738  0.00  0.00     0.010 A 
HETATM   13  C           1     -30.605  -3.078 -17.699  0.00  0.00     0.037 A 
HETATM   14  C           1     -29.462  -2.426 -17.237  0.00  0.00     0.065 A 
HETATM   15  C           1     -28.358  -3.166 -16.815  0.00  0.00     0.037 A 
HETATM   16  C           1     -28.396  -4.559 -16.855  0.00  0.00     0.010 A 
BRANCH  14  17
HETATM   17  O           1     -29.425  -1.072 -17.198  0.00  0.00    -0.361 OA
HETATM   18  H           1     -28.506  -0.793 -17.354  0.00  0.00     0.217 HD
ENDBRANCH  14  17
ENDBRANCH  10  11
ENDBRANCH   5  10
ENDBRANCH   2   5
BRANCH   3  19
HETATM   19  C           1     -25.713  -6.955 -19.730  0.00  0.00     0.210 C 
BRANCH  19  20
HETATM   20  C           1     -25.303  -7.812 -20.902  0.00  0.00     0.198 C 
HETATM   21  O           1     -24.121  -7.792 -21.309  0.00  0.00    -0.646 OA
HETATM   22  O           1     -26.145  -8.541 -21.468  0.00  0.00    -0.646 OA
ENDBRANCH  19  20
BRANCH  19  23
HETATM   23  C           1     -24.645  -7.032 -18.648  0.00  0.00     0.217 C 
BRANCH  23  24
HETATM   24  O           1     -25.041  -6.261 -17.546  0.00  0.00    -0.287 OA
BRANCH  24  25
HETATM   25  P           1     -25.228  -7.059 -16.154  0.00  0.00     0.406 P 
HETATM   26  O           1     -24.927  -6.155 -15.021  0.00  0.00    -0.624 OA
HETATM   27  O           1     -24.305  -8.215 -16.121  0.00  0.00    -0.624 OA
BRANCH  25  28
HETATM   28  O           1     -26.751  -7.582 -16.035  0.00  0.00    -0.300 OA
HETATM   29  H           1     -26.774  -8.087 -15.239  0.00  0.00     0.223 HD
ENDBRANCH  25  28
ENDBRANCH  24  25
ENDBRANCH  23  24
ENDBRANCH  19  23
ENDBRANCH   3  19
TORSDOF 11
ENDMDL
