MODEL 1
REMARK VINA RESULT:      -5.1      0.000      0.000
REMARK  6 active torsions:
REMARK  status: ('A' for Active; 'I' for Inactive)
REMARK    1  A    between atoms: C_5  and  C_13 
REMARK    2  A    between atoms: C_5  and  N_6 
REMARK       I    between atoms: N_6  and  C_7 
REMARK    3  A    between atoms: C_7  and  C_8 
REMARK    4  A    between atoms: C_8  and  C_9 
REMARK    5  A    between atoms: C_8  and  N_11 
REMARK    6  A    between atoms: C_9  and  S_10 
ROOT
HETATM    1  N           1     -26.795  -6.433 -16.550  0.00  0.00    -0.349 N 
HETATM    2  C           1     -27.946  -6.949 -16.019  0.00  0.00     0.249 C 
HETATM    3  O           1     -27.919  -7.515 -14.953  0.00  0.00    -0.271 OA
HETATM    4  H           1     -26.817  -5.958 -17.443  0.00  0.00     0.163 HD
ENDROOT
BRANCH   2   5
HETATM    5  C           1     -29.249  -6.810 -16.767  0.00  0.00     0.283 C 
BRANCH   5   6
HETATM    6  C           1     -28.979  -6.264 -18.163  0.00  0.00     0.113 C 
BRANCH   6   7
HETATM    7  S           1     -29.476  -4.520 -18.237  0.00  0.00    -0.180 SA
HETATM    8  H           1     -29.757  -4.397 -16.926  0.00  0.00     0.101 HD
ENDBRANCH   6   7
ENDBRANCH   5   6
BRANCH   5   9
HETATM    9  N           1     -30.152  -5.867 -16.028  0.00  0.00    -0.066 N 
HETATM   10  H           1     -30.504  -6.329 -15.159  0.00  0.00     0.275 HD
HETATM   11  H           1     -29.619  -5.006 -15.771  0.00  0.00     0.275 HD
HETATM   12  H           1     -30.960  -5.610 -16.637  0.00  0.00     0.275 HD
ENDBRANCH   5   9
ENDBRANCH   2   5
BRANCH   1  13
HETATM   13  C           1     -25.542  -6.565 -15.832  0.00  0.00     0.235 C 
BRANCH  13  14
HETATM   14  C           1     -24.552  -7.324 -16.681  0.00  0.00     0.191 C 
HETATM   15  O           1     -24.202  -6.869 -17.791  0.00  0.00    -0.647 OA
HETATM   16  O           1     -24.081  -8.408 -16.273  0.00  0.00    -0.647 OA
ENDBRANCH  13  14
ENDBRANCH   1  13
TORSDOF 6
ENDMDL
MODEL 2
REMARK VINA RESULT:      -5.0      1.732      2.059
REMARK  6 active torsions:
REMARK  status: ('A' for Active; 'I' for Inactive)
REMARK    1  A    between atoms: C_5  and  C_13 
REMARK    2  A    between atoms: C_5  and  N_6 
REMARK       I    between atoms: N_6  and  C_7 
REMARK    3  A    between atoms: C_7  and  C_8 
REMARK    4  A    between atoms: C_8  and  C_9 
REMARK    5  A    between atoms: C_8  and  N_11 
REMARK    6  A    between atoms: C_9  and  S_10 
ROOT
HETATM    1  N           1     -27.136  -6.595 -16.962  0.00  0.00    -0.349 N 
HETATM    2  C           1     -27.767  -5.403 -17.193  0.00  0.00     0.249 C 
HETATM    3  O           1     -27.448  -4.420 -16.569  0.00  0.00    -0.271 OA
HETATM    4  H           1     -27.403  -7.420 -17.485  0.00  0.00     0.163 HD
ENDROOT
BRANCH   2   5
HETATM    5  C           1     -28.861  -5.318 -18.228  0.00  0.00     0.283 C 
BRANCH   5   6
HETATM    6  C           1     -29.792  -4.161 -17.890  0.00  0.00     0.113 C 
BRANCH   6   7
HETATM    7  S           1     -31.170  -4.770 -16.876  0.00  0.00    -0.180 SA
HETATM    8  H           1     -32.122  -4.589 -17.809  0.00  0.00     0.101 HD
ENDBRANCH   6   7
ENDBRANCH   5   6
BRANCH   5   9
HETATM    9  N           1     -29.640  -6.600 -18.239  0.00  0.00    -0.066 N 
HETATM   10  H           1     -29.570  -7.059 -17.303  0.00  0.00     0.275 HD
HETATM   11  H           1     -30.642  -6.395 -18.452  0.00  0.00     0.275 HD
HETATM   12  H           1     -29.250  -7.237 -18.969  0.00  0.00     0.275 HD
ENDBRANCH   5   9
ENDBRANCH   2   5
BRANCH   1  13
HETATM   13  C           1     -26.085  -6.679 -15.967  0.00  0.00     0.235 C 
BRANCH  13  14
HETATM   14  C           1     -24.832  -7.232 -16.601  0.00  0.00     0.191 C 
HETATM   15  O           1     -24.286  -8.249 -16.123  0.00  0.00    -0.647 OA
HETATM   16  O           1     -24.340  -6.671 -17.604  0.00  0.00    -0.647 OA
ENDBRANCH  13  14
ENDBRANCH   1  13
TORSDOF 6
ENDMDL
MODEL 3
REMARK VINA RESULT:      -4.8      2.360      2.667
REMARK  6 active torsions:
REMARK  status: ('A' for Active; 'I' for Inactive)
REMARK    1  A    between atoms: C_5  and  C_13 
REMARK    2  A    between atoms: C_5  and  N_6 
REMARK       I    between atoms: N_6  and  C_7 
REMARK    3  A    between atoms: C_7  and  C_8 
REMARK    4  A    between atoms: C_8  and  C_9 
REMARK    5  A    between atoms: C_8  and  N_11 
REMARK    6  A    between atoms: C_9  and  S_10 
ROOT
HETATM    1  N           1     -27.884  -6.604 -17.283  0.00  0.00    -0.349 N 
HETATM    2  C           1     -28.724  -6.258 -18.306  0.00  0.00     0.249 C 
HETATM    3  O           1     -28.450  -5.327 -19.024  0.00  0.00    -0.271 OA
HETATM    4  H           1     -28.113  -7.385 -16.681  0.00  0.00     0.163 HD
ENDROOT
BRANCH   2   5
HETATM    5  C           1     -29.994  -7.040 -18.536  0.00  0.00     0.283 C 
BRANCH   5   6
HETATM    6  C           1     -30.877  -6.953 -17.299  0.00  0.00     0.113 C 
BRANCH   6   7
HETATM    7  S           1     -31.301  -5.217 -16.979  0.00  0.00    -0.180 SA
HETATM    8  H           1     -32.241  -5.123 -17.938  0.00  0.00     0.101 HD
ENDBRANCH   6   7
ENDBRANCH   5   6
BRANCH   5   9
HETATM    9  N           1     -29.653  -8.477 -18.806  0.00  0.00    -0.066 N 
HETATM   10  H           1     -30.180  -9.091 -18.143  0.00  0.00     0.275 HD
HETATM   11  H           1     -29.918  -8.718 -19.787  0.00  0.00     0.275 HD
HETATM   12  H           1     -28.627  -8.622 -18.674  0.00  0.00     0.275 HD
ENDBRANCH   5   9
ENDBRANCH   2   5
BRANCH   1  13
HETATM   13  C           1     -26.664  -5.853 -17.061  0.00  0.00     0.235 C 
BRANCH  13  14
HETATM   14  C           1     -25.904  -6.454 -15.904  0.00  0.00     0.191 C 
HETATM   15  O           1     -24.866  -5.901 -15.483  0.00  0.00    -0.647 OA
HETATM   16  O           1     -26.314  -7.506 -15.367  0.00  0.00    -0.647 OA
ENDBRANCH  13  14
ENDBRANCH   1  13
TORSDOF 6
ENDMDL
MODEL 4
REMARK VINA RESULT:      -4.7      3.778      5.649
REMARK  6 active torsions:
REMARK  status: ('A' for Active; 'I' for Inactive)
REMARK    1  A    between atoms: C_5  and  C_13 
REMARK    2  A    between atoms: C_5  and  N_6 
REMARK       I    between atoms: N_6  and  C_7 
REMARK    3  A    between atoms: C_7  and  C_8 
REMARK    4  A    between atoms: C_8  and  C_9 
REMARK    5  A    between atoms: C_8  and  N_11 
REMARK    6  A    between atoms: C_9  and  S_10 
ROOT
HETATM    1  N           1     -29.591  -4.922 -17.654  0.00  0.00    -0.349 N 
HETATM    2  C           1     -28.345  -5.043 -17.100  0.00  0.00     0.249 C 
HETATM    3  O           1     -27.807  -4.081 -16.608  0.00  0.00    -0.271 OA
HETATM    4  H           1     -30.042  -5.728 -18.067  0.00  0.00     0.163 HD
ENDROOT
BRANCH   2   5
HETATM    5  C           1     -27.644  -6.379 -17.106  0.00  0.00     0.283 C 
BRANCH   5   6
HETATM    6  C           1     -26.878  -6.556 -15.802  0.00  0.00     0.113 C 
BRANCH   6   7
HETATM    7  S           1     -25.148  -6.968 -16.166  0.00  0.00    -0.180 SA
HETATM    8  H           1     -25.380  -7.475 -17.392  0.00  0.00     0.101 HD
ENDBRANCH   6   7
ENDBRANCH   5   6
BRANCH   5   9
HETATM    9  N           1     -26.686  -6.435 -18.259  0.00  0.00    -0.066 N 
HETATM   10  H           1     -26.021  -7.230 -18.122  0.00  0.00     0.275 HD
HETATM   11  H           1     -27.218  -6.577 -19.146  0.00  0.00     0.275 HD
HETATM   12  H           1     -26.151  -5.540 -18.311  0.00  0.00     0.275 HD
ENDBRANCH   5   9
ENDBRANCH   2   5
BRANCH   1  13
HETATM   13  C           1     -30.266  -3.639 -17.649  0.00  0.00     0.235 C 
BRANCH  13  14
HETATM   14  C           1     -31.734  -3.841 -17.366  0.00  0.00     0.191 C 
HETATM   15  O           1     -32.555  -2.944 -17.653  0.00  0.00    -0.647 OA
HETATM   16  O           1     -32.129  -4.907 -16.845  0.00  0.00    -0.647 OA
ENDBRANCH  13  14
ENDBRANCH   1  13
TORSDOF 6
ENDMDL
MODEL 5
REMARK VINA RESULT:      -4.6      9.828     11.022
REMARK  6 active torsions:
REMARK  status: ('A' for Active; 'I' for Inactive)
REMARK    1  A    between atoms: C_5  and  C_13 
REMARK    2  A    between atoms: C_5  and  N_6 
REMARK       I    between atoms: N_6  and  C_7 
REMARK    3  A    between atoms: C_7  and  C_8 
REMARK    4  A    between atoms: C_8  and  C_9 
REMARK    5  A    between atoms: C_8  and  N_11 
REMARK    6  A    between atoms: C_9  and  S_10 
ROOT
HETATM    1  N           1     -22.533  -4.136  -8.759  0.00  0.00    -0.349 N 
HETATM    2  C           1     -22.168  -4.611  -7.529  0.00  0.00     0.249 C 
HETATM    3  O           1     -22.979  -4.659  -6.635  0.00  0.00    -0.271 OA
HETATM    4  H           1     -21.854  -4.095  -9.509  0.00  0.00     0.163 HD
ENDROOT
BRANCH   2   5
HETATM    5  C           1     -20.753  -5.074  -7.289  0.00  0.00     0.283 C 
BRANCH   5   6
HETATM    6  C           1     -20.516  -5.234  -5.794  0.00  0.00     0.113 C 
BRANCH   6   7
HETATM    7  S           1     -20.437  -6.999  -5.378  0.00  0.00    -0.180 SA
HETATM    8  H           1     -21.586  -7.340  -5.990  0.00  0.00     0.101 HD
ENDBRANCH   6   7
ENDBRANCH   5   6
BRANCH   5   9
HETATM    9  N           1     -19.794  -4.060  -7.841  0.00  0.00    -0.066 N 
HETATM   10  H           1     -18.870  -4.515  -8.022  0.00  0.00     0.275 HD
HETATM   11  H           1     -20.173  -3.675  -8.735  0.00  0.00     0.275 HD
HETATM   12  H           1     -19.671  -3.286  -7.150  0.00  0.00     0.275 HD
ENDBRANCH   5   9
ENDBRANCH   2   5
BRANCH   1  13
HETATM   13  C           1     -23.893  -3.690  -8.990  0.00  0.00     0.235 C 
BRANCH  13  14
HETATM   14  C           1     -24.174  -3.672 -10.473  0.00  0.00     0.191 C 
HETATM   15  O           1     -23.346  -4.159 -11.272  0.00  0.00    -0.647 OA
HETATM   16  O           1     -25.235  -3.169 -10.902  0.00  0.00    -0.647 OA
ENDBRANCH  13  14
ENDBRANCH   1  13
TORSDOF 6
ENDMDL
MODEL 6
REMARK VINA RESULT:      -4.4      9.656     10.961
REMARK  6 active torsions:
REMARK  status: ('A' for Active; 'I' for Inactive)
REMARK    1  A    between atoms: C_5  and  C_13 
REMARK    2  A    between atoms: C_5  and  N_6 
REMARK       I    between atoms: N_6  and  C_7 
REMARK    3  A    between atoms: C_7  and  C_8 
REMARK    4  A    between atoms: C_8  and  C_9 
REMARK    5  A    between atoms: C_8  and  N_11 
REMARK    6  A    between atoms: C_9  and  S_10 
ROOT
HETATM    1  N           1     -22.719  -4.403  -8.372  0.00  0.00    -0.349 N 
HETATM    2  C           1     -21.473  -4.965  -8.302  0.00  0.00     0.249 C 
HETATM    3  O           1     -20.641  -4.692  -9.132  0.00  0.00    -0.271 OA
HETATM    4  H           1     -23.418  -4.632  -7.677  0.00  0.00     0.163 HD
ENDROOT
BRANCH   2   5
HETATM    5  C           1     -21.141  -5.924  -7.186  0.00  0.00     0.283 C 
BRANCH   5   6
HETATM    6  C           1     -21.424  -5.262  -5.845  0.00  0.00     0.113 C 
BRANCH   6   7
HETATM    7  S           1     -21.734  -6.539  -4.592  0.00  0.00    -0.180 SA
HETATM    8  H           1     -21.311  -7.575  -5.340  0.00  0.00     0.101 HD
ENDBRANCH   6   7
ENDBRANCH   5   6
BRANCH   5   9
HETATM    9  N           1     -19.689  -6.296  -7.263  0.00  0.00    -0.066 N 
HETATM   10  H           1     -19.353  -6.590  -6.317  0.00  0.00     0.275 HD
HETATM   11  H           1     -19.567  -7.085  -7.936  0.00  0.00     0.275 HD
HETATM   12  H           1     -19.136  -5.471  -7.587  0.00  0.00     0.275 HD
ENDBRANCH   5   9
ENDBRANCH   2   5
BRANCH   1  13
HETATM   13  C           1     -23.040  -3.481  -9.444  0.00  0.00     0.235 C 
BRANCH  13  14
HETATM   14  C           1     -24.353  -3.876 -10.075  0.00  0.00     0.191 C 
HETATM   15  O           1     -24.952  -3.076 -10.825  0.00  0.00    -0.647 OA
HETATM   16  O           1     -24.841  -5.004  -9.847  0.00  0.00    -0.647 OA
ENDBRANCH  13  14
ENDBRANCH   1  13
TORSDOF 6
ENDMDL
MODEL 7
REMARK VINA RESULT:      -4.4      9.349     10.519
REMARK  6 active torsions:
REMARK  status: ('A' for Active; 'I' for Inactive)
REMARK    1  A    between atoms: C_5  and  C_13 
REMARK    2  A    between atoms: C_5  and  N_6 
REMARK       I    between atoms: N_6  and  C_7 
REMARK    3  A    between atoms: C_7  and  C_8 
REMARK    4  A    between atoms: C_8  and  C_9 
REMARK    5  A    between atoms: C_8  and  N_11 
REMARK    6  A    between atoms: C_9  and  S_10 
ROOT
HETATM    1  N           1     -22.817  -3.824  -8.487  0.00  0.00    -0.349 N 
HETATM    2  C           1     -22.579  -4.466  -7.302  0.00  0.00     0.249 C 
HETATM    3  O           1     -23.502  -4.774  -6.587  0.00  0.00    -0.271 OA
HETATM    4  H           1     -22.043  -3.565  -9.086  0.00  0.00     0.163 HD
ENDROOT
BRANCH   2   5
HETATM    5  C           1     -21.165  -4.790  -6.890  0.00  0.00     0.283 C 
BRANCH   5   6
HETATM    6  C           1     -20.192  -3.952  -7.709  0.00  0.00     0.113 C 
BRANCH   6   7
HETATM    7  S           1     -19.933  -4.733  -9.327  0.00  0.00    -0.180 SA
HETATM    8  H           1     -20.871  -4.021  -9.979  0.00  0.00     0.101 HD
ENDBRANCH   6   7
ENDBRANCH   5   6
BRANCH   5   9
HETATM    9  N           1     -20.894  -6.246  -7.131  0.00  0.00    -0.066 N 
HETATM   10  H           1     -20.876  -6.432  -8.159  0.00  0.00     0.275 HD
HETATM   11  H           1     -19.971  -6.502  -6.714  0.00  0.00     0.275 HD
HETATM   12  H           1     -21.649  -6.817  -6.688  0.00  0.00     0.275 HD
ENDBRANCH   5   9
ENDBRANCH   2   5
BRANCH   1  13
HETATM   13  C           1     -24.176  -3.512  -8.884  0.00  0.00     0.235 C 
BRANCH  13  14
HETATM   14  C           1     -24.254  -3.423 -10.388  0.00  0.00     0.191 C 
HETATM   15  O           1     -25.350  -3.194 -10.944  0.00  0.00    -0.647 OA
HETATM   16  O           1     -23.224  -3.579 -11.078  0.00  0.00    -0.647 OA
ENDBRANCH  13  14
ENDBRANCH   1  13
TORSDOF 6
ENDMDL
MODEL 8
REMARK VINA RESULT:      -4.3      9.151     10.313
REMARK  6 active torsions:
REMARK  status: ('A' for Active; 'I' for Inactive)
REMARK    1  A    between atoms: C_5  and  C_13 
REMARK    2  A    between atoms: C_5  and  N_6 
REMARK       I    between atoms: N_6  and  C_7 
REMARK    3  A    between atoms: C_7  and  C_8 
REMARK    4  A    between atoms: C_8  and  C_9 
REMARK    5  A    between atoms: C_8  and  N_11 
REMARK    6  A    between atoms: C_9  and  S_10 
ROOT
HETATM    1  N           1     -21.565  -3.895  -8.107  0.00  0.00    -0.349 N 
HETATM    2  C           1     -21.120  -4.113  -9.382  0.00  0.00     0.249 C 
HETATM    3  O           1     -20.086  -4.708  -9.568  0.00  0.00    -0.271 OA
HETATM    4  H           1     -22.432  -3.396  -7.950  0.00  0.00     0.163 HD
ENDROOT
BRANCH   2   5
HETATM    5  C           1     -21.923  -3.611 -10.557  0.00  0.00     0.283 C 
BRANCH   5   6
HETATM    6  C           1     -23.189  -4.446 -10.702  0.00  0.00     0.113 C 
BRANCH   6   7
HETATM    7  S           1     -24.600  -3.532 -10.017  0.00  0.00    -0.180 SA
HETATM    8  H           1     -25.483  -3.910 -10.959  0.00  0.00     0.101 HD
ENDBRANCH   6   7
ENDBRANCH   5   6
BRANCH   5   9
HETATM    9  N           1     -21.103  -3.725 -11.809  0.00  0.00    -0.066 N 
HETATM   10  H           1     -20.158  -4.104 -11.573  0.00  0.00     0.275 HD
HETATM   11  H           1     -21.580  -4.370 -12.478  0.00  0.00     0.275 HD
HETATM   12  H           1     -21.001  -2.781 -12.244  0.00  0.00     0.275 HD
ENDBRANCH   5   9
ENDBRANCH   2   5
BRANCH   1  13
HETATM   13  C           1     -20.794  -4.377  -6.977  0.00  0.00     0.235 C 
BRANCH  13  14
HETATM   14  C           1     -21.397  -5.662  -6.466  0.00  0.00     0.191 C 
HETATM   15  O           1     -20.948  -6.761  -6.854  0.00  0.00    -0.647 OA
HETATM   16  O           1     -22.347  -5.626  -5.653  0.00  0.00    -0.647 OA
ENDBRANCH  13  14
ENDBRANCH   1  13
TORSDOF 6
ENDMDL
MODEL 9
REMARK VINA RESULT:      -4.2      7.131      8.478
REMARK  6 active torsions:
REMARK  status: ('A' for Active; 'I' for Inactive)
REMARK    1  A    between atoms: C_5  and  C_13 
REMARK    2  A    between atoms: C_5  and  N_6 
REMARK       I    between atoms: N_6  and  C_7 
REMARK    3  A    between atoms: C_7  and  C_8 
REMARK    4  A    between atoms: C_8  and  C_9 
REMARK    5  A    between atoms: C_8  and  N_11 
REMARK    6  A    between atoms: C_9  and  S_10 
ROOT
HETATM    1  N           1     -33.750  -4.307 -14.442  0.00  0.00    -0.349 N 
HETATM    2  C           1     -34.100  -3.554 -13.354  0.00  0.00     0.249 C 
HETATM    3  O           1     -34.744  -2.543 -13.502  0.00  0.00    -0.271 OA
HETATM    4  H           1     -33.211  -5.155 -14.318  0.00  0.00     0.163 HD
ENDROOT
BRANCH   2   5
HETATM    5  C           1     -33.682  -3.987 -11.971  0.00  0.00     0.283 C 
BRANCH   5   6
HETATM    6  C           1     -34.865  -4.632 -11.261  0.00  0.00     0.113 C 
BRANCH   6   7
HETATM    7  S           1     -34.375  -6.262 -10.627  0.00  0.00    -0.180 SA
HETATM    8  H           1     -33.115  -6.224 -11.100  0.00  0.00     0.101 HD
ENDBRANCH   6   7
ENDBRANCH   5   6
BRANCH   5   9
HETATM    9  N           1     -33.224  -2.790 -11.190  0.00  0.00    -0.066 N 
HETATM   10  H           1     -32.804  -2.088 -11.841  0.00  0.00     0.275 HD
HETATM   11  H           1     -34.040  -2.363 -10.698  0.00  0.00     0.275 HD
HETATM   12  H           1     -32.507  -3.086 -10.489  0.00  0.00     0.275 HD
ENDBRANCH   5   9
ENDBRANCH   2   5
BRANCH   1  13
HETATM   13  C           1     -34.152  -3.892 -15.772  0.00  0.00     0.235 C 
BRANCH  13  14
HETATM   14  C           1     -32.935  -3.793 -16.659  0.00  0.00     0.191 C 
HETATM   15  O           1     -31.918  -4.473 -16.403  0.00  0.00    -0.647 OA
HETATM   16  O           1     -32.944  -3.031 -17.649  0.00  0.00    -0.647 OA
ENDBRANCH  13  14
ENDBRANCH   1  13
TORSDOF 6
ENDMDL
