MODEL 1
REMARK VINA RESULT:      -7.8      0.000      0.000
REMARK  8 active torsions:
REMARK  status: ('A' for Active; 'I' for Inactive)
REMARK    1  A    between atoms: N_1  and  C_19 
REMARK    2  A    between atoms: C_6  and  C_17 
REMARK    3  A    between atoms: N_11  and  C_23 
REMARK       I    between atoms: N_11  and  C_22 
REMARK    4  A    between atoms: C_17  and  C_23 
REMARK    5  A    between atoms: C_18  and  C_23 
REMARK    6  A    between atoms: C_19  and  C_22 
REMARK    7  A    between atoms: C_19  and  C_21 
REMARK    8  A    between atoms: C_21  and  C_25 
ROOT
HETATM    1  C           1     -21.301  -6.156  -5.454  0.00  0.00     0.260 C 
ENDROOT
BRANCH   1   2
HETATM    2  N           1     -21.475  -5.862  -3.994  0.00  0.00    -0.067 N 
HETATM    3  H           1     -20.620  -5.384  -3.630  0.00  0.00     0.275 HD
HETATM    4  H           1     -22.303  -5.239  -3.862  0.00  0.00     0.275 HD
HETATM    5  H           1     -21.623  -6.755  -3.473  0.00  0.00     0.275 HD
ENDBRANCH   1   2
BRANCH   1   6
HETATM    6  C           1     -20.258  -7.234  -5.628  0.00  0.00     0.130 C 
HETATM    7  N           1     -20.140  -8.229  -4.696  0.00  0.00    -0.359 N 
HETATM    8  H           1     -20.753  -8.243  -3.891  0.00  0.00     0.162 HD
HETATM    9  O           1     -19.528  -7.217  -6.590  0.00  0.00    -0.397 OA
BRANCH   7  10
HETATM   10  C           1     -19.139  -9.264  -4.863  0.00  0.00     0.184 C 
BRANCH  10  11
HETATM   11  C           1     -18.331  -9.400  -3.578  0.00  0.00     0.040 C 
BRANCH  11  12
HETATM   12  C           1     -16.999 -10.073  -3.885  0.00  0.00    -0.018 C 
HETATM   13  C           1     -15.965  -9.652  -2.849  0.00  0.00     0.289 C 
HETATM   14  C           1     -16.527  -9.655  -5.272  0.00  0.00     0.009 C 
ENDBRANCH  11  12
ENDBRANCH  10  11
BRANCH  10  15
HETATM   15  C           1     -19.817 -10.575  -5.170  0.00  0.00     0.196 C 
HETATM   16  O           1     -20.336 -11.242  -4.249  0.00  0.00    -0.646 OA
HETATM   17  O           1     -19.860 -10.996  -6.347  0.00  0.00    -0.646 OA
ENDBRANCH  10  15
ENDBRANCH   7  10
ENDBRANCH   1   6
BRANCH   1  18
HETATM   18  C           1     -20.851  -4.892  -6.176  0.00  0.00     0.082 C 
BRANCH  18  19
HETATM   19  C           1     -21.817  -4.575  -7.275  0.00  0.00    -0.028 A 
HETATM   20  C           1     -21.497  -4.418  -8.652  0.00  0.00    -0.002 A 
HETATM   21  C           1     -22.688  -4.130  -9.320  0.00  0.00     0.042 A 
HETATM   22  C           1     -20.303  -4.492  -9.396  0.00  0.00     0.014 A 
HETATM   23  C           1     -22.745  -3.913 -10.702  0.00  0.00     0.030 A 
HETATM   24  N           1     -23.688  -4.116  -8.375  0.00  0.00    -0.365 N 
HETATM   25  C           1     -21.548  -3.993 -11.419  0.00  0.00     0.002 A 
HETATM   26  C           1     -20.343  -4.278 -10.779  0.00  0.00     0.001 A 
HETATM   27  H           1     -24.701  -3.927  -8.575  0.00  0.00     0.165 HD
HETATM   28  C           1     -23.173  -4.384  -7.135  0.00  0.00     0.096 A 
ENDBRANCH  18  19
ENDBRANCH   1  18
TORSDOF 8
ENDMDL
MODEL 2
REMARK VINA RESULT:      -7.5      1.861      2.465
REMARK  8 active torsions:
REMARK  status: ('A' for Active; 'I' for Inactive)
REMARK    1  A    between atoms: N_1  and  C_19 
REMARK    2  A    between atoms: C_6  and  C_17 
REMARK    3  A    between atoms: N_11  and  C_23 
REMARK       I    between atoms: N_11  and  C_22 
REMARK    4  A    between atoms: C_17  and  C_23 
REMARK    5  A    between atoms: C_18  and  C_23 
REMARK    6  A    between atoms: C_19  and  C_22 
REMARK    7  A    between atoms: C_19  and  C_21 
REMARK    8  A    between atoms: C_21  and  C_25 
ROOT
HETATM    1  C           1     -21.759  -6.524  -5.354  0.00  0.00     0.260 C 
ENDROOT
BRANCH   1   2
HETATM    2  N           1     -21.992  -6.010  -3.965  0.00  0.00    -0.067 N 
HETATM    3  H           1     -21.151  -5.481  -3.642  0.00  0.00     0.275 HD
HETATM    4  H           1     -22.822  -5.375  -3.964  0.00  0.00     0.275 HD
HETATM    5  H           1     -22.166  -6.814  -3.320  0.00  0.00     0.275 HD
ENDBRANCH   1   2
BRANCH   1   6
HETATM    6  C           1     -20.972  -7.810  -5.288  0.00  0.00     0.130 C 
HETATM    7  N           1     -21.461  -8.876  -4.583  0.00  0.00    -0.359 N 
HETATM    8  H           1     -22.351  -8.802  -4.106  0.00  0.00     0.162 HD
HETATM    9  O           1     -19.911  -7.899  -5.858  0.00  0.00    -0.397 OA
BRANCH   7  10
HETATM   10  C           1     -20.706 -10.112  -4.519  0.00  0.00     0.184 C 
BRANCH  10  11
HETATM   11  C           1     -20.736 -10.653  -3.095  0.00  0.00     0.040 C 
BRANCH  11  12
HETATM   12  C           1     -21.700  -9.823  -2.256  0.00  0.00    -0.018 C 
HETATM   13  C           1     -20.947  -9.191  -1.093  0.00  0.00     0.289 C 
HETATM   14  C           1     -22.806 -10.721  -1.717  0.00  0.00     0.009 C 
ENDBRANCH  11  12
ENDBRANCH  10  11
BRANCH  10  15
HETATM   15  C           1     -21.318 -11.125  -5.454  0.00  0.00     0.196 C 
HETATM   16  O           1     -21.000 -11.133  -6.663  0.00  0.00    -0.646 OA
HETATM   17  O           1     -22.145 -11.956  -5.020  0.00  0.00    -0.646 OA
ENDBRANCH  10  15
ENDBRANCH   7  10
ENDBRANCH   1   6
BRANCH   1  18
HETATM   18  C           1     -20.976  -5.490  -6.153  0.00  0.00     0.082 C 
BRANCH  18  19
HETATM   19  C           1     -21.862  -4.893  -7.200  0.00  0.00    -0.028 A 
HETATM   20  C           1     -21.487  -4.577  -8.535  0.00  0.00    -0.002 A 
HETATM   21  C           1     -22.612  -4.043  -9.163  0.00  0.00     0.042 A 
HETATM   22  C           1     -20.291  -4.694  -9.271  0.00  0.00     0.014 A 
HETATM   23  C           1     -22.603  -3.619 -10.498  0.00  0.00     0.030 A 
HETATM   24  N           1     -23.629  -4.039  -8.236  0.00  0.00    -0.365 N 
HETATM   25  C           1     -21.406  -3.746 -11.208  0.00  0.00     0.002 A 
HETATM   26  C           1     -20.265  -4.275 -10.606  0.00  0.00     0.001 A 
HETATM   27  H           1     -24.604  -3.694  -8.415  0.00  0.00     0.165 HD
HETATM   28  C           1     -23.187  -4.551  -7.045  0.00  0.00     0.096 A 
ENDBRANCH  18  19
ENDBRANCH   1  18
TORSDOF 8
ENDMDL
MODEL 3
REMARK VINA RESULT:      -7.4      2.429      3.416
REMARK  8 active torsions:
REMARK  status: ('A' for Active; 'I' for Inactive)
REMARK    1  A    between atoms: N_1  and  C_19 
REMARK    2  A    between atoms: C_6  and  C_17 
REMARK    3  A    between atoms: N_11  and  C_23 
REMARK       I    between atoms: N_11  and  C_22 
REMARK    4  A    between atoms: C_17  and  C_23 
REMARK    5  A    between atoms: C_18  and  C_23 
REMARK    6  A    between atoms: C_19  and  C_22 
REMARK    7  A    between atoms: C_19  and  C_21 
REMARK    8  A    between atoms: C_21  and  C_25 
ROOT
HETATM    1  C           1     -21.700  -6.423  -5.745  0.00  0.00     0.260 C 
ENDROOT
BRANCH   1   2
HETATM    2  N           1     -22.986  -6.140  -5.027  0.00  0.00    -0.067 N 
HETATM    3  H           1     -22.846  -6.266  -3.999  0.00  0.00     0.275 HD
HETATM    4  H           1     -23.282  -5.157  -5.219  0.00  0.00     0.275 HD
HETATM    5  H           1     -23.724  -6.799  -5.361  0.00  0.00     0.275 HD
ENDBRANCH   1   2
BRANCH   1   6
HETATM    6  C           1     -20.855  -7.357  -4.915  0.00  0.00     0.130 C 
HETATM    7  N           1     -21.358  -7.890  -3.759  0.00  0.00    -0.359 N 
HETATM    8  H           1     -22.298  -7.658  -3.462  0.00  0.00     0.162 HD
HETATM    9  O           1     -19.735  -7.635  -5.270  0.00  0.00    -0.397 OA
BRANCH   7  10
HETATM   10  C           1     -20.547  -8.787  -2.960  0.00  0.00     0.184 C 
BRANCH  10  11
HETATM   11  C           1     -20.447  -8.252  -1.537  0.00  0.00     0.040 C 
BRANCH  11  12
HETATM   12  C           1     -21.840  -8.180  -0.923  0.00  0.00    -0.018 C 
HETATM   13  C           1     -22.327  -6.737  -0.932  0.00  0.00     0.289 C 
HETATM   14  C           1     -21.788  -8.688   0.513  0.00  0.00     0.009 C 
ENDBRANCH  11  12
ENDBRANCH  10  11
BRANCH  10  15
HETATM   15  C           1     -21.182 -10.155  -2.938  0.00  0.00     0.196 C 
HETATM   16  O           1     -22.250 -10.359  -3.557  0.00  0.00    -0.646 OA
HETATM   17  O           1     -20.643 -11.085  -2.301  0.00  0.00    -0.646 OA
ENDBRANCH  10  15
ENDBRANCH   7  10
ENDBRANCH   1   6
BRANCH   1  18
HETATM   18  C           1     -20.946  -5.118  -5.968  0.00  0.00     0.082 C 
BRANCH  18  19
HETATM   19  C           1     -20.841  -4.846  -7.436  0.00  0.00    -0.028 A 
HETATM   20  C           1     -21.899  -4.428  -8.289  0.00  0.00    -0.002 A 
HETATM   21  C           1     -21.365  -4.294  -9.571  0.00  0.00     0.042 A 
HETATM   22  C           1     -23.266  -4.152  -8.092  0.00  0.00     0.014 A 
HETATM   23  C           1     -22.133  -3.894 -10.672  0.00  0.00     0.030 A 
HETATM   24  N           1     -20.030  -4.621  -9.489  0.00  0.00    -0.365 N 
HETATM   25  C           1     -23.487  -3.625 -10.451  0.00  0.00     0.002 A 
HETATM   26  C           1     -24.048  -3.750  -9.181  0.00  0.00     0.001 A 
HETATM   27  H           1     -19.360  -4.613 -10.297  0.00  0.00     0.165 HD
HETATM   28  C           1     -19.702  -4.956  -8.202  0.00  0.00     0.096 A 
ENDBRANCH  18  19
ENDBRANCH   1  18
TORSDOF 8
ENDMDL
MODEL 4
REMARK VINA RESULT:      -7.3      2.657      3.500
REMARK  8 active torsions:
REMARK  status: ('A' for Active; 'I' for Inactive)
REMARK    1  A    between atoms: N_1  and  C_19 
REMARK    2  A    between atoms: C_6  and  C_17 
REMARK    3  A    between atoms: N_11  and  C_23 
REMARK       I    between atoms: N_11  and  C_22 
REMARK    4  A    between atoms: C_17  and  C_23 
REMARK    5  A    between atoms: C_18  and  C_23 
REMARK    6  A    between atoms: C_19  and  C_22 
REMARK    7  A    between atoms: C_19  and  C_21 
REMARK    8  A    between atoms: C_21  and  C_25 
ROOT
HETATM    1  C           1     -21.675  -6.232  -5.322  0.00  0.00     0.260 C 
ENDROOT
BRANCH   1   2
HETATM    2  N           1     -23.169  -6.139  -5.247  0.00  0.00    -0.067 N 
HETATM    3  H           1     -23.499  -6.538  -4.338  0.00  0.00     0.275 HD
HETATM    4  H           1     -23.459  -5.137  -5.311  0.00  0.00     0.275 HD
HETATM    5  H           1     -23.593  -6.676  -6.036  0.00  0.00     0.275 HD
ENDBRANCH   1   2
BRANCH   1   6
HETATM    6  C           1     -21.132  -6.688  -3.989  0.00  0.00     0.130 C 
HETATM    7  N           1     -20.699  -7.977  -3.831  0.00  0.00    -0.359 N 
HETATM    8  H           1     -20.742  -8.624  -4.609  0.00  0.00     0.162 HD
HETATM    9  O           1     -21.081  -5.916  -3.062  0.00  0.00    -0.397 OA
BRANCH   7  10
HETATM   10  C           1     -20.178  -8.416  -2.552  0.00  0.00     0.184 C 
BRANCH  10  11
HETATM   11  C           1     -21.318  -8.958  -1.698  0.00  0.00     0.040 C 
BRANCH  11  12
HETATM   12  C           1     -21.308  -8.269  -0.340  0.00  0.00    -0.018 C 
HETATM   13  C           1     -21.204  -9.315   0.761  0.00  0.00     0.289 C 
HETATM   14  C           1     -22.598  -7.476  -0.165  0.00  0.00     0.009 C 
ENDBRANCH  11  12
ENDBRANCH  10  11
BRANCH  10  15
HETATM   15  C           1     -19.155  -9.501  -2.771  0.00  0.00     0.196 C 
HETATM   16  O           1     -17.938  -9.254  -2.620  0.00  0.00    -0.646 OA
HETATM   17  O           1     -19.522 -10.649  -3.104  0.00  0.00    -0.646 OA
ENDBRANCH  10  15
ENDBRANCH   7  10
ENDBRANCH   1   6
BRANCH   1  18
HETATM   18  C           1     -21.098  -4.864  -5.664  0.00  0.00     0.082 C 
BRANCH  18  19
HETATM   19  C           1     -20.879  -4.770  -7.141  0.00  0.00    -0.028 A 
HETATM   20  C           1     -21.860  -4.429  -8.114  0.00  0.00    -0.002 A 
HETATM   21  C           1     -21.232  -4.460  -9.359  0.00  0.00     0.042 A 
HETATM   22  C           1     -23.227  -4.097  -8.052  0.00  0.00     0.014 A 
HETATM   23  C           1     -21.906  -4.174 -10.553  0.00  0.00     0.030 A 
HETATM   24  N           1     -19.918  -4.808  -9.141  0.00  0.00    -0.365 N 
HETATM   25  C           1     -23.262  -3.846 -10.466  0.00  0.00     0.002 A 
HETATM   26  C           1     -23.916  -3.808  -9.235  0.00  0.00     0.001 A 
HETATM   27  H           1     -19.192  -4.912  -9.892  0.00  0.00     0.165 HD
HETATM   28  C           1     -19.694  -4.998  -7.803  0.00  0.00     0.096 A 
ENDBRANCH  18  19
ENDBRANCH   1  18
TORSDOF 8
ENDMDL
MODEL 5
REMARK VINA RESULT:      -7.2      3.176      7.795
REMARK  8 active torsions:
REMARK  status: ('A' for Active; 'I' for Inactive)
REMARK    1  A    between atoms: N_1  and  C_19 
REMARK    2  A    between atoms: C_6  and  C_17 
REMARK    3  A    between atoms: N_11  and  C_23 
REMARK       I    between atoms: N_11  and  C_22 
REMARK    4  A    between atoms: C_17  and  C_23 
REMARK    5  A    between atoms: C_18  and  C_23 
REMARK    6  A    between atoms: C_19  and  C_22 
REMARK    7  A    between atoms: C_19  and  C_21 
REMARK    8  A    between atoms: C_21  and  C_25 
ROOT
HETATM    1  C           1     -21.918  -5.255  -5.551  0.00  0.00     0.260 C 
ENDROOT
BRANCH   1   2
HETATM    2  N           1     -23.055  -6.231  -5.549  0.00  0.00    -0.067 N 
HETATM    3  H           1     -23.393  -6.372  -4.570  0.00  0.00     0.275 HD
HETATM    4  H           1     -23.836  -5.857  -6.134  0.00  0.00     0.275 HD
HETATM    5  H           1     -22.732  -7.145  -5.940  0.00  0.00     0.275 HD
ENDBRANCH   1   2
BRANCH   1   6
HETATM    6  C           1     -21.932  -4.469  -6.839  0.00  0.00     0.130 C 
HETATM    7  N           1     -22.938  -4.662  -7.747  0.00  0.00    -0.359 N 
HETATM    8  H           1     -23.673  -5.331  -7.554  0.00  0.00     0.162 HD
HETATM    9  O           1     -21.056  -3.670  -7.070  0.00  0.00    -0.397 OA
BRANCH   7  10
HETATM   10  C           1     -22.953  -3.908  -8.985  0.00  0.00     0.184 C 
BRANCH  10  11
HETATM   11  C           1     -22.118  -4.635 -10.033  0.00  0.00     0.040 C 
BRANCH  11  12
HETATM   12  C           1     -20.888  -3.802 -10.370  0.00  0.00    -0.018 C 
HETATM   13  C           1     -21.154  -2.989 -11.631  0.00  0.00     0.289 C 
HETATM   14  C           1     -19.699  -4.725 -10.603  0.00  0.00     0.009 C 
ENDBRANCH  11  12
ENDBRANCH  10  11
BRANCH  10  15
HETATM   15  C           1     -24.372  -3.776  -9.478  0.00  0.00     0.196 C 
HETATM   16  O           1     -24.970  -4.774  -9.936  0.00  0.00    -0.646 OA
HETATM   17  O           1     -24.951  -2.669  -9.428  0.00  0.00    -0.646 OA
ENDBRANCH  10  15
ENDBRANCH   7  10
ENDBRANCH   1   6
BRANCH   1  18
HETATM   18  C           1     -20.600  -6.010  -5.431  0.00  0.00     0.082 C 
BRANCH  18  19
HETATM   19  C           1     -20.793  -7.216  -4.565  0.00  0.00    -0.028 A 
HETATM   20  C           1     -21.303  -7.221  -3.237  0.00  0.00    -0.002 A 
HETATM   21  C           1     -21.315  -8.547  -2.806  0.00  0.00     0.042 A 
HETATM   22  C           1     -21.757  -6.218  -2.358  0.00  0.00     0.014 A 
HETATM   23  C           1     -21.760  -8.925  -1.534  0.00  0.00     0.030 A 
HETATM   24  N           1     -20.827  -9.313  -3.842  0.00  0.00    -0.365 N 
HETATM   25  C           1     -22.206  -7.913  -0.679  0.00  0.00     0.002 A 
HETATM   26  C           1     -22.207  -6.578  -1.082  0.00  0.00     0.001 A 
HETATM   27  H           1     -20.716 -10.356  -3.816  0.00  0.00     0.165 HD
HETATM   28  C           1     -20.509  -8.518  -4.910  0.00  0.00     0.096 A 
ENDBRANCH  18  19
ENDBRANCH   1  18
TORSDOF 8
ENDMDL
MODEL 6
REMARK VINA RESULT:      -7.1      3.574      4.792
REMARK  8 active torsions:
REMARK  status: ('A' for Active; 'I' for Inactive)
REMARK    1  A    between atoms: N_1  and  C_19 
REMARK    2  A    between atoms: C_6  and  C_17 
REMARK    3  A    between atoms: N_11  and  C_23 
REMARK       I    between atoms: N_11  and  C_22 
REMARK    4  A    between atoms: C_17  and  C_23 
REMARK    5  A    between atoms: C_18  and  C_23 
REMARK    6  A    between atoms: C_19  and  C_22 
REMARK    7  A    between atoms: C_19  and  C_21 
REMARK    8  A    between atoms: C_21  and  C_25 
ROOT
HETATM    1  C           1     -19.783  -8.464  -3.800  0.00  0.00     0.260 C 
ENDROOT
BRANCH   1   2
HETATM    2  N           1     -18.537  -9.297  -3.758  0.00  0.00    -0.067 N 
HETATM    3  H           1     -18.785 -10.282  -3.511  0.00  0.00     0.275 HD
HETATM    4  H           1     -18.076  -9.280  -4.696  0.00  0.00     0.275 HD
HETATM    5  H           1     -17.883  -8.912  -3.040  0.00  0.00     0.275 HD
ENDBRANCH   1   2
BRANCH   1   6
HETATM    6  C           1     -20.763  -8.973  -2.772  0.00  0.00     0.130 C 
HETATM    7  N           1     -20.787  -8.423  -1.518  0.00  0.00    -0.359 N 
HETATM    8  H           1     -20.148  -7.674  -1.282  0.00  0.00     0.162 HD
HETATM    9  O           1     -21.526  -9.865  -3.054  0.00  0.00    -0.397 OA
BRANCH   7  10
HETATM   10  C           1     -21.728  -8.912  -0.530  0.00  0.00     0.184 C 
BRANCH  10  11
HETATM   11  C           1     -20.971  -9.362   0.713  0.00  0.00     0.040 C 
BRANCH  11  12
HETATM   12  C           1     -20.991 -10.883   0.798  0.00  0.00    -0.018 C 
HETATM   13  C           1     -19.765 -11.448   0.094  0.00  0.00     0.289 C 
HETATM   14  C           1     -22.251 -11.411   0.123  0.00  0.00     0.009 C 
ENDBRANCH  11  12
ENDBRANCH  10  11
BRANCH  10  15
HETATM   15  C           1     -22.688  -7.809  -0.161  0.00  0.00     0.196 C 
HETATM   16  O           1     -22.706  -6.747  -0.822  0.00  0.00    -0.646 OA
HETATM   17  O           1     -23.466  -7.955   0.807  0.00  0.00    -0.646 OA
ENDBRANCH  10  15
ENDBRANCH   7  10
ENDBRANCH   1   6
BRANCH   1  18
HETATM   18  C           1     -20.408  -8.555  -5.187  0.00  0.00     0.082 C 
BRANCH  18  19
HETATM   19  C           1     -21.161  -7.295  -5.479  0.00  0.00    -0.028 A 
HETATM   20  C           1     -20.708  -6.215  -6.286  0.00  0.00    -0.002 A 
HETATM   21  C           1     -21.717  -5.252  -6.289  0.00  0.00     0.042 A 
HETATM   22  C           1     -19.530  -5.965  -7.016  0.00  0.00     0.014 A 
HETATM   23  C           1     -21.608  -4.045  -6.990  0.00  0.00     0.030 A 
HETATM   24  N           1     -22.742  -5.738  -5.509  0.00  0.00    -0.365 N 
HETATM   25  C           1     -20.430  -3.819  -7.708  0.00  0.00     0.002 A 
HETATM   26  C           1     -19.404  -4.764  -7.723  0.00  0.00     0.001 A 
HETATM   27  H           1     -23.644  -5.235  -5.321  0.00  0.00     0.165 HD
HETATM   28  C           1     -22.416  -6.973  -5.014  0.00  0.00     0.096 A 
ENDBRANCH  18  19
ENDBRANCH   1  18
TORSDOF 8
ENDMDL
MODEL 7
REMARK VINA RESULT:      -7.0      2.754      3.370
REMARK  8 active torsions:
REMARK  status: ('A' for Active; 'I' for Inactive)
REMARK    1  A    between atoms: N_1  and  C_19 
REMARK    2  A    between atoms: C_6  and  C_17 
REMARK    3  A    between atoms: N_11  and  C_23 
REMARK       I    between atoms: N_11  and  C_22 
REMARK    4  A    between atoms: C_17  and  C_23 
REMARK    5  A    between atoms: C_18  and  C_23 
REMARK    6  A    between atoms: C_19  and  C_22 
REMARK    7  A    between atoms: C_19  and  C_21 
REMARK    8  A    between atoms: C_21  and  C_25 
ROOT
HETATM    1  C           1     -20.378  -5.939  -5.882  0.00  0.00     0.260 C 
ENDROOT
BRANCH   1   2
HETATM    2  N           1     -20.650  -6.679  -7.158  0.00  0.00    -0.067 N 
HETATM    3  H           1     -21.653  -6.971  -7.184  0.00  0.00     0.275 HD
HETATM    4  H           1     -20.448  -6.056  -7.971  0.00  0.00     0.275 HD
HETATM    5  H           1     -20.041  -7.527  -7.207  0.00  0.00     0.275 HD
ENDBRANCH   1   2
BRANCH   1   6
HETATM    6  C           1     -21.177  -6.559  -4.762  0.00  0.00     0.130 C 
HETATM    7  N           1     -20.820  -7.781  -4.261  0.00  0.00    -0.359 N 
HETATM    8  H           1     -20.018  -8.269  -4.641  0.00  0.00     0.162 HD
HETATM    9  O           1     -22.132  -5.975  -4.307  0.00  0.00    -0.397 OA
BRANCH   7  10
HETATM   10  C           1     -21.587  -8.377  -3.185  0.00  0.00     0.184 C 
BRANCH  10  11
HETATM   11  C           1     -21.331  -9.878  -3.148  0.00  0.00     0.040 C 
BRANCH  11  12
HETATM   12  C           1     -22.641 -10.623  -3.373  0.00  0.00    -0.018 C 
HETATM   13  C           1     -23.146 -11.175  -2.047  0.00  0.00     0.289 C 
HETATM   14  C           1     -22.410 -11.772  -4.346  0.00  0.00     0.009 C 
ENDBRANCH  11  12
ENDBRANCH  10  11
BRANCH  10  15
HETATM   15  C           1     -21.170  -7.764  -1.871  0.00  0.00     0.196 C 
HETATM   16  O           1     -20.004  -7.926  -1.447  0.00  0.00    -0.646 OA
HETATM   17  O           1     -21.989  -7.095  -1.205  0.00  0.00    -0.646 OA
ENDBRANCH  10  15
ENDBRANCH   7  10
ENDBRANCH   1   6
BRANCH   1  18
HETATM   18  C           1     -20.780  -4.479  -6.047  0.00  0.00     0.082 C 
BRANCH  18  19
HETATM   19  C           1     -21.766  -4.357  -7.167  0.00  0.00    -0.028 A 
HETATM   20  C           1     -21.453  -4.182  -8.543  0.00  0.00    -0.002 A 
HETATM   21  C           1     -22.663  -4.116  -9.235  0.00  0.00     0.042 A 
HETATM   22  C           1     -20.251  -4.072  -9.269  0.00  0.00     0.014 A 
HETATM   23  C           1     -22.732  -3.946 -10.623  0.00  0.00     0.030 A 
HETATM   24  N           1     -23.669  -4.247  -8.303  0.00  0.00    -0.365 N 
HETATM   25  C           1     -21.526  -3.840 -11.321  0.00  0.00     0.002 A 
HETATM   26  C           1     -20.302  -3.902 -10.657  0.00  0.00     0.001 A 
HETATM   27  H           1     -24.695  -4.237  -8.522  0.00  0.00     0.165 HD
HETATM   28  C           1     -23.137  -4.394  -7.049  0.00  0.00     0.096 A 
ENDBRANCH  18  19
ENDBRANCH   1  18
TORSDOF 8
ENDMDL
MODEL 8
REMARK VINA RESULT:      -7.0      1.753      2.969
REMARK  8 active torsions:
REMARK  status: ('A' for Active; 'I' for Inactive)
REMARK    1  A    between atoms: N_1  and  C_19 
REMARK    2  A    between atoms: C_6  and  C_17 
REMARK    3  A    between atoms: N_11  and  C_23 
REMARK       I    between atoms: N_11  and  C_22 
REMARK    4  A    between atoms: C_17  and  C_23 
REMARK    5  A    between atoms: C_18  and  C_23 
REMARK    6  A    between atoms: C_19  and  C_22 
REMARK    7  A    between atoms: C_19  and  C_21 
REMARK    8  A    between atoms: C_21  and  C_25 
ROOT
HETATM    1  C           1     -21.635  -6.631  -4.928  0.00  0.00     0.260 C 
ENDROOT
BRANCH   1   2
HETATM    2  N           1     -21.526  -5.770  -3.705  0.00  0.00    -0.067 N 
HETATM    3  H           1     -20.760  -5.071  -3.838  0.00  0.00     0.275 HD
HETATM    4  H           1     -22.429  -5.269  -3.550  0.00  0.00     0.275 HD
HETATM    5  H           1     -21.311  -6.368  -2.875  0.00  0.00     0.275 HD
ENDBRANCH   1   2
BRANCH   1   6
HETATM    6  C           1     -21.126  -8.017  -4.614  0.00  0.00     0.130 C 
HETATM    7  N           1     -20.978  -8.935  -5.618  0.00  0.00    -0.359 N 
HETATM    8  H           1     -21.209  -8.685  -6.571  0.00  0.00     0.162 HD
HETATM    9  O           1     -20.848  -8.315  -3.477  0.00  0.00    -0.397 OA
BRANCH   7  10
HETATM   10  C           1     -20.488 -10.266  -5.317  0.00  0.00     0.184 C 
BRANCH  10  11
HETATM   11  C           1     -21.294 -11.293  -6.103  0.00  0.00     0.040 C 
BRANCH  11  12
HETATM   12  C           1     -21.905 -12.304  -5.141  0.00  0.00    -0.018 C 
HETATM   13  C           1     -22.959 -13.127  -5.869  0.00  0.00     0.289 C 
HETATM   14  C           1     -22.552 -11.568  -3.975  0.00  0.00     0.009 C 
ENDBRANCH  11  12
ENDBRANCH  10  11
BRANCH  10  15
HETATM   15  C           1     -19.034 -10.367  -5.703  0.00  0.00     0.196 C 
HETATM   16  O           1     -18.705 -10.960  -6.754  0.00  0.00    -0.646 OA
HETATM   17  O           1     -18.157  -9.857  -4.973  0.00  0.00    -0.646 OA
ENDBRANCH  10  15
ENDBRANCH   7  10
ENDBRANCH   1   6
BRANCH   1  18
HETATM   18  C           1     -20.803  -6.025  -6.051  0.00  0.00     0.082 C 
BRANCH  18  19
HETATM   19  C           1     -21.695  -5.260  -6.977  0.00  0.00    -0.028 A 
HETATM   20  C           1     -21.367  -4.831  -8.293  0.00  0.00    -0.002 A 
HETATM   21  C           1     -22.481  -4.157  -8.795  0.00  0.00     0.042 A 
HETATM   22  C           1     -20.225  -4.952  -9.107  0.00  0.00     0.014 A 
HETATM   23  C           1     -22.510  -3.595 -10.077  0.00  0.00     0.030 A 
HETATM   24  N           1     -23.445  -4.181  -7.812  0.00  0.00    -0.365 N 
HETATM   25  C           1     -21.364  -3.728 -10.867  0.00  0.00     0.002 A 
HETATM   26  C           1     -20.237  -4.397 -10.392  0.00  0.00     0.001 A 
HETATM   27  H           1     -24.399  -3.752  -7.896  0.00  0.00     0.165 HD
HETATM   28  C           1     -22.980  -4.846  -6.708  0.00  0.00     0.096 A 
ENDBRANCH  18  19
ENDBRANCH   1  18
TORSDOF 8
ENDMDL
MODEL 9
REMARK VINA RESULT:      -6.9      3.081      8.135
REMARK  8 active torsions:
REMARK  status: ('A' for Active; 'I' for Inactive)
REMARK    1  A    between atoms: N_1  and  C_19 
REMARK    2  A    between atoms: C_6  and  C_17 
REMARK    3  A    between atoms: N_11  and  C_23 
REMARK       I    between atoms: N_11  and  C_22 
REMARK    4  A    between atoms: C_17  and  C_23 
REMARK    5  A    between atoms: C_18  and  C_23 
REMARK    6  A    between atoms: C_19  and  C_22 
REMARK    7  A    between atoms: C_19  and  C_21 
REMARK    8  A    between atoms: C_21  and  C_25 
ROOT
HETATM    1  C           1     -21.334  -6.393  -4.646  0.00  0.00     0.260 C 
ENDROOT
BRANCH   1   2
HETATM    2  N           1     -22.741  -6.205  -4.163  0.00  0.00    -0.067 N 
HETATM    3  H           1     -23.186  -5.414  -4.682  0.00  0.00     0.275 HD
HETATM    4  H           1     -23.287  -7.080  -4.332  0.00  0.00     0.275 HD
HETATM    5  H           1     -22.734  -5.990  -3.141  0.00  0.00     0.275 HD
ENDBRANCH   1   2
BRANCH   1   6
HETATM    6  C           1     -21.292  -6.227  -6.146  0.00  0.00     0.130 C 
HETATM    7  N           1     -21.660  -5.037  -6.714  0.00  0.00    -0.359 N 
HETATM    8  H           1     -21.959  -4.268  -6.128  0.00  0.00     0.162 HD
HETATM    9  O           1     -20.933  -7.145  -6.845  0.00  0.00    -0.397 OA
BRANCH   7  10
HETATM   10  C           1     -21.619  -4.878  -8.154  0.00  0.00     0.184 C 
BRANCH  10  11
HETATM   11  C           1     -22.569  -3.761  -8.568  0.00  0.00     0.040 C 
BRANCH  11  12
HETATM   12  C           1     -23.669  -4.332  -9.455  0.00  0.00    -0.018 C 
HETATM   13  C           1     -23.101  -4.646 -10.832  0.00  0.00     0.289 C 
HETATM   14  C           1     -24.792  -3.312  -9.590  0.00  0.00     0.009 C 
ENDBRANCH  11  12
ENDBRANCH  10  11
BRANCH  10  15
HETATM   15  C           1     -20.216  -4.527  -8.582  0.00  0.00     0.196 C 
HETATM   16  O           1     -19.457  -3.917  -7.798  0.00  0.00    -0.646 OA
HETATM   17  O           1     -19.812  -4.847  -9.721  0.00  0.00    -0.646 OA
ENDBRANCH  10  15
ENDBRANCH   7  10
ENDBRANCH   1   6
BRANCH   1  18
HETATM   18  C           1     -20.853  -7.790  -4.275  0.00  0.00     0.082 C 
BRANCH  18  19
HETATM   19  C           1     -21.209  -8.078  -2.850  0.00  0.00    -0.028 A 
HETATM   20  C           1     -21.907  -9.223  -2.376  0.00  0.00    -0.002 A 
HETATM   21  C           1     -22.024  -9.089  -0.993  0.00  0.00     0.042 A 
HETATM   22  C           1     -22.454 -10.363  -2.996  0.00  0.00     0.014 A 
HETATM   23  C           1     -22.663 -10.044  -0.192  0.00  0.00     0.030 A 
HETATM   24  N           1     -21.415  -7.903  -0.648  0.00  0.00    -0.365 N 
HETATM   25  C           1     -23.197 -11.168  -0.830  0.00  0.00     0.002 A 
HETATM   26  C           1     -23.096 -11.328  -2.211  0.00  0.00     0.001 A 
HETATM   27  H           1     -21.342  -7.528   0.329  0.00  0.00     0.165 HD
HETATM   28  C           1     -20.919  -7.284  -1.764  0.00  0.00     0.096 A 
ENDBRANCH  18  19
ENDBRANCH   1  18
TORSDOF 8
ENDMDL
