MODEL 1
REMARK VINA RESULT:      -6.5      0.000      0.000
REMARK  7 active torsions:
REMARK  status: ('A' for Active; 'I' for Inactive)
REMARK    1  A    between atoms: C_3  and  C_4 
REMARK    2  A    between atoms: C_3  and  N_5 
REMARK    3  A    between atoms: C_4  and  C_18 
REMARK       I    between atoms: N_10  and  C_11 
REMARK    4  A    between atoms: C_11  and  C_19 
REMARK    5  A    between atoms: N_17  and  C_19 
REMARK    6  A    between atoms: C_18  and  C_19 
REMARK    7  A    between atoms: C_20  and  C_21 
ROOT
HETATM    1  C           1     -36.076  -0.158 -13.276  0.00  0.00     0.275 C 
ENDROOT
BRANCH   1   2
HETATM    2  C           1     -35.235  -1.395 -13.476  0.00  0.00     0.251 C 
HETATM    3  N           1     -34.791  -2.104 -12.393  0.00  0.00    -0.336 N 
HETATM    4  C           1     -35.031  -1.815 -10.982  0.00  0.00     0.127 C 
HETATM    5  C           1     -33.975  -3.315 -12.396  0.00  0.00     0.188 C 
HETATM    6  C           1     -33.698  -2.113 -10.318  0.00  0.00     0.022 C 
HETATM    7  C           1     -33.001  -3.097 -11.251  0.00  0.00     0.038 C 
HETATM    8  O           1     -34.954  -1.760 -14.593  0.00  0.00    -0.271 OA
BRANCH   5   9
HETATM    9  C           1     -34.825  -4.537 -12.153  0.00  0.00     0.196 C 
HETATM   10  O           1     -35.253  -5.205 -13.119  0.00  0.00    -0.646 OA
HETATM   11  O           1     -35.102  -4.883 -10.984  0.00  0.00    -0.646 OA
ENDBRANCH   5   9
ENDBRANCH   1   2
BRANCH   1  12
HETATM   12  N           1     -35.437   0.999 -13.985  0.00  0.00    -0.067 N 
HETATM   13  H           1     -35.297   1.786 -13.311  0.00  0.00     0.275 HD
HETATM   14  H           1     -34.513   0.703 -14.373  0.00  0.00     0.275 HD
HETATM   15  H           1     -36.057   1.315 -14.764  0.00  0.00     0.275 HD
ENDBRANCH   1  12
BRANCH   1  16
HETATM   16  C           1     -37.469  -0.393 -13.844  0.00  0.00     0.044 C 
BRANCH  16  17
HETATM   17  C           1     -37.616   0.359 -15.159  0.00  0.00     0.030 C 
BRANCH  17  18
HETATM   18  C           1     -37.741  -0.638 -16.305  0.00  0.00     0.230 C 
BRANCH  18  19
HETATM   19  N           1     -36.443  -0.702 -17.056  0.00  0.00    -0.079 N 
HETATM   20  H           1     -35.800   0.042 -16.703  0.00  0.00     0.274 HD
HETATM   21  H           1     -36.003  -1.639 -16.914  0.00  0.00     0.274 HD
HETATM   22  H           1     -36.625  -0.553 -18.074  0.00  0.00     0.274 HD
ENDBRANCH  18  19
ENDBRANCH  17  18
ENDBRANCH  16  17
ENDBRANCH   1  16
TORSDOF 7
ENDMDL
MODEL 2
REMARK VINA RESULT:      -6.4      1.899      5.458
REMARK  7 active torsions:
REMARK  status: ('A' for Active; 'I' for Inactive)
REMARK    1  A    between atoms: C_3  and  C_4 
REMARK    2  A    between atoms: C_3  and  N_5 
REMARK    3  A    between atoms: C_4  and  C_18 
REMARK       I    between atoms: N_10  and  C_11 
REMARK    4  A    between atoms: C_11  and  C_19 
REMARK    5  A    between atoms: N_17  and  C_19 
REMARK    6  A    between atoms: C_18  and  C_19 
REMARK    7  A    between atoms: C_20  and  C_21 
ROOT
HETATM    1  C           1     -34.732  -2.108 -11.352  0.00  0.00     0.275 C 
ENDROOT
BRANCH   1   2
HETATM    2  C           1     -35.019  -1.959 -12.826  0.00  0.00     0.251 C 
HETATM    3  N           1     -35.870  -0.980 -13.262  0.00  0.00    -0.336 N 
HETATM    4  C           1     -36.586   0.002 -12.452  0.00  0.00     0.127 C 
HETATM    5  C           1     -36.262  -0.690 -14.639  0.00  0.00     0.188 C 
HETATM    6  C           1     -37.959   0.075 -13.099  0.00  0.00     0.022 C 
HETATM    7  C           1     -37.746  -0.386 -14.537  0.00  0.00     0.038 C 
HETATM    8  O           1     -34.496  -2.703 -13.622  0.00  0.00    -0.271 OA
BRANCH   5   9
HETATM    9  C           1     -35.504   0.500 -15.174  0.00  0.00     0.196 C 
HETATM   10  O           1     -34.290   0.639 -14.911  0.00  0.00    -0.646 OA
HETATM   11  O           1     -36.092   1.348 -15.881  0.00  0.00    -0.646 OA
ENDBRANCH   5   9
ENDBRANCH   1   2
BRANCH   1  12
HETATM   12  N           1     -35.893  -2.782 -10.684  0.00  0.00    -0.067 N 
HETATM   13  H           1     -36.752  -2.201 -10.810  0.00  0.00     0.275 HD
HETATM   14  H           1     -36.042  -3.723 -11.111  0.00  0.00     0.275 HD
HETATM   15  H           1     -35.693  -2.890  -9.664  0.00  0.00     0.275 HD
ENDBRANCH   1  12
BRANCH   1  16
HETATM   16  C           1     -33.478  -2.951 -11.162  0.00  0.00     0.044 C 
BRANCH  16  17
HETATM   17  C           1     -33.843  -4.257 -10.470  0.00  0.00     0.030 C 
BRANCH  17  18
HETATM   18  C           1     -33.479  -5.429 -11.372  0.00  0.00     0.230 C 
BRANCH  18  19
HETATM   19  N           1     -34.575  -5.651 -12.373  0.00  0.00    -0.079 N 
HETATM   20  H           1     -35.122  -4.769 -12.490  0.00  0.00     0.274 HD
HETATM   21  H           1     -34.159  -5.928 -13.290  0.00  0.00     0.274 HD
HETATM   22  H           1     -35.206  -6.411 -12.033  0.00  0.00     0.274 HD
ENDBRANCH  18  19
ENDBRANCH  17  18
ENDBRANCH  16  17
ENDBRANCH   1  16
TORSDOF 7
ENDMDL
MODEL 3
REMARK VINA RESULT:      -6.0     13.288     15.754
REMARK  7 active torsions:
REMARK  status: ('A' for Active; 'I' for Inactive)
REMARK    1  A    between atoms: C_3  and  C_4 
REMARK    2  A    between atoms: C_3  and  N_5 
REMARK    3  A    between atoms: C_4  and  C_18 
REMARK       I    between atoms: N_10  and  C_11 
REMARK    4  A    between atoms: C_11  and  C_19 
REMARK    5  A    between atoms: N_17  and  C_19 
REMARK    6  A    between atoms: C_18  and  C_19 
REMARK    7  A    between atoms: C_20  and  C_21 
ROOT
HETATM    1  C           1     -20.205  -5.219  -7.419  0.00  0.00     0.275 C 
ENDROOT
BRANCH   1   2
HETATM    2  C           1     -21.349  -4.477  -8.066  0.00  0.00     0.251 C 
HETATM    3  N           1     -21.383  -4.323  -9.425  0.00  0.00    -0.336 N 
HETATM    4  C           1     -20.407  -4.804 -10.400  0.00  0.00     0.127 C 
HETATM    5  C           1     -22.402  -3.641 -10.218  0.00  0.00     0.188 C 
HETATM    6  C           1     -20.291  -3.661 -11.393  0.00  0.00     0.022 C 
HETATM    7  C           1     -21.601  -2.892 -11.270  0.00  0.00     0.038 C 
HETATM    8  O           1     -22.235  -4.020  -7.384  0.00  0.00    -0.271 OA
BRANCH   5   9
HETATM    9  C           1     -23.337  -4.635 -10.862  0.00  0.00     0.196 C 
HETATM   10  O           1     -23.978  -5.441 -10.153  0.00  0.00    -0.646 OA
HETATM   11  O           1     -23.472  -4.651 -12.105  0.00  0.00    -0.646 OA
ENDBRANCH   5   9
ENDBRANCH   1   2
BRANCH   1  12
HETATM   12  N           1     -18.955  -4.397  -7.524  0.00  0.00    -0.067 N 
HETATM   13  H           1     -18.504  -4.328  -6.583  0.00  0.00     0.275 HD
HETATM   14  H           1     -18.295  -4.850  -8.194  0.00  0.00     0.275 HD
HETATM   15  H           1     -19.196  -3.439  -7.865  0.00  0.00     0.275 HD
ENDBRANCH   1  12
BRANCH   1  16
HETATM   16  C           1     -20.527  -5.468  -5.952  0.00  0.00     0.044 C 
BRANCH  16  17
HETATM   17  C           1     -20.583  -6.967  -5.691  0.00  0.00     0.030 C 
BRANCH  17  18
HETATM   18  C           1     -21.894  -7.314  -4.998  0.00  0.00     0.230 C 
BRANCH  18  19
HETATM   19  N           1     -22.816  -6.131  -5.047  0.00  0.00    -0.079 N 
HETATM   20  H           1     -22.305  -5.309  -5.442  0.00  0.00     0.274 HD
HETATM   21  H           1     -23.638  -6.354  -5.653  0.00  0.00     0.274 HD
HETATM   22  H           1     -23.145  -5.907  -4.081  0.00  0.00     0.274 HD
ENDBRANCH  18  19
ENDBRANCH  17  18
ENDBRANCH  16  17
ENDBRANCH   1  16
TORSDOF 7
ENDMDL
MODEL 4
REMARK VINA RESULT:      -6.0     11.462     12.685
REMARK  7 active torsions:
REMARK  status: ('A' for Active; 'I' for Inactive)
REMARK    1  A    between atoms: C_3  and  C_4 
REMARK    2  A    between atoms: C_3  and  N_5 
REMARK    3  A    between atoms: C_4  and  C_18 
REMARK       I    between atoms: N_10  and  C_11 
REMARK    4  A    between atoms: C_11  and  C_19 
REMARK    5  A    between atoms: N_17  and  C_19 
REMARK    6  A    between atoms: C_18  and  C_19 
REMARK    7  A    between atoms: C_20  and  C_21 
ROOT
HETATM    1  C           1     -25.756  -7.100 -20.319  0.00  0.00     0.275 C 
ENDROOT
BRANCH   1   2
HETATM    2  C           1     -25.624  -6.580 -18.909  0.00  0.00     0.251 C 
HETATM    3  N           1     -26.741  -6.238 -18.197  0.00  0.00    -0.336 N 
HETATM    4  C           1     -28.132  -6.307 -18.638  0.00  0.00     0.127 C 
HETATM    5  C           1     -26.804  -5.722 -16.833  0.00  0.00     0.188 C 
HETATM    6  C           1     -28.753  -5.036 -18.086  0.00  0.00     0.022 C 
HETATM    7  C           1     -27.876  -4.647 -16.901  0.00  0.00     0.038 C 
HETATM    8  O           1     -24.530  -6.467 -18.406  0.00  0.00    -0.271 OA
BRANCH   5   9
HETATM    9  C           1     -27.196  -6.811 -15.864  0.00  0.00     0.196 C 
HETATM   10  O           1     -26.325  -7.578 -15.399  0.00  0.00    -0.646 OA
HETATM   11  O           1     -28.391  -6.945 -15.526  0.00  0.00    -0.646 OA
ENDBRANCH   5   9
ENDBRANCH   1   2
BRANCH   1  12
HETATM   12  N           1     -25.838  -5.944 -21.271  0.00  0.00    -0.067 N 
HETATM   13  H           1     -26.629  -5.319 -20.993  0.00  0.00     0.275 HD
HETATM   14  H           1     -24.943  -5.406 -21.243  0.00  0.00     0.275 HD
HETATM   15  H           1     -26.000  -6.301 -22.240  0.00  0.00     0.275 HD
ENDBRANCH   1  12
BRANCH   1  16
HETATM   16  C           1     -24.543  -7.954 -20.662  0.00  0.00     0.044 C 
BRANCH  16  17
HETATM   17  C           1     -24.173  -7.749 -22.125  0.00  0.00     0.030 C 
BRANCH  17  18
HETATM   18  C           1     -22.875  -8.484 -22.430  0.00  0.00     0.230 C 
BRANCH  18  19
HETATM   19  N           1     -22.387  -9.175 -21.190  0.00  0.00    -0.079 N 
HETATM   20  H           1     -22.667  -8.619 -20.350  0.00  0.00     0.274 HD
HETATM   21  H           1     -22.809 -10.129 -21.133  0.00  0.00     0.274 HD
HETATM   22  H           1     -21.346  -9.256 -21.224  0.00  0.00     0.274 HD
ENDBRANCH  18  19
ENDBRANCH  17  18
ENDBRANCH  16  17
ENDBRANCH   1  16
TORSDOF 7
ENDMDL
MODEL 5
REMARK VINA RESULT:      -5.8      2.700      5.684
REMARK  7 active torsions:
REMARK  status: ('A' for Active; 'I' for Inactive)
REMARK    1  A    between atoms: C_3  and  C_4 
REMARK    2  A    between atoms: C_3  and  N_5 
REMARK    3  A    between atoms: C_4  and  C_18 
REMARK       I    between atoms: N_10  and  C_11 
REMARK    4  A    between atoms: C_11  and  C_19 
REMARK    5  A    between atoms: N_17  and  C_19 
REMARK    6  A    between atoms: C_18  and  C_19 
REMARK    7  A    between atoms: C_20  and  C_21 
ROOT
HETATM    1  C           1     -33.857  -3.576 -12.168  0.00  0.00     0.275 C 
ENDROOT
BRANCH   1   2
HETATM    2  C           1     -34.390  -2.281 -11.607  0.00  0.00     0.251 C 
HETATM    3  N           1     -35.082  -1.419 -12.413  0.00  0.00    -0.336 N 
HETATM    4  C           1     -35.399  -1.585 -13.830  0.00  0.00     0.127 C 
HETATM    5  C           1     -35.666  -0.131 -12.046  0.00  0.00     0.188 C 
HETATM    6  C           1     -35.190  -0.199 -14.414  0.00  0.00     0.022 C 
HETATM    7  C           1     -35.361   0.758 -13.240  0.00  0.00     0.038 C 
HETATM    8  O           1     -34.206  -2.004 -10.445  0.00  0.00    -0.271 OA
BRANCH   5   9
HETATM    9  C           1     -37.155  -0.257 -11.836  0.00  0.00     0.196 C 
HETATM   10  O           1     -37.943   0.441 -12.510  0.00  0.00    -0.646 OA
HETATM   11  O           1     -37.600  -1.059 -10.988  0.00  0.00    -0.646 OA
ENDBRANCH   5   9
ENDBRANCH   1   2
BRANCH   1  12
HETATM   12  N           1     -32.471  -3.812 -11.648  0.00  0.00    -0.067 N 
HETATM   13  H           1     -31.775  -3.553 -12.384  0.00  0.00     0.275 HD
HETATM   14  H           1     -32.313  -3.227 -10.798  0.00  0.00     0.275 HD
HETATM   15  H           1     -32.358  -4.822 -11.402  0.00  0.00     0.275 HD
ENDBRANCH   1  12
BRANCH   1  16
HETATM   16  C           1     -34.762  -4.724 -11.741  0.00  0.00     0.044 C 
BRANCH  16  17
HETATM   17  C           1     -34.173  -5.406 -10.513  0.00  0.00     0.030 C 
BRANCH  17  18
HETATM   18  C           1     -34.347  -6.914 -10.634  0.00  0.00     0.230 C 
BRANCH  18  19
HETATM   19  N           1     -35.073  -7.433  -9.428  0.00  0.00    -0.079 N 
HETATM   20  H           1     -36.047  -7.055  -9.419  0.00  0.00     0.274 HD
HETATM   21  H           1     -35.105  -8.477  -9.462  0.00  0.00     0.274 HD
HETATM   22  H           1     -34.572  -7.128  -8.563  0.00  0.00     0.274 HD
ENDBRANCH  18  19
ENDBRANCH  17  18
ENDBRANCH  16  17
ENDBRANCH   1  16
TORSDOF 7
ENDMDL
MODEL 6
REMARK VINA RESULT:      -5.7      2.159      4.963
REMARK  7 active torsions:
REMARK  status: ('A' for Active; 'I' for Inactive)
REMARK    1  A    between atoms: C_3  and  C_4 
REMARK    2  A    between atoms: C_3  and  N_5 
REMARK    3  A    between atoms: C_4  and  C_18 
REMARK       I    between atoms: N_10  and  C_11 
REMARK    4  A    between atoms: C_11  and  C_19 
REMARK    5  A    between atoms: N_17  and  C_19 
REMARK    6  A    between atoms: C_18  and  C_19 
REMARK    7  A    between atoms: C_20  and  C_21 
ROOT
HETATM    1  C           1     -35.811  -0.368 -11.455  0.00  0.00     0.275 C 
ENDROOT
BRANCH   1   2
HETATM    2  C           1     -36.590  -0.386 -12.747  0.00  0.00     0.251 C 
HETATM    3  N           1     -36.045   0.145 -13.884  0.00  0.00    -0.336 N 
HETATM    4  C           1     -34.731   0.766 -14.034  0.00  0.00     0.127 C 
HETATM    5  C           1     -36.648   0.214 -15.212  0.00  0.00     0.188 C 
HETATM    6  C           1     -34.993   1.954 -14.944  0.00  0.00     0.022 C 
HETATM    7  C           1     -36.257   1.593 -15.715  0.00  0.00     0.038 C 
HETATM    8  O           1     -37.697  -0.870 -12.777  0.00  0.00    -0.271 OA
BRANCH   5   9
HETATM    9  C           1     -36.093  -0.864 -16.111  0.00  0.00     0.196 C 
HETATM   10  O           1     -36.399  -0.886 -17.323  0.00  0.00    -0.646 OA
HETATM   11  O           1     -35.326  -1.733 -15.644  0.00  0.00    -0.646 OA
ENDBRANCH   5   9
ENDBRANCH   1   2
BRANCH   1  12
HETATM   12  N           1     -36.602   0.353 -10.405  0.00  0.00    -0.067 N 
HETATM   13  H           1     -37.589   0.467 -10.730  0.00  0.00     0.275 HD
HETATM   14  H           1     -36.588  -0.199  -9.518  0.00  0.00     0.275 HD
HETATM   15  H           1     -36.181   1.294 -10.236  0.00  0.00     0.275 HD
ENDBRANCH   1  12
BRANCH   1  16
HETATM   16  C           1     -35.548  -1.797 -11.000  0.00  0.00     0.044 C 
BRANCH  16  17
HETATM   17  C           1     -34.056  -2.092 -11.085  0.00  0.00     0.030 C 
BRANCH  17  18
HETATM   18  C           1     -33.836  -3.378 -11.870  0.00  0.00     0.230 C 
BRANCH  18  19
HETATM   19  N           1     -34.242  -3.169 -13.300  0.00  0.00    -0.079 N 
HETATM   20  H           1     -35.249  -2.891 -13.337  0.00  0.00     0.274 HD
HETATM   21  H           1     -33.656  -2.415 -13.723  0.00  0.00     0.274 HD
HETATM   22  H           1     -34.105  -4.057 -13.833  0.00  0.00     0.274 HD
ENDBRANCH  18  19
ENDBRANCH  17  18
ENDBRANCH  16  17
ENDBRANCH   1  16
TORSDOF 7
ENDMDL
MODEL 7
REMARK VINA RESULT:      -5.7     13.013     15.742
REMARK  7 active torsions:
REMARK  status: ('A' for Active; 'I' for Inactive)
REMARK    1  A    between atoms: C_3  and  C_4 
REMARK    2  A    between atoms: C_3  and  N_5 
REMARK    3  A    between atoms: C_4  and  C_18 
REMARK       I    between atoms: N_10  and  C_11 
REMARK    4  A    between atoms: C_11  and  C_19 
REMARK    5  A    between atoms: N_17  and  C_19 
REMARK    6  A    between atoms: C_18  and  C_19 
REMARK    7  A    between atoms: C_20  and  C_21 
ROOT
HETATM    1  C           1     -21.727  -4.641  -6.570  0.00  0.00     0.275 C 
ENDROOT
BRANCH   1   2
HETATM    2  C           1     -21.456  -5.043  -7.999  0.00  0.00     0.251 C 
HETATM    3  N           1     -22.182  -4.486  -9.016  0.00  0.00    -0.336 N 
HETATM    4  C           1     -23.250  -3.495  -8.909  0.00  0.00     0.127 C 
HETATM    5  C           1     -22.059  -4.753 -10.447  0.00  0.00     0.188 C 
HETATM    6  C           1     -24.280  -3.960  -9.923  0.00  0.00     0.022 C 
HETATM    7  C           1     -23.498  -4.792 -10.933  0.00  0.00     0.038 C 
HETATM    8  O           1     -20.597  -5.857  -8.245  0.00  0.00    -0.271 OA
BRANCH   5   9
HETATM    9  C           1     -21.289  -3.652 -11.134  0.00  0.00     0.196 C 
HETATM   10  O           1     -21.811  -3.017 -12.076  0.00  0.00    -0.646 OA
HETATM   11  O           1     -20.128  -3.376 -10.762  0.00  0.00    -0.646 OA
ENDBRANCH   5   9
ENDBRANCH   1   2
BRANCH   1  12
HETATM   12  N           1     -23.015  -5.259  -6.113  0.00  0.00    -0.067 N 
HETATM   13  H           1     -22.891  -6.293  -6.023  0.00  0.00     0.275 HD
HETATM   14  H           1     -23.285  -4.858  -5.188  0.00  0.00     0.275 HD
HETATM   15  H           1     -23.765  -5.058  -6.813  0.00  0.00     0.275 HD
ENDBRANCH   1  12
BRANCH   1  16
HETATM   16  C           1     -20.589  -5.125  -5.681  0.00  0.00     0.044 C 
BRANCH  16  17
HETATM   17  C           1     -21.134  -6.091  -4.638  0.00  0.00     0.030 C 
BRANCH  17  18
HETATM   18  C           1     -20.477  -7.453  -4.813  0.00  0.00     0.230 C 
BRANCH  18  19
HETATM   19  N           1     -21.057  -8.138  -6.016  0.00  0.00    -0.079 N 
HETATM   20  H           1     -21.399  -9.088  -5.744  0.00  0.00     0.274 HD
HETATM   21  H           1     -21.854  -7.575  -6.388  0.00  0.00     0.274 HD
HETATM   22  H           1     -20.321  -8.230  -6.752  0.00  0.00     0.274 HD
ENDBRANCH  18  19
ENDBRANCH  17  18
ENDBRANCH  16  17
ENDBRANCH   1  16
TORSDOF 7
ENDMDL
MODEL 8
REMARK VINA RESULT:      -5.3     14.195     16.649
REMARK  7 active torsions:
REMARK  status: ('A' for Active; 'I' for Inactive)
REMARK    1  A    between atoms: C_3  and  C_4 
REMARK    2  A    between atoms: C_3  and  N_5 
REMARK    3  A    between atoms: C_4  and  C_18 
REMARK       I    between atoms: N_10  and  C_11 
REMARK    4  A    between atoms: C_11  and  C_19 
REMARK    5  A    between atoms: N_17  and  C_19 
REMARK    6  A    between atoms: C_18  and  C_19 
REMARK    7  A    between atoms: C_20  and  C_21 
ROOT
HETATM    1  C           1     -20.615  -5.157  -6.613  0.00  0.00     0.275 C 
ENDROOT
BRANCH   1   2
HETATM    2  C           1     -21.620  -5.821  -5.705  0.00  0.00     0.251 C 
HETATM    3  N           1     -21.225  -6.827  -4.865  0.00  0.00    -0.336 N 
HETATM    4  C           1     -19.883  -7.384  -4.714  0.00  0.00     0.127 C 
HETATM    5  C           1     -22.052  -7.578  -3.924  0.00  0.00     0.188 C 
HETATM    6  C           1     -20.123  -8.877  -4.577  0.00  0.00     0.022 C 
HETATM    7  C           1     -21.552  -9.006  -4.062  0.00  0.00     0.038 C 
HETATM    8  O           1     -22.775  -5.465  -5.718  0.00  0.00    -0.271 OA
BRANCH   5   9
HETATM    9  C           1     -21.856  -7.074  -2.515  0.00  0.00     0.196 C 
HETATM   10  O           1     -21.416  -7.841  -1.632  0.00  0.00    -0.646 OA
HETATM   11  O           1     -22.134  -5.888  -2.232  0.00  0.00    -0.646 OA
ENDBRANCH   5   9
ENDBRANCH   1   2
BRANCH   1  12
HETATM   12  N           1     -20.244  -6.099  -7.719  0.00  0.00    -0.067 N 
HETATM   13  H           1     -21.017  -6.132  -8.422  0.00  0.00     0.275 HD
HETATM   14  H           1     -19.368  -5.767  -8.180  0.00  0.00     0.275 HD
HETATM   15  H           1     -20.090  -7.055  -7.326  0.00  0.00     0.275 HD
ENDBRANCH   1  12
BRANCH   1  16
HETATM   16  C           1     -21.224  -3.893  -7.206  0.00  0.00     0.044 C 
BRANCH  16  17
HETATM   17  C           1     -21.381  -4.062  -8.711  0.00  0.00     0.030 C 
BRANCH  17  18
HETATM   18  C           1     -22.771  -3.604  -9.133  0.00  0.00     0.230 C 
BRANCH  18  19
HETATM   19  N           1     -23.775  -4.041  -8.107  0.00  0.00    -0.079 N 
HETATM   20  H           1     -23.364  -4.802  -7.521  0.00  0.00     0.274 HD
HETATM   21  H           1     -24.028  -3.231  -7.499  0.00  0.00     0.274 HD
HETATM   22  H           1     -24.631  -4.396  -8.590  0.00  0.00     0.274 HD
ENDBRANCH  18  19
ENDBRANCH  17  18
ENDBRANCH  16  17
ENDBRANCH   1  16
TORSDOF 7
ENDMDL
MODEL 9
REMARK VINA RESULT:      -5.1     15.144     16.450
REMARK  7 active torsions:
REMARK  status: ('A' for Active; 'I' for Inactive)
REMARK    1  A    between atoms: C_3  and  C_4 
REMARK    2  A    between atoms: C_3  and  N_5 
REMARK    3  A    between atoms: C_4  and  C_18 
REMARK       I    between atoms: N_10  and  C_11 
REMARK    4  A    between atoms: C_11  and  C_19 
REMARK    5  A    between atoms: N_17  and  C_19 
REMARK    6  A    between atoms: C_18  and  C_19 
REMARK    7  A    between atoms: C_20  and  C_21 
ROOT
HETATM    1  C           1     -21.377  -5.159  -7.416  0.00  0.00     0.275 C 
ENDROOT
BRANCH   1   2
HETATM    2  C           1     -20.594  -6.210  -6.668  0.00  0.00     0.251 C 
HETATM    3  N           1     -21.105  -6.761  -5.525  0.00  0.00    -0.336 N 
HETATM    4  C           1     -22.383  -6.457  -4.885  0.00  0.00     0.127 C 
HETATM    5  C           1     -20.494  -7.781  -4.678  0.00  0.00     0.188 C 
HETATM    6  C           1     -22.054  -6.448  -3.403  0.00  0.00     0.022 C 
HETATM    7  C           1     -20.808  -7.315  -3.266  0.00  0.00     0.038 C 
HETATM    8  O           1     -19.514  -6.565  -7.079  0.00  0.00    -0.271 OA
BRANCH   5   9
HETATM    9  C           1     -21.101  -9.136  -4.944  0.00  0.00     0.196 C 
HETATM   10  O           1     -21.653  -9.768  -4.017  0.00  0.00    -0.646 OA
HETATM   11  O           1     -21.053  -9.627  -6.093  0.00  0.00    -0.646 OA
ENDBRANCH   5   9
ENDBRANCH   1   2
BRANCH   1  12
HETATM   12  N           1     -21.192  -3.829  -6.748  0.00  0.00    -0.067 N 
HETATM   13  H           1     -21.257  -3.069  -7.462  0.00  0.00     0.275 HD
HETATM   14  H           1     -21.936  -3.696  -6.027  0.00  0.00     0.275 HD
HETATM   15  H           1     -20.253  -3.797  -6.290  0.00  0.00     0.275 HD
ENDBRANCH   1  12
BRANCH   1  16
HETATM   16  C           1     -20.876  -5.079  -8.852  0.00  0.00     0.044 C 
BRANCH  16  17
HETATM   17  C           1     -21.727  -4.087  -9.633  0.00  0.00     0.030 C 
BRANCH  17  18
HETATM   18  C           1     -21.443  -4.233 -11.122  0.00  0.00     0.230 C 
BRANCH  18  19
HETATM   19  N           1     -20.753  -2.998 -11.624  0.00  0.00    -0.079 N 
HETATM   20  H           1     -20.347  -3.187 -12.568  0.00  0.00     0.274 HD
HETATM   21  H           1     -21.442  -2.216 -11.691  0.00  0.00     0.274 HD
HETATM   22  H           1     -19.989  -2.734 -10.961  0.00  0.00     0.274 HD
ENDBRANCH  18  19
ENDBRANCH  17  18
ENDBRANCH  16  17
ENDBRANCH   1  16
TORSDOF 7
ENDMDL
