MODEL 1
REMARK VINA RESULT:      -6.8      0.000      0.000
REMARK  11 active torsions:
REMARK  status: ('A' for Active; 'I' for Inactive)
REMARK    1  A    between atoms: C_1  and  C_6 
REMARK    2  A    between atoms: C_5  and  C_18 
REMARK    3  A    between atoms: C_5  and  C_6 
REMARK    4  A    between atoms: C_5  and  N_13 
REMARK    5  A    between atoms: O_7  and  P_27 
REMARK    6  A    between atoms: S_10  and  C_11 
REMARK    7  A    between atoms: C_11  and  C_12 
REMARK    8  A    between atoms: C_12  and  C_26 
REMARK    9  A    between atoms: C_12  and  N_16 
REMARK       I    between atoms: N_13  and  C_26 
REMARK   10  A    between atoms: O_19  and  C_21 
REMARK   11  A    between atoms: O_19  and  P_27 
ROOT
HETATM    1  C           1     -36.499  -0.687 -12.166  0.00  0.00     0.189 C 
ENDROOT
BRANCH   1   2
HETATM    2  C           1     -36.997  -0.167 -10.840  0.00  0.00     0.197 C 
HETATM    3  O           1     -36.331   0.686 -10.214  0.00  0.00    -0.646 OA
HETATM    4  O           1     -38.075  -0.589 -10.368  0.00  0.00    -0.646 OA
ENDBRANCH   1   2
BRANCH   1   5
HETATM    5  C           1     -34.977  -0.729 -12.157  0.00  0.00     0.074 C 
BRANCH   5   6
HETATM    6  C           1     -34.517  -2.126 -11.881  0.00  0.00    -0.056 A 
HETATM    7  C           1     -33.974  -2.449 -10.638  0.00  0.00     0.010 A 
HETATM    8  C           1     -33.545  -3.751 -10.381  0.00  0.00     0.038 A 
HETATM    9  C           1     -33.657  -4.730 -11.368  0.00  0.00     0.081 A 
HETATM   10  C           1     -34.199  -4.407 -12.612  0.00  0.00     0.038 A 
HETATM   11  C           1     -34.628  -3.105 -12.869  0.00  0.00     0.010 A 
BRANCH   9  12
HETATM   12  O           1     -33.240  -5.994 -11.118  0.00  0.00    -0.247 OA
BRANCH  12  13
HETATM   13  P           1     -34.347  -7.084 -10.675  0.00  0.00     0.411 P 
HETATM   14  O           1     -33.669  -8.313 -10.206  0.00  0.00    -0.624 OA
HETATM   15  O           1     -35.175  -6.530  -9.580  0.00  0.00    -0.624 OA
BRANCH  13  16
HETATM   16  O           1     -35.291  -7.436 -11.937  0.00  0.00    -0.300 OA
HETATM   17  H           1     -34.782  -8.031 -12.463  0.00  0.00     0.223 HD
ENDBRANCH  13  16
ENDBRANCH  12  13
ENDBRANCH   9  12
ENDBRANCH   5   6
ENDBRANCH   1   5
BRANCH   1  18
HETATM   18  N           1     -36.952   0.188 -13.229  0.00  0.00    -0.344 N 
HETATM   19  C           1     -37.046  -0.282 -14.511  0.00  0.00     0.249 C 
HETATM   20  O           1     -38.075  -0.783 -14.897  0.00  0.00    -0.271 OA
HETATM   21  H           1     -37.199   1.148 -13.023  0.00  0.00     0.163 HD
BRANCH  19  22
HETATM   22  C           1     -35.863  -0.176 -15.442  0.00  0.00     0.283 C 
BRANCH  22  23
HETATM   23  C           1     -35.241   1.208 -15.318  0.00  0.00     0.113 C 
BRANCH  23  24
HETATM   24  S           1     -36.249   2.410 -16.231  0.00  0.00    -0.180 SA
HETATM   25  H           1     -35.220   3.013 -16.853  0.00  0.00     0.101 HD
ENDBRANCH  23  24
ENDBRANCH  22  23
BRANCH  22  26
HETATM   26  N           1     -36.318  -0.395 -16.855  0.00  0.00    -0.066 N 
HETATM   27  H           1     -35.493  -0.362 -17.495  0.00  0.00     0.275 HD
HETATM   28  H           1     -36.780  -1.329 -16.931  0.00  0.00     0.275 HD
HETATM   29  H           1     -36.997   0.353 -17.121  0.00  0.00     0.275 HD
ENDBRANCH  22  26
ENDBRANCH  19  22
ENDBRANCH   1  18
TORSDOF 11
ENDMDL
MODEL 2
REMARK VINA RESULT:      -6.6     14.532     17.250
REMARK  11 active torsions:
REMARK  status: ('A' for Active; 'I' for Inactive)
REMARK    1  A    between atoms: C_1  and  C_6 
REMARK    2  A    between atoms: C_5  and  C_18 
REMARK    3  A    between atoms: C_5  and  C_6 
REMARK    4  A    between atoms: C_5  and  N_13 
REMARK    5  A    between atoms: O_7  and  P_27 
REMARK    6  A    between atoms: S_10  and  C_11 
REMARK    7  A    between atoms: C_11  and  C_12 
REMARK    8  A    between atoms: C_12  and  C_26 
REMARK    9  A    between atoms: C_12  and  N_16 
REMARK       I    between atoms: N_13  and  C_26 
REMARK   10  A    between atoms: O_19  and  C_21 
REMARK   11  A    between atoms: O_19  and  P_27 
ROOT
HETATM    1  C           1     -21.158  -7.770  -5.389  0.00  0.00     0.189 C 
ENDROOT
BRANCH   1   2
HETATM    2  C           1     -20.298  -8.907  -4.895  0.00  0.00     0.197 C 
HETATM    3  O           1     -20.783 -10.053  -4.779  0.00  0.00    -0.646 OA
HETATM    4  O           1     -19.100  -8.704  -4.602  0.00  0.00    -0.646 OA
ENDBRANCH   1   2
BRANCH   1   5
HETATM    5  C           1     -20.288  -6.543  -5.632  0.00  0.00     0.074 C 
BRANCH   5   6
HETATM    6  C           1     -20.885  -5.718  -6.728  0.00  0.00    -0.056 A 
HETATM    7  C           1     -22.137  -5.128  -6.556  0.00  0.00     0.010 A 
HETATM    8  C           1     -22.694  -4.359  -7.577  0.00  0.00     0.038 A 
HETATM    9  C           1     -21.998  -4.179  -8.773  0.00  0.00     0.081 A 
HETATM   10  C           1     -20.746  -4.769  -8.947  0.00  0.00     0.038 A 
HETATM   11  C           1     -20.190  -5.538  -7.924  0.00  0.00     0.010 A 
BRANCH   9  12
HETATM   12  O           1     -22.538  -3.432  -9.765  0.00  0.00    -0.247 OA
BRANCH  12  13
HETATM   13  P           1     -23.580  -4.146 -10.771  0.00  0.00     0.411 P 
HETATM   14  O           1     -23.999  -5.448 -10.205  0.00  0.00    -0.624 OA
HETATM   15  O           1     -24.768  -3.282 -10.949  0.00  0.00    -0.624 OA
BRANCH  13  16
HETATM   16  O           1     -22.870  -4.384 -12.202  0.00  0.00    -0.300 OA
HETATM   17  H           1     -23.273  -5.163 -12.547  0.00  0.00     0.223 HD
ENDBRANCH  13  16
ENDBRANCH  12  13
ENDBRANCH   9  12
ENDBRANCH   5   6
ENDBRANCH   1   5
BRANCH   1  18
HETATM   18  N           1     -22.165  -7.458  -4.394  0.00  0.00    -0.344 N 
HETATM   19  C           1     -21.792  -6.959  -3.175  0.00  0.00     0.249 C 
HETATM   20  O           1     -21.698  -5.765  -3.015  0.00  0.00    -0.271 OA
HETATM   21  H           1     -23.144  -7.609  -4.600  0.00  0.00     0.163 HD
BRANCH  19  22
HETATM   22  C           1     -21.498  -7.899  -2.033  0.00  0.00     0.283 C 
BRANCH  22  23
HETATM   23  C           1     -22.243  -7.435  -0.788  0.00  0.00     0.113 C 
BRANCH  23  24
HETATM   24  S           1     -21.694  -8.408   0.643  0.00  0.00    -0.180 SA
HETATM   25  H           1     -22.088  -9.601   0.161  0.00  0.00     0.101 HD
ENDBRANCH  23  24
ENDBRANCH  22  23
BRANCH  22  26
HETATM   26  N           1     -20.023  -7.906  -1.759  0.00  0.00    -0.066 N 
HETATM   27  H           1     -19.503  -8.071  -2.649  0.00  0.00     0.275 HD
HETATM   28  H           1     -19.739  -6.983  -1.356  0.00  0.00     0.275 HD
HETATM   29  H           1     -19.799  -8.666  -1.078  0.00  0.00     0.275 HD
ENDBRANCH  22  26
ENDBRANCH  19  22
ENDBRANCH   1  18
TORSDOF 11
ENDMDL
MODEL 3
REMARK VINA RESULT:      -6.3     14.755     17.524
REMARK  11 active torsions:
REMARK  status: ('A' for Active; 'I' for Inactive)
REMARK    1  A    between atoms: C_1  and  C_6 
REMARK    2  A    between atoms: C_5  and  C_18 
REMARK    3  A    between atoms: C_5  and  C_6 
REMARK    4  A    between atoms: C_5  and  N_13 
REMARK    5  A    between atoms: O_7  and  P_27 
REMARK    6  A    between atoms: S_10  and  C_11 
REMARK    7  A    between atoms: C_11  and  C_12 
REMARK    8  A    between atoms: C_12  and  C_26 
REMARK    9  A    between atoms: C_12  and  N_16 
REMARK       I    between atoms: N_13  and  C_26 
REMARK   10  A    between atoms: O_19  and  C_21 
REMARK   11  A    between atoms: O_19  and  P_27 
ROOT
HETATM    1  C           1     -21.178  -7.996  -5.453  0.00  0.00     0.189 C 
ENDROOT
BRANCH   1   2
HETATM    2  C           1     -20.274  -9.204  -5.413  0.00  0.00     0.197 C 
HETATM    3  O           1     -20.760 -10.342  -5.241  0.00  0.00    -0.646 OA
HETATM    4  O           1     -19.040  -9.066  -5.553  0.00  0.00    -0.646 OA
ENDBRANCH   1   2
BRANCH   1   5
HETATM    5  C           1     -20.337  -6.736  -5.610  0.00  0.00     0.074 C 
BRANCH   5   6
HETATM    6  C           1     -20.964  -5.841  -6.633  0.00  0.00    -0.056 A 
HETATM    7  C           1     -20.298  -5.575  -7.829  0.00  0.00     0.010 A 
HETATM    8  C           1     -20.882  -4.741  -8.782  0.00  0.00     0.038 A 
HETATM    9  C           1     -22.131  -4.172  -8.539  0.00  0.00     0.081 A 
HETATM   10  C           1     -22.798  -4.437  -7.343  0.00  0.00     0.038 A 
HETATM   11  C           1     -22.213  -5.272  -6.390  0.00  0.00     0.010 A 
BRANCH   9  12
HETATM   12  O           1     -22.699  -3.362  -9.465  0.00  0.00    -0.247 OA
BRANCH  12  13
HETATM   13  P           1     -23.572  -4.046 -10.638  0.00  0.00     0.411 P 
HETATM   14  O           1     -22.774  -4.093 -11.884  0.00  0.00    -0.624 OA
HETATM   15  O           1     -23.943  -5.422 -10.239  0.00  0.00    -0.624 OA
BRANCH  13  16
HETATM   16  O           1     -24.911  -3.179 -10.888  0.00  0.00    -0.300 OA
HETATM   17  H           1     -24.915  -2.534 -10.201  0.00  0.00     0.223 HD
ENDBRANCH  13  16
ENDBRANCH  12  13
ENDBRANCH   9  12
ENDBRANCH   5   6
ENDBRANCH   1   5
BRANCH   1  18
HETATM   18  N           1     -21.937  -7.919  -4.220  0.00  0.00    -0.344 N 
HETATM   19  C           1     -21.313  -7.577  -3.052  0.00  0.00     0.249 C 
HETATM   20  O           1     -21.238  -6.417  -2.724  0.00  0.00    -0.271 OA
HETATM   21  H           1     -22.929  -8.119  -4.224  0.00  0.00     0.163 HD
BRANCH  19  22
HETATM   22  C           1     -20.715  -8.648  -2.174  0.00  0.00     0.283 C 
BRANCH  22  23
HETATM   23  C           1     -20.980  -8.314  -0.712  0.00  0.00     0.113 C 
BRANCH  23  24
HETATM   24  S           1     -21.293  -9.845   0.212  0.00  0.00    -0.180 SA
HETATM   25  H           1     -22.602  -9.616   0.424  0.00  0.00     0.101 HD
ENDBRANCH  23  24
ENDBRANCH  22  23
BRANCH  22  26
HETATM   26  N           1     -19.235  -8.720  -2.409  0.00  0.00    -0.066 N 
HETATM   27  H           1     -18.776  -7.873  -2.005  0.00  0.00     0.275 HD
HETATM   28  H           1     -18.851  -9.576  -1.950  0.00  0.00     0.275 HD
HETATM   29  H           1     -19.047  -8.761  -3.436  0.00  0.00     0.275 HD
ENDBRANCH  22  26
ENDBRANCH  19  22
ENDBRANCH   1  18
TORSDOF 11
ENDMDL
MODEL 4
REMARK VINA RESULT:      -6.2      1.518      1.676
REMARK  11 active torsions:
REMARK  status: ('A' for Active; 'I' for Inactive)
REMARK    1  A    between atoms: C_1  and  C_6 
REMARK    2  A    between atoms: C_5  and  C_18 
REMARK    3  A    between atoms: C_5  and  C_6 
REMARK    4  A    between atoms: C_5  and  N_13 
REMARK    5  A    between atoms: O_7  and  P_27 
REMARK    6  A    between atoms: S_10  and  C_11 
REMARK    7  A    between atoms: C_11  and  C_12 
REMARK    8  A    between atoms: C_12  and  C_26 
REMARK    9  A    between atoms: C_12  and  N_16 
REMARK       I    between atoms: N_13  and  C_26 
REMARK   10  A    between atoms: O_19  and  C_21 
REMARK   11  A    between atoms: O_19  and  P_27 
ROOT
HETATM    1  C           1     -36.442  -1.121 -11.359  0.00  0.00     0.189 C 
ENDROOT
BRANCH   1   2
HETATM    2  C           1     -36.933   0.108 -10.635  0.00  0.00     0.197 C 
HETATM    3  O           1     -38.068   0.569 -10.886  0.00  0.00    -0.646 OA
HETATM    4  O           1     -36.207   0.664  -9.784  0.00  0.00    -0.646 OA
ENDBRANCH   1   2
BRANCH   1   5
HETATM    5  C           1     -34.922  -1.179 -11.291  0.00  0.00     0.074 C 
BRANCH   5   6
HETATM    6  C           1     -34.479  -2.604 -11.189  0.00  0.00    -0.056 A 
HETATM    7  C           1     -33.143  -2.938 -11.411  0.00  0.00     0.010 A 
HETATM    8  C           1     -32.731  -4.267 -11.316  0.00  0.00     0.038 A 
HETATM    9  C           1     -33.655  -5.263 -11.001  0.00  0.00     0.081 A 
HETATM   10  C           1     -34.991  -4.930 -10.779  0.00  0.00     0.038 A 
HETATM   11  C           1     -35.403  -3.601 -10.874  0.00  0.00     0.010 A 
BRANCH   9  12
HETATM   12  O           1     -33.254  -6.554 -10.909  0.00  0.00    -0.247 OA
BRANCH  12  13
HETATM   13  P           1     -34.303  -7.633 -10.321  0.00  0.00     0.411 P 
HETATM   14  O           1     -33.562  -8.788  -9.766  0.00  0.00    -0.624 OA
HETATM   15  O           1     -35.110  -7.005  -9.251  0.00  0.00    -0.624 OA
BRANCH  13  16
HETATM   16  O           1     -35.278  -8.136 -11.506  0.00  0.00    -0.300 OA
HETATM   17  H           1     -36.096  -7.693 -11.352  0.00  0.00     0.223 HD
ENDBRANCH  13  16
ENDBRANCH  12  13
ENDBRANCH   9  12
ENDBRANCH   5   6
ENDBRANCH   1   5
BRANCH   1  18
HETATM   18  N           1     -36.861  -1.065 -12.746  0.00  0.00    -0.344 N 
HETATM   19  C           1     -35.967  -0.706 -13.718  0.00  0.00     0.249 C 
HETATM   20  O           1     -35.302  -1.551 -14.268  0.00  0.00    -0.271 OA
HETATM   21  H           1     -37.815  -1.291 -12.996  0.00  0.00     0.163 HD
BRANCH  19  22
HETATM   22  C           1     -35.810   0.745 -14.100  0.00  0.00     0.283 C 
BRANCH  22  23
HETATM   23  C           1     -36.228   0.936 -15.552  0.00  0.00     0.113 C 
BRANCH  23  24
HETATM   24  S           1     -37.949   0.401 -15.763  0.00  0.00    -0.180 SA
HETATM   25  H           1     -37.662  -0.751 -16.396  0.00  0.00     0.101 HD
ENDBRANCH  23  24
ENDBRANCH  22  23
BRANCH  22  26
HETATM   26  N           1     -34.376   1.153 -13.935  0.00  0.00    -0.066 N 
HETATM   27  H           1     -34.242   1.586 -12.994  0.00  0.00     0.275 HD
HETATM   28  H           1     -33.762   0.312 -14.022  0.00  0.00     0.275 HD
HETATM   29  H           1     -34.124   1.845 -14.676  0.00  0.00     0.275 HD
ENDBRANCH  22  26
ENDBRANCH  19  22
ENDBRANCH   1  18
TORSDOF 11
ENDMDL
MODEL 5
REMARK VINA RESULT:      -5.9     14.665     17.074
REMARK  11 active torsions:
REMARK  status: ('A' for Active; 'I' for Inactive)
REMARK    1  A    between atoms: C_1  and  C_6 
REMARK    2  A    between atoms: C_5  and  C_18 
REMARK    3  A    between atoms: C_5  and  C_6 
REMARK    4  A    between atoms: C_5  and  N_13 
REMARK    5  A    between atoms: O_7  and  P_27 
REMARK    6  A    between atoms: S_10  and  C_11 
REMARK    7  A    between atoms: C_11  and  C_12 
REMARK    8  A    between atoms: C_12  and  C_26 
REMARK    9  A    between atoms: C_12  and  N_16 
REMARK       I    between atoms: N_13  and  C_26 
REMARK   10  A    between atoms: O_19  and  C_21 
REMARK   11  A    between atoms: O_19  and  P_27 
ROOT
HETATM    1  C           1     -20.563  -6.181  -4.816  0.00  0.00     0.189 C 
ENDROOT
BRANCH   1   2
HETATM    2  C           1     -22.016  -6.184  -4.410  0.00  0.00     0.197 C 
HETATM    3  O           1     -22.907  -6.313  -5.278  0.00  0.00    -0.646 OA
HETATM    4  O           1     -22.330  -6.059  -3.207  0.00  0.00    -0.646 OA
ENDBRANCH   1   2
BRANCH   1   5
HETATM    5  C           1     -20.174  -4.793  -5.306  0.00  0.00     0.074 C 
BRANCH   5   6
HETATM    6  C           1     -20.626  -4.618  -6.722  0.00  0.00    -0.056 A 
HETATM    7  C           1     -19.892  -5.184  -7.764  0.00  0.00     0.010 A 
HETATM    8  C           1     -20.313  -5.021  -9.083  0.00  0.00     0.038 A 
HETATM    9  C           1     -21.468  -4.290  -9.362  0.00  0.00     0.081 A 
HETATM   10  C           1     -22.203  -3.724  -8.320  0.00  0.00     0.038 A 
HETATM   11  C           1     -21.781  -3.888  -7.000  0.00  0.00     0.010 A 
BRANCH   9  12
HETATM   12  O           1     -21.877  -4.132 -10.643  0.00  0.00    -0.247 OA
BRANCH  12  13
HETATM   13  P           1     -23.437  -4.381 -10.977  0.00  0.00     0.411 P 
HETATM   14  O           1     -23.956  -5.473 -10.123  0.00  0.00    -0.624 OA
HETATM   15  O           1     -24.203  -3.143 -10.712  0.00  0.00    -0.624 OA
BRANCH  13  16
HETATM   16  O           1     -23.596  -4.790 -12.532  0.00  0.00    -0.300 OA
HETATM   17  H           1     -23.040  -4.189 -12.999  0.00  0.00     0.223 HD
ENDBRANCH  13  16
ENDBRANCH  12  13
ENDBRANCH   9  12
ENDBRANCH   5   6
ENDBRANCH   1   5
BRANCH   1  18
HETATM   18  N           1     -20.356  -7.144  -5.880  0.00  0.00    -0.344 N 
HETATM   19  C           1     -20.220  -8.473  -5.585  0.00  0.00     0.249 C 
HETATM   20  O           1     -21.194  -9.185  -5.541  0.00  0.00    -0.271 OA
HETATM   21  H           1     -20.313  -6.833  -6.842  0.00  0.00     0.163 HD
BRANCH  19  22
HETATM   22  C           1     -18.852  -9.049  -5.312  0.00  0.00     0.283 C 
BRANCH  22  23
HETATM   23  C           1     -18.769 -10.457  -5.885  0.00  0.00     0.113 C 
BRANCH  23  24
HETATM   24  S           1     -18.635 -11.656  -4.529  0.00  0.00    -0.180 SA
HETATM   25  H           1     -17.299 -11.792  -4.594  0.00  0.00     0.101 HD
ENDBRANCH  23  24
ENDBRANCH  22  23
BRANCH  22  26
HETATM   26  N           1     -18.616  -9.098  -3.831  0.00  0.00    -0.066 N 
HETATM   27  H           1     -18.598 -10.093  -3.514  0.00  0.00     0.275 HD
HETATM   28  H           1     -17.701  -8.646  -3.610  0.00  0.00     0.275 HD
HETATM   29  H           1     -19.385  -8.589  -3.339  0.00  0.00     0.275 HD
ENDBRANCH  22  26
ENDBRANCH  19  22
ENDBRANCH   1  18
TORSDOF 11
ENDMDL
MODEL 6
REMARK VINA RESULT:      -5.7     15.070     17.859
REMARK  11 active torsions:
REMARK  status: ('A' for Active; 'I' for Inactive)
REMARK    1  A    between atoms: C_1  and  C_6 
REMARK    2  A    between atoms: C_5  and  C_18 
REMARK    3  A    between atoms: C_5  and  C_6 
REMARK    4  A    between atoms: C_5  and  N_13 
REMARK    5  A    between atoms: O_7  and  P_27 
REMARK    6  A    between atoms: S_10  and  C_11 
REMARK    7  A    between atoms: C_11  and  C_12 
REMARK    8  A    between atoms: C_12  and  C_26 
REMARK    9  A    between atoms: C_12  and  N_16 
REMARK       I    between atoms: N_13  and  C_26 
REMARK   10  A    between atoms: O_19  and  C_21 
REMARK   11  A    between atoms: O_19  and  P_27 
ROOT
HETATM    1  C           1     -21.387  -8.504  -5.089  0.00  0.00     0.189 C 
ENDROOT
BRANCH   1   2
HETATM    2  C           1     -20.857  -9.902  -5.295  0.00  0.00     0.197 C 
HETATM    3  O           1     -19.876 -10.093  -6.046  0.00  0.00    -0.646 OA
HETATM    4  O           1     -21.398 -10.868  -4.715  0.00  0.00    -0.646 OA
ENDBRANCH   1   2
BRANCH   1   5
HETATM    5  C           1     -20.266  -7.497  -5.310  0.00  0.00     0.074 C 
BRANCH   5   6
HETATM    6  C           1     -20.756  -6.390  -6.190  0.00  0.00    -0.056 A 
HETATM    7  C           1     -22.011  -5.824  -5.967  0.00  0.00     0.010 A 
HETATM    8  C           1     -22.467  -4.792  -6.787  0.00  0.00     0.038 A 
HETATM    9  C           1     -21.669  -4.327  -7.832  0.00  0.00     0.081 A 
HETATM   10  C           1     -20.414  -4.893  -8.056  0.00  0.00     0.038 A 
HETATM   11  C           1     -19.958  -5.925  -7.235  0.00  0.00     0.010 A 
BRANCH   9  12
HETATM   12  O           1     -22.112  -3.325  -8.629  0.00  0.00    -0.247 OA
BRANCH  12  13
HETATM   13  P           1     -23.163  -3.694  -9.798  0.00  0.00     0.411 P 
HETATM   14  O           1     -24.491  -3.133  -9.462  0.00  0.00    -0.624 OA
HETATM   15  O           1     -22.697  -3.122 -11.081  0.00  0.00    -0.624 OA
BRANCH  13  16
HETATM   16  O           1     -23.275  -5.300  -9.934  0.00  0.00    -0.300 OA
HETATM   17  H           1     -22.893  -5.638  -9.141  0.00  0.00     0.223 HD
ENDBRANCH  13  16
ENDBRANCH  12  13
ENDBRANCH   9  12
ENDBRANCH   5   6
ENDBRANCH   1   5
BRANCH   1  18
HETATM   18  N           1     -21.893  -8.374  -3.737  0.00  0.00    -0.344 N 
HETATM   19  C           1     -21.077  -7.906  -2.742  0.00  0.00     0.249 C 
HETATM   20  O           1     -21.023  -6.722  -2.513  0.00  0.00    -0.271 OA
HETATM   21  H           1     -22.850  -8.629  -3.528  0.00  0.00     0.163 HD
BRANCH  19  22
HETATM   22  C           1     -20.245  -8.870  -1.934  0.00  0.00     0.283 C 
BRANCH  22  23
HETATM   23  C           1     -18.906  -9.090  -2.625  0.00  0.00     0.113 C 
BRANCH  23  24
HETATM   24  S           1     -18.427 -10.834  -2.479  0.00  0.00    -0.180 SA
HETATM   25  H           1     -18.027 -10.763  -1.197  0.00  0.00     0.101 HD
ENDBRANCH  23  24
ENDBRANCH  22  23
BRANCH  22  26
HETATM   26  N           1     -20.967 -10.180  -1.818  0.00  0.00    -0.066 N 
HETATM   27  H           1     -20.936 -10.678  -2.736  0.00  0.00     0.275 HD
HETATM   28  H           1     -20.505 -10.769  -1.088  0.00  0.00     0.275 HD
HETATM   29  H           1     -21.961 -10.007  -1.549  0.00  0.00     0.275 HD
ENDBRANCH  22  26
ENDBRANCH  19  22
ENDBRANCH   1  18
TORSDOF 11
ENDMDL
MODEL 7
REMARK VINA RESULT:      -5.6     15.312     17.886
REMARK  11 active torsions:
REMARK  status: ('A' for Active; 'I' for Inactive)
REMARK    1  A    between atoms: C_1  and  C_6 
REMARK    2  A    between atoms: C_5  and  C_18 
REMARK    3  A    between atoms: C_5  and  C_6 
REMARK    4  A    between atoms: C_5  and  N_13 
REMARK    5  A    between atoms: O_7  and  P_27 
REMARK    6  A    between atoms: S_10  and  C_11 
REMARK    7  A    between atoms: C_11  and  C_12 
REMARK    8  A    between atoms: C_12  and  C_26 
REMARK    9  A    between atoms: C_12  and  N_16 
REMARK       I    between atoms: N_13  and  C_26 
REMARK   10  A    between atoms: O_19  and  C_21 
REMARK   11  A    between atoms: O_19  and  P_27 
ROOT
HETATM    1  C           1     -20.920  -7.445  -4.017  0.00  0.00     0.189 C 
ENDROOT
BRANCH   1   2
HETATM    2  C           1     -21.165  -6.809  -2.670  0.00  0.00     0.197 C 
HETATM    3  O           1     -21.745  -5.704  -2.598  0.00  0.00    -0.646 OA
HETATM    4  O           1     -20.789  -7.387  -1.628  0.00  0.00    -0.646 OA
ENDBRANCH   1   2
BRANCH   1   5
HETATM    5  C           1     -22.156  -7.277  -4.891  0.00  0.00     0.074 C 
BRANCH   5   6
HETATM    6  C           1     -21.866  -6.295  -5.982  0.00  0.00    -0.056 A 
HETATM    7  C           1     -20.642  -6.336  -6.651  0.00  0.00     0.010 A 
HETATM    8  C           1     -20.372  -5.420  -7.668  0.00  0.00     0.038 A 
HETATM    9  C           1     -21.325  -4.463  -8.016  0.00  0.00     0.081 A 
HETATM   10  C           1     -22.549  -4.422  -7.347  0.00  0.00     0.038 A 
HETATM   11  C           1     -22.818  -5.338  -6.330  0.00  0.00     0.010 A 
BRANCH   9  12
HETATM   12  O           1     -21.062  -3.574  -9.003  0.00  0.00    -0.247 OA
BRANCH  12  13
HETATM   13  P           1     -21.452  -3.984 -10.516  0.00  0.00     0.411 P 
HETATM   14  O           1     -21.757  -2.763 -11.295  0.00  0.00    -0.624 OA
HETATM   15  O           1     -20.317  -4.697 -11.143  0.00  0.00    -0.624 OA
BRANCH  13  16
HETATM   16  O           1     -22.748  -4.948 -10.495  0.00  0.00    -0.300 OA
HETATM   17  H           1     -23.180  -4.757  -9.679  0.00  0.00     0.223 HD
ENDBRANCH  13  16
ENDBRANCH  12  13
ENDBRANCH   9  12
ENDBRANCH   5   6
ENDBRANCH   1   5
BRANCH   1  18
HETATM   18  N           1     -20.642  -8.857  -3.840  0.00  0.00    -0.344 N 
HETATM   19  C           1     -19.420  -9.364  -4.190  0.00  0.00     0.249 C 
HETATM   20  O           1     -18.525  -9.396  -3.379  0.00  0.00    -0.271 OA
HETATM   21  H           1     -21.352  -9.469  -3.458  0.00  0.00     0.163 HD
BRANCH  19  22
HETATM   22  C           1     -19.189  -9.880  -5.589  0.00  0.00     0.283 C 
BRANCH  22  23
HETATM   23  C           1     -18.584 -11.276  -5.522  0.00  0.00     0.113 C 
BRANCH  23  24
HETATM   24  S           1     -19.020 -12.197  -7.024  0.00  0.00    -0.180 SA
HETATM   25  H           1     -19.071 -13.407  -6.437  0.00  0.00     0.101 HD
ENDBRANCH  23  24
ENDBRANCH  22  23
BRANCH  22  26
HETATM   26  N           1     -18.248  -8.962  -6.312  0.00  0.00    -0.066 N 
HETATM   27  H           1     -18.370  -9.079  -7.343  0.00  0.00     0.275 HD
HETATM   28  H           1     -18.456  -7.973  -6.047  0.00  0.00     0.275 HD
HETATM   29  H           1     -17.264  -9.194  -6.048  0.00  0.00     0.275 HD
ENDBRANCH  22  26
ENDBRANCH  19  22
ENDBRANCH   1  18
TORSDOF 11
ENDMDL
MODEL 8
REMARK VINA RESULT:      -5.6     14.871     17.492
REMARK  11 active torsions:
REMARK  status: ('A' for Active; 'I' for Inactive)
REMARK    1  A    between atoms: C_1  and  C_6 
REMARK    2  A    between atoms: C_5  and  C_18 
REMARK    3  A    between atoms: C_5  and  C_6 
REMARK    4  A    between atoms: C_5  and  N_13 
REMARK    5  A    between atoms: O_7  and  P_27 
REMARK    6  A    between atoms: S_10  and  C_11 
REMARK    7  A    between atoms: C_11  and  C_12 
REMARK    8  A    between atoms: C_12  and  C_26 
REMARK    9  A    between atoms: C_12  and  N_16 
REMARK       I    between atoms: N_13  and  C_26 
REMARK   10  A    between atoms: O_19  and  C_21 
REMARK   11  A    between atoms: O_19  and  P_27 
ROOT
HETATM    1  C           1     -20.882  -7.103  -3.825  0.00  0.00     0.189 C 
ENDROOT
BRANCH   1   2
HETATM    2  C           1     -21.589  -6.914  -2.506  0.00  0.00     0.197 C 
HETATM    3  O           1     -22.337  -5.927  -2.334  0.00  0.00    -0.646 OA
HETATM    4  O           1     -21.428  -7.743  -1.585  0.00  0.00    -0.646 OA
ENDBRANCH   1   2
BRANCH   1   5
HETATM    5  C           1     -21.894  -7.498  -4.893  0.00  0.00     0.074 C 
BRANCH   5   6
HETATM    6  C           1     -21.958  -6.431  -5.940  0.00  0.00    -0.056 A 
HETATM    7  C           1     -20.890  -6.252  -6.820  0.00  0.00     0.010 A 
HETATM    8  C           1     -20.950  -5.257  -7.796  0.00  0.00     0.038 A 
HETATM    9  C           1     -22.076  -4.441  -7.891  0.00  0.00     0.081 A 
HETATM   10  C           1     -23.144  -4.619  -7.012  0.00  0.00     0.038 A 
HETATM   11  C           1     -23.084  -5.615  -6.036  0.00  0.00     0.010 A 
BRANCH   9  12
HETATM   12  O           1     -22.134  -3.475  -8.839  0.00  0.00    -0.247 OA
BRANCH  12  13
HETATM   13  P           1     -23.154  -3.684 -10.074  0.00  0.00     0.411 P 
HETATM   14  O           1     -22.586  -3.066 -11.293  0.00  0.00    -0.624 OA
HETATM   15  O           1     -23.359  -5.131 -10.306  0.00  0.00    -0.624 OA
BRANCH  13  16
HETATM   16  O           1     -24.570  -2.989  -9.726  0.00  0.00    -0.300 OA
HETATM   17  H           1     -25.219  -3.552 -10.114  0.00  0.00     0.223 HD
ENDBRANCH  13  16
ENDBRANCH  12  13
ENDBRANCH   9  12
ENDBRANCH   5   6
ENDBRANCH   1   5
BRANCH   1  18
HETATM   18  N           1     -19.886  -8.149  -3.694  0.00  0.00    -0.344 N 
HETATM   19  C           1     -19.946  -9.256  -4.495  0.00  0.00     0.249 C 
HETATM   20  O           1     -19.374  -9.263  -5.559  0.00  0.00    -0.271 OA
HETATM   21  H           1     -19.146  -8.059  -3.009  0.00  0.00     0.163 HD
BRANCH  19  22
HETATM   22  C           1     -20.727 -10.468  -4.051  0.00  0.00     0.283 C 
BRANCH  22  23
HETATM   23  C           1     -19.800 -11.432  -3.323  0.00  0.00     0.113 C 
BRANCH  23  24
HETATM   24  S           1     -19.943 -11.173  -1.532  0.00  0.00    -0.180 SA
HETATM   25  H           1     -20.573  -9.987  -1.611  0.00  0.00     0.101 HD
ENDBRANCH  23  24
ENDBRANCH  22  23
BRANCH  22  26
HETATM   26  N           1     -21.315 -11.151  -5.250  0.00  0.00    -0.066 N 
HETATM   27  H           1     -20.686 -11.928  -5.553  0.00  0.00     0.275 HD
HETATM   28  H           1     -22.254 -11.539  -5.004  0.00  0.00     0.275 HD
HETATM   29  H           1     -21.417 -10.461  -6.029  0.00  0.00     0.275 HD
ENDBRANCH  22  26
ENDBRANCH  19  22
ENDBRANCH   1  18
TORSDOF 11
ENDMDL
MODEL 9
REMARK VINA RESULT:      -5.6     14.796     16.965
REMARK  11 active torsions:
REMARK  status: ('A' for Active; 'I' for Inactive)
REMARK    1  A    between atoms: C_1  and  C_6 
REMARK    2  A    between atoms: C_5  and  C_18 
REMARK    3  A    between atoms: C_5  and  C_6 
REMARK    4  A    between atoms: C_5  and  N_13 
REMARK    5  A    between atoms: O_7  and  P_27 
REMARK    6  A    between atoms: S_10  and  C_11 
REMARK    7  A    between atoms: C_11  and  C_12 
REMARK    8  A    between atoms: C_12  and  C_26 
REMARK    9  A    between atoms: C_12  and  N_16 
REMARK       I    between atoms: N_13  and  C_26 
REMARK   10  A    between atoms: O_19  and  C_21 
REMARK   11  A    between atoms: O_19  and  P_27 
ROOT
HETATM    1  C           1     -21.120  -7.049  -5.976  0.00  0.00     0.189 C 
ENDROOT
BRANCH   1   2
HETATM    2  C           1     -21.834  -6.177  -4.972  0.00  0.00     0.197 C 
HETATM    3  O           1     -21.180  -5.558  -4.105  0.00  0.00    -0.646 OA
HETATM    4  O           1     -23.079  -6.073  -5.008  0.00  0.00    -0.646 OA
ENDBRANCH   1   2
BRANCH   1   5
HETATM    5  C           1     -19.920  -7.712  -5.311  0.00  0.00     0.074 C 
BRANCH   5   6
HETATM    6  C           1     -20.396  -8.726  -4.319  0.00  0.00    -0.056 A 
HETATM    7  C           1     -19.750  -8.857  -3.090  0.00  0.00     0.010 A 
HETATM    8  C           1     -20.193  -9.802  -2.166  0.00  0.00     0.038 A 
HETATM    9  C           1     -21.283 -10.618  -2.470  0.00  0.00     0.081 A 
HETATM   10  C           1     -21.931 -10.487  -3.699  0.00  0.00     0.038 A 
HETATM   11  C           1     -21.487  -9.541  -4.623  0.00  0.00     0.010 A 
BRANCH   9  12
HETATM   12  O           1     -21.714 -11.536  -1.572  0.00  0.00    -0.247 OA
BRANCH  12  13
HETATM   13  P           1     -22.418 -11.001  -0.220  0.00  0.00     0.411 P 
HETATM   14  O           1     -21.385 -10.776   0.817  0.00  0.00    -0.624 OA
HETATM   15  O           1     -23.122  -9.730  -0.498  0.00  0.00    -0.624 OA
BRANCH  13  16
HETATM   16  O           1     -23.479 -12.100   0.305  0.00  0.00    -0.300 OA
HETATM   17  H           1     -23.044 -12.537   1.018  0.00  0.00     0.223 HD
ENDBRANCH  13  16
ENDBRANCH  12  13
ENDBRANCH   9  12
ENDBRANCH   5   6
ENDBRANCH   1   5
BRANCH   1  18
HETATM   18  N           1     -20.666  -6.234  -7.087  0.00  0.00    -0.344 N 
HETATM   19  C           1     -21.247  -5.019  -7.327  0.00  0.00     0.249 C 
HETATM   20  O           1     -20.801  -4.023  -6.809  0.00  0.00    -0.271 OA
HETATM   21  H           1     -19.920  -6.565  -7.685  0.00  0.00     0.163 HD
BRANCH  19  22
HETATM   22  C           1     -22.446  -4.923  -8.238  0.00  0.00     0.283 C 
BRANCH  22  23
HETATM   23  C           1     -22.072  -4.140  -9.490  0.00  0.00     0.113 C 
BRANCH  23  24
HETATM   24  S           1     -23.240  -4.535 -10.822  0.00  0.00    -0.180 SA
HETATM   25  H           1     -22.689  -3.720 -11.739  0.00  0.00     0.101 HD
ENDBRANCH  23  24
ENDBRANCH  22  23
BRANCH  22  26
HETATM   26  N           1     -23.562  -4.219  -7.523  0.00  0.00    -0.066 N 
HETATM   27  H           1     -23.183  -3.385  -7.022  0.00  0.00     0.275 HD
HETATM   28  H           1     -24.280  -3.910  -8.218  0.00  0.00     0.275 HD
HETATM   29  H           1     -24.000  -4.871  -6.835  0.00  0.00     0.275 HD
ENDBRANCH  22  26
ENDBRANCH  19  22
ENDBRANCH   1  18
TORSDOF 11
ENDMDL
