MODEL 1
REMARK VINA RESULT:      -6.1      0.000      0.000
REMARK  9 active torsions:
REMARK  status: ('A' for Active; 'I' for Inactive)
REMARK    1  A    between atoms: N_2  and  C_14 
REMARK       I    between atoms: N_2  and  C_3 
REMARK    2  A    between atoms: C_3  and  C_11 
REMARK    3  A    between atoms: N_9  and  C_11 
REMARK    4  A    between atoms: C_12  and  C_22 
REMARK    5  A    between atoms: C_12  and  C_13 
REMARK    6  A    between atoms: C_13  and  C_14 
REMARK    7  A    between atoms: C_14  and  C_15 
REMARK    8  A    between atoms: N_20  and  C_21 
REMARK    9  A    between atoms: C_21  and  C_22 
ROOT
HETATM    1  C           1     -26.448  -5.978 -16.999  0.00  0.00     0.185 C 
ENDROOT
BRANCH   1   2
HETATM    2  N           1     -26.484  -6.639 -18.289  0.00  0.00    -0.345 N 
HETATM    3  C           1     -25.323  -6.840 -18.986  0.00  0.00     0.248 C 
HETATM    4  O           1     -24.270  -6.469 -18.527  0.00  0.00    -0.271 OA
HETATM    5  H           1     -27.366  -6.951 -18.674  0.00  0.00     0.163 HD
BRANCH   3   6
HETATM    6  C           1     -25.360  -7.528 -20.329  0.00  0.00     0.270 C 
HETATM    7  C           1     -24.915  -6.555 -21.412  0.00  0.00     0.050 C 
BRANCH   6   8
HETATM    8  N           1     -26.758  -7.990 -20.616  0.00  0.00    -0.067 N 
HETATM    9  H           1     -26.730  -8.939 -21.052  0.00  0.00     0.275 HD
HETATM   10  H           1     -27.300  -8.033 -19.723  0.00  0.00     0.275 HD
HETATM   11  H           1     -27.219  -7.318 -21.271  0.00  0.00     0.275 HD
ENDBRANCH   6   8
ENDBRANCH   3   6
ENDBRANCH   1   2
BRANCH   1  12
HETATM   12  C           1     -27.692  -5.114 -16.837  0.00  0.00     0.036 C 
BRANCH  12  13
HETATM   13  C           1     -28.615  -5.324 -18.030  0.00  0.00     0.004 C 
BRANCH  13  14
HETATM   14  C           1     -29.940  -5.902 -17.553  0.00  0.00     0.027 C 
BRANCH  14  15
HETATM   15  C           1     -30.165  -7.263 -18.200  0.00  0.00     0.229 C 
BRANCH  15  16
HETATM   16  N           1     -29.432  -8.314 -17.421  0.00  0.00    -0.079 N 
HETATM   17  H           1     -30.122  -8.937 -16.942  0.00  0.00     0.274 HD
HETATM   18  H           1     -28.822  -7.856 -16.707  0.00  0.00     0.274 HD
HETATM   19  H           1     -28.842  -8.882 -18.070  0.00  0.00     0.274 HD
ENDBRANCH  15  16
ENDBRANCH  14  15
ENDBRANCH  13  14
ENDBRANCH  12  13
ENDBRANCH   1  12
BRANCH   1  20
HETATM   20  C           1     -26.410  -7.016 -15.904  0.00  0.00     0.196 C 
HETATM   21  O           1     -25.316  -7.483 -15.522  0.00  0.00    -0.646 OA
HETATM   22  O           1     -27.474  -7.411 -15.380  0.00  0.00    -0.646 OA
ENDBRANCH   1  20
TORSDOF 9
ENDMDL
MODEL 2
REMARK VINA RESULT:      -5.7     10.174     11.610
REMARK  9 active torsions:
REMARK  status: ('A' for Active; 'I' for Inactive)
REMARK    1  A    between atoms: N_2  and  C_14 
REMARK       I    between atoms: N_2  and  C_3 
REMARK    2  A    between atoms: C_3  and  C_11 
REMARK    3  A    between atoms: N_9  and  C_11 
REMARK    4  A    between atoms: C_12  and  C_22 
REMARK    5  A    between atoms: C_12  and  C_13 
REMARK    6  A    between atoms: C_13  and  C_14 
REMARK    7  A    between atoms: C_14  and  C_15 
REMARK    8  A    between atoms: N_20  and  C_21 
REMARK    9  A    between atoms: C_21  and  C_22 
ROOT
HETATM    1  C           1     -35.242  -1.727 -11.505  0.00  0.00     0.185 C 
ENDROOT
BRANCH   1   2
HETATM    2  N           1     -35.192  -0.671 -12.497  0.00  0.00    -0.345 N 
HETATM    3  C           1     -35.121  -0.985 -13.827  0.00  0.00     0.248 C 
HETATM    4  O           1     -35.100  -2.142 -14.175  0.00  0.00    -0.271 OA
HETATM    5  H           1     -35.210   0.298 -12.206  0.00  0.00     0.163 HD
BRANCH   3   6
HETATM    6  C           1     -35.068   0.114 -14.860  0.00  0.00     0.270 C 
HETATM    7  C           1     -34.792   1.445 -14.174  0.00  0.00     0.050 C 
BRANCH   6   8
HETATM    8  N           1     -36.382   0.187 -15.580  0.00  0.00    -0.067 N 
HETATM    9  H           1     -37.108   0.585 -14.943  0.00  0.00     0.275 HD
HETATM   10  H           1     -36.284   0.799 -16.422  0.00  0.00     0.275 HD
HETATM   11  H           1     -36.669  -0.773 -15.878  0.00  0.00     0.275 HD
ENDBRANCH   6   8
ENDBRANCH   3   6
ENDBRANCH   1   2
BRANCH   1  12
HETATM   12  C           1     -33.864  -1.903 -10.882  0.00  0.00     0.036 C 
BRANCH  12  13
HETATM   13  C           1     -33.276  -3.238 -11.319  0.00  0.00     0.004 C 
BRANCH  13  14
HETATM   14  C           1     -33.980  -4.369 -10.580  0.00  0.00     0.027 C 
BRANCH  14  15
HETATM   15  C           1     -34.368  -5.460 -11.570  0.00  0.00     0.229 C 
BRANCH  15  16
HETATM   16  N           1     -34.432  -4.881 -12.952  0.00  0.00    -0.079 N 
HETATM   17  H           1     -33.948  -3.954 -12.965  0.00  0.00     0.274 HD
HETATM   18  H           1     -35.431  -4.756 -13.232  0.00  0.00     0.274 HD
HETATM   19  H           1     -33.961  -5.528 -13.624  0.00  0.00     0.274 HD
ENDBRANCH  15  16
ENDBRANCH  14  15
ENDBRANCH  13  14
ENDBRANCH  12  13
ENDBRANCH   1  12
BRANCH   1  20
HETATM   20  C           1     -36.237  -1.359 -10.430  0.00  0.00     0.196 C 
HETATM   21  O           1     -37.447  -1.630 -10.580  0.00  0.00    -0.646 OA
HETATM   22  O           1     -35.850  -0.782  -9.392  0.00  0.00    -0.646 OA
ENDBRANCH   1  20
TORSDOF 9
ENDMDL
MODEL 3
REMARK VINA RESULT:      -5.6     10.084     12.218
REMARK  9 active torsions:
REMARK  status: ('A' for Active; 'I' for Inactive)
REMARK    1  A    between atoms: N_2  and  C_14 
REMARK       I    between atoms: N_2  and  C_3 
REMARK    2  A    between atoms: C_3  and  C_11 
REMARK    3  A    between atoms: N_9  and  C_11 
REMARK    4  A    between atoms: C_12  and  C_22 
REMARK    5  A    between atoms: C_12  and  C_13 
REMARK    6  A    between atoms: C_13  and  C_14 
REMARK    7  A    between atoms: C_14  and  C_15 
REMARK    8  A    between atoms: N_20  and  C_21 
REMARK    9  A    between atoms: C_21  and  C_22 
ROOT
HETATM    1  C           1     -35.544  -0.717 -11.725  0.00  0.00     0.185 C 
ENDROOT
BRANCH   1   2
HETATM    2  N           1     -35.196  -2.117 -11.583  0.00  0.00    -0.345 N 
HETATM    3  C           1     -34.056  -2.474 -10.914  0.00  0.00     0.248 C 
HETATM    4  O           1     -33.341  -1.623 -10.442  0.00  0.00    -0.271 OA
HETATM    5  H           1     -35.795  -2.831 -11.977  0.00  0.00     0.163 HD
BRANCH   3   6
HETATM    6  C           1     -33.693  -3.931 -10.766  0.00  0.00     0.270 C 
HETATM    7  C           1     -32.730  -4.332 -11.875  0.00  0.00     0.050 C 
BRANCH   6   8
HETATM    8  N           1     -34.935  -4.767 -10.857  0.00  0.00    -0.067 N 
HETATM    9  H           1     -34.865  -5.571 -10.192  0.00  0.00     0.275 HD
HETATM   10  H           1     -35.766  -4.183 -10.610  0.00  0.00     0.275 HD
HETATM   11  H           1     -35.040  -5.129 -11.832  0.00  0.00     0.275 HD
ENDBRANCH   6   8
ENDBRANCH   3   6
ENDBRANCH   1   2
BRANCH   1  12
HETATM   12  C           1     -35.897  -0.427 -13.178  0.00  0.00     0.036 C 
BRANCH  12  13
HETATM   13  C           1     -35.058   0.741 -13.681  0.00  0.00     0.004 C 
BRANCH  13  14
HETATM   14  C           1     -35.414   1.033 -15.132  0.00  0.00     0.027 C 
BRANCH  14  15
HETATM   15  C           1     -36.697   0.300 -15.500  0.00  0.00     0.229 C 
BRANCH  15  16
HETATM   16  N           1     -37.755   1.297 -15.868  0.00  0.00    -0.079 N 
HETATM   17  H           1     -37.860   1.995 -15.098  0.00  0.00     0.274 HD
HETATM   18  H           1     -38.664   0.802 -16.016  0.00  0.00     0.274 HD
HETATM   19  H           1     -37.480   1.789 -16.749  0.00  0.00     0.274 HD
ENDBRANCH  15  16
ENDBRANCH  14  15
ENDBRANCH  13  14
ENDBRANCH  12  13
ENDBRANCH   1  12
BRANCH   1  20
HETATM   20  C           1     -36.731  -0.403 -10.847  0.00  0.00     0.196 C 
HETATM   21  O           1     -37.831  -0.957 -11.061  0.00  0.00    -0.646 OA
HETATM   22  O           1     -36.615   0.413  -9.907  0.00  0.00    -0.646 OA
ENDBRANCH   1  20
TORSDOF 9
ENDMDL
MODEL 4
REMARK VINA RESULT:      -5.4      7.272      9.228
REMARK  9 active torsions:
REMARK  status: ('A' for Active; 'I' for Inactive)
REMARK    1  A    between atoms: N_2  and  C_14 
REMARK       I    between atoms: N_2  and  C_3 
REMARK    2  A    between atoms: C_3  and  C_11 
REMARK    3  A    between atoms: N_9  and  C_11 
REMARK    4  A    between atoms: C_12  and  C_22 
REMARK    5  A    between atoms: C_12  and  C_13 
REMARK    6  A    between atoms: C_13  and  C_14 
REMARK    7  A    between atoms: C_14  and  C_15 
REMARK    8  A    between atoms: N_20  and  C_21 
REMARK    9  A    between atoms: C_21  and  C_22 
ROOT
HETATM    1  C           1     -34.039  -4.040 -13.000  0.00  0.00     0.185 C 
ENDROOT
BRANCH   1   2
HETATM    2  N           1     -33.324  -3.995 -14.260  0.00  0.00    -0.345 N 
HETATM    3  C           1     -33.900  -4.507 -15.392  0.00  0.00     0.248 C 
HETATM    4  O           1     -35.003  -4.995 -15.341  0.00  0.00    -0.271 OA
HETATM    5  H           1     -32.400  -3.586 -14.304  0.00  0.00     0.163 HD
BRANCH   3   6
HETATM    6  C           1     -33.155  -4.461 -16.704  0.00  0.00     0.270 C 
HETATM    7  C           1     -31.673  -4.706 -16.457  0.00  0.00     0.050 C 
BRANCH   6   8
HETATM    8  N           1     -33.340  -3.113 -17.336  0.00  0.00    -0.067 N 
HETATM    9  H           1     -32.430  -2.787 -17.734  0.00  0.00     0.275 HD
HETATM   10  H           1     -34.050  -3.182 -18.100  0.00  0.00     0.275 HD
HETATM   11  H           1     -33.669  -2.432 -16.614  0.00  0.00     0.275 HD
ENDBRANCH   6   8
ENDBRANCH   3   6
ENDBRANCH   1   2
BRANCH   1  12
HETATM   12  C           1     -33.065  -4.365 -11.875  0.00  0.00     0.036 C 
BRANCH  12  13
HETATM   13  C           1     -33.365  -5.754 -11.329  0.00  0.00     0.004 C 
BRANCH  13  14
HETATM   14  C           1     -34.476  -5.663 -10.292  0.00  0.00     0.027 C 
BRANCH  14  15
HETATM   15  C           1     -34.900  -7.066  -9.875  0.00  0.00     0.229 C 
BRANCH  15  16
HETATM   16  N           1     -33.966  -8.071 -10.482  0.00  0.00    -0.079 N 
HETATM   17  H           1     -33.195  -8.282  -9.808  0.00  0.00     0.274 HD
HETATM   18  H           1     -33.562  -7.683 -11.364  0.00  0.00     0.274 HD
HETATM   19  H           1     -34.490  -8.950 -10.696  0.00  0.00     0.274 HD
ENDBRANCH  15  16
ENDBRANCH  14  15
ENDBRANCH  13  14
ENDBRANCH  12  13
ENDBRANCH   1  12
BRANCH   1  20
HETATM   20  C           1     -34.680  -2.699 -12.738  0.00  0.00     0.196 C 
HETATM   21  O           1     -34.867  -2.313 -11.565  0.00  0.00    -0.646 OA
HETATM   22  O           1     -35.026  -1.974 -13.696  0.00  0.00    -0.646 OA
ENDBRANCH   1  20
TORSDOF 9
ENDMDL
MODEL 5
REMARK VINA RESULT:      -5.0     11.572     13.633
REMARK  9 active torsions:
REMARK  status: ('A' for Active; 'I' for Inactive)
REMARK    1  A    between atoms: N_2  and  C_14 
REMARK       I    between atoms: N_2  and  C_3 
REMARK    2  A    between atoms: C_3  and  C_11 
REMARK    3  A    between atoms: N_9  and  C_11 
REMARK    4  A    between atoms: C_12  and  C_22 
REMARK    5  A    between atoms: C_12  and  C_13 
REMARK    6  A    between atoms: C_13  and  C_14 
REMARK    7  A    between atoms: C_14  and  C_15 
REMARK    8  A    between atoms: N_20  and  C_21 
REMARK    9  A    between atoms: C_21  and  C_22 
ROOT
HETATM    1  C           1     -21.297  -5.447  -6.551  0.00  0.00     0.185 C 
ENDROOT
BRANCH   1   2
HETATM    2  N           1     -21.092  -5.413  -5.116  0.00  0.00    -0.345 N 
HETATM    3  C           1     -21.487  -6.471  -4.343  0.00  0.00     0.248 C 
HETATM    4  O           1     -22.005  -7.434  -4.856  0.00  0.00    -0.271 OA
HETATM    5  H           1     -20.657  -4.607  -4.687  0.00  0.00     0.163 HD
BRANCH   3   6
HETATM    6  C           1     -21.273  -6.435  -2.850  0.00  0.00     0.270 C 
HETATM    7  C           1     -20.995  -7.843  -2.341  0.00  0.00     0.050 C 
BRANCH   6   8
HETATM    8  N           1     -22.503  -5.896  -2.181  0.00  0.00    -0.067 N 
HETATM    9  H           1     -23.007  -5.259  -2.838  0.00  0.00     0.275 HD
HETATM   10  H           1     -23.130  -6.690  -1.916  0.00  0.00     0.275 HD
HETATM   11  H           1     -22.229  -5.367  -1.323  0.00  0.00     0.275 HD
ENDBRANCH   6   8
ENDBRANCH   3   6
ENDBRANCH   1   2
BRANCH   1  12
HETATM   12  C           1     -21.861  -4.111  -7.015  0.00  0.00     0.036 C 
BRANCH  12  13
HETATM   13  C           1     -23.187  -4.338  -7.728  0.00  0.00     0.004 C 
BRANCH  13  14
HETATM   14  C           1     -22.954  -4.393  -9.232  0.00  0.00     0.027 C 
BRANCH  14  15
HETATM   15  C           1     -23.930  -3.458  -9.933  0.00  0.00     0.229 C 
BRANCH  15  16
HETATM   16  N           1     -25.336  -3.843  -9.576  0.00  0.00    -0.079 N 
HETATM   17  H           1     -25.997  -3.115  -9.930  0.00  0.00     0.274 HD
HETATM   18  H           1     -25.423  -3.918  -8.537  0.00  0.00     0.274 HD
HETATM   19  H           1     -25.566  -4.764 -10.012  0.00  0.00     0.274 HD
ENDBRANCH  15  16
ENDBRANCH  14  15
ENDBRANCH  13  14
ENDBRANCH  12  13
ENDBRANCH   1  12
BRANCH   1  20
HETATM   20  C           1     -19.980  -5.705  -7.241  0.00  0.00     0.196 C 
HETATM   21  O           1     -19.422  -6.818  -7.128  0.00  0.00    -0.646 OA
HETATM   22  O           1     -19.446  -4.805  -7.924  0.00  0.00    -0.646 OA
ENDBRANCH   1  20
TORSDOF 9
ENDMDL
MODEL 6
REMARK VINA RESULT:      -4.8     10.607     12.445
REMARK  9 active torsions:
REMARK  status: ('A' for Active; 'I' for Inactive)
REMARK    1  A    between atoms: N_2  and  C_14 
REMARK       I    between atoms: N_2  and  C_3 
REMARK    2  A    between atoms: C_3  and  C_11 
REMARK    3  A    between atoms: N_9  and  C_11 
REMARK    4  A    between atoms: C_12  and  C_22 
REMARK    5  A    between atoms: C_12  and  C_13 
REMARK    6  A    between atoms: C_13  and  C_14 
REMARK    7  A    between atoms: C_14  and  C_15 
REMARK    8  A    between atoms: N_20  and  C_21 
REMARK    9  A    between atoms: C_21  and  C_22 
ROOT
HETATM    1  C           1     -21.069  -4.252  -7.412  0.00  0.00     0.185 C 
ENDROOT
BRANCH   1   2
HETATM    2  N           1     -22.149  -4.885  -8.143  0.00  0.00    -0.345 N 
HETATM    3  C           1     -22.933  -4.143  -8.984  0.00  0.00     0.248 C 
HETATM    4  O           1     -22.725  -2.961  -9.119  0.00  0.00    -0.271 OA
HETATM    5  H           1     -22.323  -5.876  -8.031  0.00  0.00     0.163 HD
BRANCH   3   6
HETATM    6  C           1     -24.058  -4.803  -9.745  0.00  0.00     0.270 C 
HETATM    7  C           1     -23.653  -4.976 -11.202  0.00  0.00     0.050 C 
BRANCH   6   8
HETATM    8  N           1     -25.285  -3.944  -9.666  0.00  0.00    -0.067 N 
HETATM    9  H           1     -25.371  -3.545  -8.704  0.00  0.00     0.275 HD
HETATM   10  H           1     -25.211  -3.166 -10.361  0.00  0.00     0.275 HD
HETATM   11  H           1     -26.129  -4.523  -9.880  0.00  0.00     0.275 HD
ENDBRANCH   6   8
ENDBRANCH   3   6
ENDBRANCH   1   2
BRANCH   1  12
HETATM   12  C           1     -21.031  -4.795  -5.990  0.00  0.00     0.036 C 
BRANCH  12  13
HETATM   13  C           1     -21.396  -6.274  -6.002  0.00  0.00     0.004 C 
BRANCH  13  14
HETATM   14  C           1     -22.211  -6.606  -4.759  0.00  0.00     0.027 C 
BRANCH  14  15
HETATM   15  C           1     -21.427  -6.206  -3.515  0.00  0.00     0.229 C 
BRANCH  15  16
HETATM   16  N           1     -22.381  -5.916  -2.394  0.00  0.00    -0.079 N 
HETATM   17  H           1     -23.175  -6.595  -2.428  0.00  0.00     0.274 HD
HETATM   18  H           1     -22.749  -4.943  -2.493  0.00  0.00     0.274 HD
HETATM   19  H           1     -21.883  -6.008  -1.480  0.00  0.00     0.274 HD
ENDBRANCH  15  16
ENDBRANCH  14  15
ENDBRANCH  13  14
ENDBRANCH  12  13
ENDBRANCH   1  12
BRANCH   1  20
HETATM   20  C           1     -19.757  -4.547  -8.099  0.00  0.00     0.196 C 
HETATM   21  O           1     -18.684  -4.441  -7.469  0.00  0.00    -0.646 OA
HETATM   22  O           1     -19.745  -4.895  -9.300  0.00  0.00    -0.646 OA
ENDBRANCH   1  20
TORSDOF 9
ENDMDL
MODEL 7
REMARK VINA RESULT:      -4.8     12.083     13.960
REMARK  9 active torsions:
REMARK  status: ('A' for Active; 'I' for Inactive)
REMARK    1  A    between atoms: N_2  and  C_14 
REMARK       I    between atoms: N_2  and  C_3 
REMARK    2  A    between atoms: C_3  and  C_11 
REMARK    3  A    between atoms: N_9  and  C_11 
REMARK    4  A    between atoms: C_12  and  C_22 
REMARK    5  A    between atoms: C_12  and  C_13 
REMARK    6  A    between atoms: C_13  and  C_14 
REMARK    7  A    between atoms: C_14  and  C_15 
REMARK    8  A    between atoms: N_20  and  C_21 
REMARK    9  A    between atoms: C_21  and  C_22 
ROOT
HETATM    1  C           1     -20.744  -6.743  -5.502  0.00  0.00     0.185 C 
ENDROOT
BRANCH   1   2
HETATM    2  N           1     -20.844  -8.174  -5.715  0.00  0.00    -0.345 N 
HETATM    3  C           1     -20.020  -9.027  -5.031  0.00  0.00     0.248 C 
HETATM    4  O           1     -19.210  -8.588  -4.251  0.00  0.00    -0.271 OA
HETATM    5  H           1     -21.523  -8.542  -6.368  0.00  0.00     0.163 HD
BRANCH   3   6
HETATM    6  C           1     -20.124 -10.516  -5.253  0.00  0.00     0.270 C 
HETATM    7  C           1     -18.764 -11.067  -5.659  0.00  0.00     0.050 C 
BRANCH   6   8
HETATM    8  N           1     -21.119 -10.791  -6.340  0.00  0.00    -0.067 N 
HETATM    9  H           1     -20.618 -10.918  -7.249  0.00  0.00     0.275 HD
HETATM   10  H           1     -21.652 -11.662  -6.112  0.00  0.00     0.275 HD
HETATM   11  H           1     -21.783  -9.987  -6.417  0.00  0.00     0.275 HD
ENDBRANCH   6   8
ENDBRANCH   3   6
ENDBRANCH   1   2
BRANCH   1  12
HETATM   12  C           1     -20.774  -6.028  -6.846  0.00  0.00     0.036 C 
BRANCH  12  13
HETATM   13  C           1     -20.239  -4.612  -6.680  0.00  0.00     0.004 C 
BRANCH  13  14
HETATM   14  C           1     -21.285  -3.614  -7.159  0.00  0.00     0.027 C 
BRANCH  14  15
HETATM   15  C           1     -22.258  -4.309  -8.102  0.00  0.00     0.229 C 
BRANCH  15  16
HETATM   16  N           1     -23.650  -4.201  -7.554  0.00  0.00    -0.079 N 
HETATM   17  H           1     -23.831  -3.216  -7.253  0.00  0.00     0.274 HD
HETATM   18  H           1     -23.751  -4.841  -6.733  0.00  0.00     0.274 HD
HETATM   19  H           1     -24.338  -4.471  -8.292  0.00  0.00     0.274 HD
ENDBRANCH  15  16
ENDBRANCH  14  15
ENDBRANCH  13  14
ENDBRANCH  12  13
ENDBRANCH   1  12
BRANCH   1  20
HETATM   20  C           1     -21.906  -6.279  -4.659  0.00  0.00     0.196 C 
HETATM   21  O           1     -21.732  -6.004  -3.452  0.00  0.00    -0.646 OA
HETATM   22  O           1     -23.043  -6.171  -5.166  0.00  0.00    -0.646 OA
ENDBRANCH   1  20
TORSDOF 9
ENDMDL
MODEL 8
REMARK VINA RESULT:      -4.8     12.756     14.557
REMARK  9 active torsions:
REMARK  status: ('A' for Active; 'I' for Inactive)
REMARK    1  A    between atoms: N_2  and  C_14 
REMARK       I    between atoms: N_2  and  C_3 
REMARK    2  A    between atoms: C_3  and  C_11 
REMARK    3  A    between atoms: N_9  and  C_11 
REMARK    4  A    between atoms: C_12  and  C_22 
REMARK    5  A    between atoms: C_12  and  C_13 
REMARK    6  A    between atoms: C_13  and  C_14 
REMARK    7  A    between atoms: C_14  and  C_15 
REMARK    8  A    between atoms: N_20  and  C_21 
REMARK    9  A    between atoms: C_21  and  C_22 
ROOT
HETATM    1  C           1     -20.844  -6.763  -5.027  0.00  0.00     0.185 C 
ENDROOT
BRANCH   1   2
HETATM    2  N           1     -21.301  -6.379  -6.348  0.00  0.00    -0.345 N 
HETATM    3  C           1     -21.065  -5.113  -6.813  0.00  0.00     0.248 C 
HETATM    4  O           1     -20.475  -4.316  -6.123  0.00  0.00    -0.271 OA
HETATM    5  H           1     -21.795  -7.046  -6.927  0.00  0.00     0.163 HD
BRANCH   3   6
HETATM    6  C           1     -21.540  -4.713  -8.188  0.00  0.00     0.270 C 
HETATM    7  C           1     -20.344  -4.326  -9.047  0.00  0.00     0.050 C 
BRANCH   6   8
HETATM    8  N           1     -22.473  -3.544  -8.075  0.00  0.00    -0.067 N 
HETATM    9  H           1     -22.576  -3.088  -9.009  0.00  0.00     0.275 HD
HETATM   10  H           1     -23.408  -3.876  -7.744  0.00  0.00     0.275 HD
HETATM   11  H           1     -22.086  -2.855  -7.391  0.00  0.00     0.275 HD
ENDBRANCH   6   8
ENDBRANCH   3   6
ENDBRANCH   1   2
BRANCH   1  12
HETATM   12  C           1     -21.988  -6.615  -4.032  0.00  0.00     0.036 C 
BRANCH  12  13
HETATM   13  C           1     -21.461  -6.011  -2.737  0.00  0.00     0.004 C 
BRANCH  13  14
HETATM   14  C           1     -22.229  -6.590  -1.557  0.00  0.00     0.027 C 
BRANCH  14  15
HETATM   15  C           1     -21.843  -8.051  -1.365  0.00  0.00     0.229 C 
BRANCH  15  16
HETATM   16  N           1     -20.348  -8.176  -1.360  0.00  0.00    -0.079 N 
HETATM   17  H           1     -20.012  -8.302  -0.379  0.00  0.00     0.274 HD
HETATM   18  H           1     -19.925  -7.311  -1.766  0.00  0.00     0.274 HD
HETATM   19  H           1     -20.066  -9.003  -1.934  0.00  0.00     0.274 HD
ENDBRANCH  15  16
ENDBRANCH  14  15
ENDBRANCH  13  14
ENDBRANCH  12  13
ENDBRANCH   1  12
BRANCH   1  20
HETATM   20  C           1     -20.382  -8.199  -5.053  0.00  0.00     0.196 C 
HETATM   21  O           1     -19.466  -8.575  -4.290  0.00  0.00    -0.646 OA
HETATM   22  O           1     -20.914  -9.012  -5.839  0.00  0.00    -0.646 OA
ENDBRANCH   1  20
TORSDOF 9
ENDMDL
MODEL 9
REMARK VINA RESULT:      -4.6      8.106      9.680
REMARK  9 active torsions:
REMARK  status: ('A' for Active; 'I' for Inactive)
REMARK    1  A    between atoms: N_2  and  C_14 
REMARK       I    between atoms: N_2  and  C_3 
REMARK    2  A    between atoms: C_3  and  C_11 
REMARK    3  A    between atoms: N_9  and  C_11 
REMARK    4  A    between atoms: C_12  and  C_22 
REMARK    5  A    between atoms: C_12  and  C_13 
REMARK    6  A    between atoms: C_13  and  C_14 
REMARK    7  A    between atoms: C_14  and  C_15 
REMARK    8  A    between atoms: N_20  and  C_21 
REMARK    9  A    between atoms: C_21  and  C_22 
ROOT
HETATM    1  C           1     -34.587  -3.645 -11.975  0.00  0.00     0.185 C 
ENDROOT
BRANCH   1   2
HETATM    2  N           1     -34.321  -4.319 -13.231  0.00  0.00    -0.345 N 
HETATM    3  C           1     -34.454  -3.641 -14.413  0.00  0.00     0.248 C 
HETATM    4  O           1     -34.793  -2.482 -14.410  0.00  0.00    -0.271 OA
HETATM    5  H           1     -34.037  -5.290 -13.234  0.00  0.00     0.163 HD
BRANCH   3   6
HETATM    6  C           1     -34.177  -4.343 -15.720  0.00  0.00     0.270 C 
HETATM    7  C           1     -34.803  -5.731 -15.695  0.00  0.00     0.050 C 
BRANCH   6   8
HETATM    8  N           1     -32.696  -4.467 -15.916  0.00  0.00    -0.067 N 
HETATM    9  H           1     -32.203  -4.221 -15.028  0.00  0.00     0.275 HD
HETATM   10  H           1     -32.461  -5.452 -16.182  0.00  0.00     0.275 HD
HETATM   11  H           1     -32.389  -3.819 -16.677  0.00  0.00     0.275 HD
ENDBRANCH   6   8
ENDBRANCH   3   6
ENDBRANCH   1   2
BRANCH   1  12
HETATM   12  C           1     -35.204  -4.630 -10.992  0.00  0.00     0.036 C 
BRANCH  12  13
HETATM   13  C           1     -34.887  -6.053 -11.432  0.00  0.00     0.004 C 
BRANCH  13  14
HETATM   14  C           1     -34.009  -6.725 -10.384  0.00  0.00     0.027 C 
BRANCH  14  15
HETATM   15  C           1     -34.580  -8.096 -10.046  0.00  0.00     0.229 C 
BRANCH  15  16
HETATM   16  N           1     -33.515  -9.139 -10.222  0.00  0.00    -0.079 N 
HETATM   17  H           1     -33.696  -9.678 -11.099  0.00  0.00     0.274 HD
HETATM   18  H           1     -33.527  -9.789  -9.404  0.00  0.00     0.274 HD
HETATM   19  H           1     -32.581  -8.676 -10.284  0.00  0.00     0.274 HD
ENDBRANCH  15  16
ENDBRANCH  14  15
ENDBRANCH  13  14
ENDBRANCH  12  13
ENDBRANCH   1  12
BRANCH   1  20
HETATM   20  C           1     -33.295  -3.110 -11.409  0.00  0.00     0.196 C 
HETATM   21  O           1     -33.302  -2.086 -10.693  0.00  0.00    -0.646 OA
HETATM   22  O           1     -32.216  -3.691 -11.657  0.00  0.00    -0.646 OA
ENDBRANCH   1  20
TORSDOF 9
ENDMDL
