MODEL 1
REMARK VINA RESULT:      -6.6      0.000      0.000
REMARK  10 active torsions:
REMARK  status: ('A' for Active; 'I' for Inactive)
REMARK       I    between atoms: C_2  and  N_3 
REMARK    1  A    between atoms: C_2  and  C_4 
REMARK    2  A    between atoms: C_4  and  C_5 
REMARK    3  A    between atoms: C_5  and  C_6 
REMARK    4  A    between atoms: C_5  and  N_9 
REMARK       I    between atoms: N_9  and  C_10 
REMARK    5  A    between atoms: C_10  and  C_11 
REMARK    6  A    between atoms: C_11  and  C_12 
REMARK    7  A    between atoms: C_11  and  N_18 
REMARK    8  A    between atoms: C_12  and  O_13 
REMARK    9  A    between atoms: O_13  and  P_14 
REMARK   10  A    between atoms: P_14  and  O_15 
ROOT
HETATM    1  N           1     -31.899  -5.397 -16.621  0.00  0.00    -0.344 N 
HETATM    2  C           1     -32.582  -4.224 -16.803  0.00  0.00     0.251 C 
HETATM    3  O           1     -32.097  -3.339 -17.466  0.00  0.00    -0.271 OA
HETATM    4  H           1     -32.306  -6.138 -16.064  0.00  0.00     0.163 HD
ENDROOT
BRANCH   2   5
HETATM    5  C           1     -33.940  -4.037 -16.173  0.00  0.00     0.298 C 
BRANCH   5   6
HETATM    6  C           1     -34.521  -2.696 -16.606  0.00  0.00     0.224 C 
BRANCH   6   7
HETATM    7  O           1     -35.099  -2.058 -15.499  0.00  0.00    -0.287 OA
BRANCH   7   8
HETATM    8  P           1     -35.968  -0.736 -15.818  0.00  0.00     0.406 P 
HETATM    9  O           1     -37.218  -0.763 -15.026  0.00  0.00    -0.624 OA
HETATM   10  O           1     -35.184   0.469 -15.462  0.00  0.00    -0.624 OA
BRANCH   8  11
HETATM   11  O           1     -36.330  -0.695 -17.392  0.00  0.00    -0.300 OA
HETATM   12  H           1     -37.230  -0.419 -17.428  0.00  0.00     0.223 HD
ENDBRANCH   8  11
ENDBRANCH   7   8
ENDBRANCH   6   7
ENDBRANCH   5   6
BRANCH   5  13
HETATM   13  N           1     -33.807  -4.064 -14.679  0.00  0.00    -0.064 N 
HETATM   14  H           1     -33.227  -4.885 -14.395  0.00  0.00     0.275 HD
HETATM   15  H           1     -33.346  -3.184 -14.355  0.00  0.00     0.275 HD
HETATM   16  H           1     -34.754  -4.141 -14.246  0.00  0.00     0.275 HD
ENDBRANCH   5  13
ENDBRANCH   2   5
BRANCH   1  17
HETATM   17  C           1     -30.594  -5.576 -17.226  0.00  0.00     0.194 C 
BRANCH  17  18
HETATM   18  C           1     -29.513  -5.225 -16.212  0.00  0.00     0.138 C 
BRANCH  18  19
HETATM   19  C           1     -28.622  -4.147 -16.779  0.00  0.00     0.217 C 
HETATM   20  O           1     -27.439  -4.151 -16.532  0.00  0.00    -0.274 OA
HETATM   21  N           1     -29.152  -3.166 -17.571  0.00  0.00    -0.370 N 
HETATM   22  H           1     -30.143  -3.163 -17.777  0.00  0.00     0.159 HD
HETATM   23  H           1     -28.554  -2.443 -17.951  0.00  0.00     0.159 HD
ENDBRANCH  18  19
ENDBRANCH  17  18
BRANCH  17  24
HETATM   24  C           1     -30.432  -7.014 -17.655  0.00  0.00     0.197 C 
HETATM   25  O           1     -31.203  -7.501 -18.511  0.00  0.00    -0.646 OA
HETATM   26  O           1     -29.528  -7.718 -17.156  0.00  0.00    -0.646 OA
ENDBRANCH  17  24
ENDBRANCH   1  17
TORSDOF 10
ENDMDL
MODEL 2
REMARK VINA RESULT:      -6.6      5.575      8.780
REMARK  10 active torsions:
REMARK  status: ('A' for Active; 'I' for Inactive)
REMARK       I    between atoms: C_2  and  N_3 
REMARK    1  A    between atoms: C_2  and  C_4 
REMARK    2  A    between atoms: C_4  and  C_5 
REMARK    3  A    between atoms: C_5  and  C_6 
REMARK    4  A    between atoms: C_5  and  N_9 
REMARK       I    between atoms: N_9  and  C_10 
REMARK    5  A    between atoms: C_10  and  C_11 
REMARK    6  A    between atoms: C_11  and  C_12 
REMARK    7  A    between atoms: C_11  and  N_18 
REMARK    8  A    between atoms: C_12  and  O_13 
REMARK    9  A    between atoms: O_13  and  P_14 
REMARK   10  A    between atoms: P_14  and  O_15 
ROOT
HETATM    1  N           1     -27.626  -6.526 -17.180  0.00  0.00    -0.344 N 
HETATM    2  C           1     -26.437  -6.882 -16.602  0.00  0.00     0.251 C 
HETATM    3  O           1     -26.419  -7.322 -15.477  0.00  0.00    -0.271 OA
HETATM    4  H           1     -27.641  -6.157 -18.122  0.00  0.00     0.163 HD
ENDROOT
BRANCH   2   5
HETATM    5  C           1     -25.148  -6.724 -17.371  0.00  0.00     0.298 C 
BRANCH   5   6
HETATM    6  C           1     -25.440  -6.756 -18.866  0.00  0.00     0.224 C 
BRANCH   6   7
HETATM    7  O           1     -24.466  -7.526 -19.516  0.00  0.00    -0.287 OA
BRANCH   7   8
HETATM    8  P           1     -24.708  -7.793 -21.090  0.00  0.00     0.406 P 
HETATM    9  O           1     -26.015  -8.459 -21.282  0.00  0.00    -0.624 OA
HETATM   10  O           1     -24.698  -6.503 -21.816  0.00  0.00    -0.624 OA
BRANCH   8  11
HETATM   11  O           1     -23.532  -8.742 -21.663  0.00  0.00    -0.300 OA
HETATM   12  H           1     -22.743  -8.427 -21.255  0.00  0.00     0.223 HD
ENDBRANCH   8  11
ENDBRANCH   7   8
ENDBRANCH   6   7
ENDBRANCH   5   6
BRANCH   5  13
HETATM   13  N           1     -24.217  -7.846 -17.020  0.00  0.00    -0.064 N 
HETATM   14  H           1     -24.756  -8.621 -16.572  0.00  0.00     0.275 HD
HETATM   15  H           1     -23.756  -8.200 -17.889  0.00  0.00     0.275 HD
HETATM   16  H           1     -23.489  -7.500 -16.355  0.00  0.00     0.275 HD
ENDBRANCH   5  13
ENDBRANCH   2   5
BRANCH   1  17
HETATM   17  C           1     -28.865  -6.679 -16.441  0.00  0.00     0.194 C 
BRANCH  17  18
HETATM   18  C           1     -29.322  -5.317 -15.934  0.00  0.00     0.138 C 
BRANCH  18  19
HETATM   19  C           1     -28.857  -4.243 -16.886  0.00  0.00     0.217 C 
HETATM   20  O           1     -27.789  -3.705 -16.713  0.00  0.00    -0.274 OA
HETATM   21  N           1     -29.644  -3.877 -17.943  0.00  0.00    -0.370 N 
HETATM   22  H           1     -30.538  -4.327 -18.088  0.00  0.00     0.159 HD
HETATM   23  H           1     -29.331  -3.156 -18.582  0.00  0.00     0.159 HD
ENDBRANCH  18  19
ENDBRANCH  17  18
BRANCH  17  24
HETATM   24  C           1     -29.923  -7.260 -17.347  0.00  0.00     0.197 C 
HETATM   25  O           1     -29.660  -8.258 -18.053  0.00  0.00    -0.646 OA
HETATM   26  O           1     -31.060  -6.745 -17.391  0.00  0.00    -0.646 OA
ENDBRANCH  17  24
ENDBRANCH   1  17
TORSDOF 10
ENDMDL
MODEL 3
REMARK VINA RESULT:      -6.4      4.332      5.957
REMARK  10 active torsions:
REMARK  status: ('A' for Active; 'I' for Inactive)
REMARK       I    between atoms: C_2  and  N_3 
REMARK    1  A    between atoms: C_2  and  C_4 
REMARK    2  A    between atoms: C_4  and  C_5 
REMARK    3  A    between atoms: C_5  and  C_6 
REMARK    4  A    between atoms: C_5  and  N_9 
REMARK       I    between atoms: N_9  and  C_10 
REMARK    5  A    between atoms: C_10  and  C_11 
REMARK    6  A    between atoms: C_11  and  C_12 
REMARK    7  A    between atoms: C_11  and  N_18 
REMARK    8  A    between atoms: C_12  and  O_13 
REMARK    9  A    between atoms: O_13  and  P_14 
REMARK   10  A    between atoms: P_14  and  O_15 
ROOT
HETATM    1  N           1     -27.215  -7.083 -19.025  0.00  0.00    -0.344 N 
HETATM    2  C           1     -28.052  -6.203 -18.393  0.00  0.00     0.251 C 
HETATM    3  O           1     -28.508  -5.262 -18.998  0.00  0.00    -0.271 OA
HETATM    4  H           1     -26.832  -7.871 -18.517  0.00  0.00     0.163 HD
ENDROOT
BRANCH   2   5
HETATM    5  C           1     -28.405  -6.408 -16.940  0.00  0.00     0.298 C 
BRANCH   5   6
HETATM    6  C           1     -28.859  -5.085 -16.335  0.00  0.00     0.224 C 
BRANCH   6   7
HETATM    7  O           1     -30.114  -5.253 -15.734  0.00  0.00    -0.287 OA
BRANCH   7   8
HETATM    8  P           1     -31.393  -4.899 -16.653  0.00  0.00     0.406 P 
HETATM    9  O           1     -31.040  -3.812 -17.593  0.00  0.00    -0.624 OA
HETATM   10  O           1     -31.800  -6.101 -17.415  0.00  0.00    -0.624 OA
BRANCH   8  11
HETATM   11  O           1     -32.616  -4.419 -15.713  0.00  0.00    -0.300 OA
HETATM   12  H           1     -32.270  -3.703 -15.208  0.00  0.00     0.223 HD
ENDBRANCH   8  11
ENDBRANCH   7   8
ENDBRANCH   6   7
ENDBRANCH   5   6
BRANCH   5  13
HETATM   13  N           1     -27.200  -6.908 -16.200  0.00  0.00    -0.064 N 
HETATM   14  H           1     -26.416  -6.225 -16.306  0.00  0.00     0.275 HD
HETATM   15  H           1     -27.434  -7.014 -15.187  0.00  0.00     0.275 HD
HETATM   16  H           1     -26.910  -7.833 -16.590  0.00  0.00     0.275 HD
ENDBRANCH   5  13
ENDBRANCH   2   5
BRANCH   1  17
HETATM   17  C           1     -26.876  -6.886 -20.421  0.00  0.00     0.194 C 
BRANCH  17  18
HETATM   18  C           1     -25.468  -6.314 -20.524  0.00  0.00     0.138 C 
BRANCH  18  19
HETATM   19  C           1     -24.593  -6.934 -19.463  0.00  0.00     0.217 C 
HETATM   20  O           1     -24.653  -6.537 -18.324  0.00  0.00    -0.274 OA
HETATM   21  N           1     -23.732  -7.946 -19.790  0.00  0.00    -0.370 N 
HETATM   22  H           1     -23.682  -8.278 -20.745  0.00  0.00     0.159 HD
HETATM   23  H           1     -23.145  -8.362 -19.078  0.00  0.00     0.159 HD
ENDBRANCH  18  19
ENDBRANCH  17  18
BRANCH  17  24
HETATM   24  C           1     -26.937  -8.208 -21.145  0.00  0.00     0.197 C 
HETATM   25  O           1     -25.921  -8.650 -21.725  0.00  0.00    -0.646 OA
HETATM   26  O           1     -28.002  -8.862 -21.164  0.00  0.00    -0.646 OA
ENDBRANCH  17  24
ENDBRANCH   1  17
TORSDOF 10
ENDMDL
MODEL 4
REMARK VINA RESULT:      -6.0     11.833     14.772
REMARK  10 active torsions:
REMARK  status: ('A' for Active; 'I' for Inactive)
REMARK       I    between atoms: C_2  and  N_3 
REMARK    1  A    between atoms: C_2  and  C_4 
REMARK    2  A    between atoms: C_4  and  C_5 
REMARK    3  A    between atoms: C_5  and  C_6 
REMARK    4  A    between atoms: C_5  and  N_9 
REMARK       I    between atoms: N_9  and  C_10 
REMARK    5  A    between atoms: C_10  and  C_11 
REMARK    6  A    between atoms: C_11  and  C_12 
REMARK    7  A    between atoms: C_11  and  N_18 
REMARK    8  A    between atoms: C_12  and  O_13 
REMARK    9  A    between atoms: O_13  and  P_14 
REMARK   10  A    between atoms: P_14  and  O_15 
ROOT
HETATM    1  N           1     -22.775  -4.525  -8.713  0.00  0.00    -0.344 N 
HETATM    2  C           1     -21.983  -4.155  -7.659  0.00  0.00     0.251 C 
HETATM    3  O           1     -21.377  -3.110  -7.695  0.00  0.00    -0.271 OA
HETATM    4  H           1     -23.282  -5.400  -8.682  0.00  0.00     0.163 HD
ENDROOT
BRANCH   2   5
HETATM    5  C           1     -21.867  -5.052  -6.452  0.00  0.00     0.298 C 
BRANCH   5   6
HETATM    6  C           1     -21.042  -6.282  -6.810  0.00  0.00     0.224 C 
BRANCH   6   7
HETATM    7  O           1     -20.246  -6.647  -5.714  0.00  0.00    -0.287 OA
BRANCH   7   8
HETATM    8  P           1     -20.692  -7.985  -4.929  0.00  0.00     0.406 P 
HETATM    9  O           1     -21.824  -7.675  -4.027  0.00  0.00    -0.624 OA
HETATM   10  O           1     -21.107  -9.016  -5.907  0.00  0.00    -0.624 OA
BRANCH   8  11
HETATM   11  O           1     -19.448  -8.539  -4.059  0.00  0.00    -0.300 OA
HETATM   12  H           1     -18.680  -8.284  -4.541  0.00  0.00     0.223 HD
ENDBRANCH   8  11
ENDBRANCH   7   8
ENDBRANCH   6   7
ENDBRANCH   5   6
BRANCH   5  13
HETATM   13  N           1     -23.236  -5.480  -6.014  0.00  0.00    -0.064 N 
HETATM   14  H           1     -23.187  -6.438  -5.600  0.00  0.00     0.275 HD
HETATM   15  H           1     -23.598  -4.810  -5.298  0.00  0.00     0.275 HD
HETATM   16  H           1     -23.878  -5.490  -6.838  0.00  0.00     0.275 HD
ENDBRANCH   5  13
ENDBRANCH   2   5
BRANCH   1  17
HETATM   17  C           1     -22.887  -3.662  -9.873  0.00  0.00     0.194 C 
BRANCH  17  18
HETATM   18  C           1     -22.219  -4.330 -11.067  0.00  0.00     0.138 C 
BRANCH  18  19
HETATM   19  C           1     -20.736  -4.049 -11.038  0.00  0.00     0.217 C 
HETATM   20  O           1     -19.978  -4.861 -10.563  0.00  0.00    -0.274 OA
HETATM   21  N           1     -20.251  -2.877 -11.550  0.00  0.00    -0.370 N 
HETATM   22  H           1     -20.887  -2.197 -11.947  0.00  0.00     0.159 HD
HETATM   23  H           1     -19.257  -2.688 -11.530  0.00  0.00     0.159 HD
ENDBRANCH  18  19
ENDBRANCH  17  18
BRANCH  17  24
HETATM   24  C           1     -24.344  -3.420 -10.181  0.00  0.00     0.197 C 
HETATM   25  O           1     -25.084  -2.890  -9.324  0.00  0.00    -0.646 OA
HETATM   26  O           1     -24.810  -3.749 -11.293  0.00  0.00    -0.646 OA
ENDBRANCH  17  24
ENDBRANCH   1  17
TORSDOF 10
ENDMDL
MODEL 5
REMARK VINA RESULT:      -5.8     11.768     14.751
REMARK  10 active torsions:
REMARK  status: ('A' for Active; 'I' for Inactive)
REMARK       I    between atoms: C_2  and  N_3 
REMARK    1  A    between atoms: C_2  and  C_4 
REMARK    2  A    between atoms: C_4  and  C_5 
REMARK    3  A    between atoms: C_5  and  C_6 
REMARK    4  A    between atoms: C_5  and  N_9 
REMARK       I    between atoms: N_9  and  C_10 
REMARK    5  A    between atoms: C_10  and  C_11 
REMARK    6  A    between atoms: C_11  and  C_12 
REMARK    7  A    between atoms: C_11  and  N_18 
REMARK    8  A    between atoms: C_12  and  O_13 
REMARK    9  A    between atoms: O_13  and  P_14 
REMARK   10  A    between atoms: P_14  and  O_15 
ROOT
HETATM    1  N           1     -20.916  -4.453  -9.324  0.00  0.00    -0.344 N 
HETATM    2  C           1     -21.190  -5.060  -8.128  0.00  0.00     0.251 C 
HETATM    3  O           1     -22.320  -5.396  -7.865  0.00  0.00    -0.271 OA
HETATM    4  H           1     -19.969  -4.170  -9.544  0.00  0.00     0.163 HD
ENDROOT
BRANCH   2   5
HETATM    5  C           1     -20.079  -5.309  -7.138  0.00  0.00     0.298 C 
BRANCH   5   6
HETATM    6  C           1     -20.576  -5.008  -5.729  0.00  0.00     0.224 C 
BRANCH   6   7
HETATM    7  O           1     -20.379  -6.132  -4.914  0.00  0.00    -0.287 OA
BRANCH   7   8
HETATM    8  P           1     -21.715  -6.839  -4.348  0.00  0.00     0.406 P 
HETATM    9  O           1     -22.906  -6.119  -4.850  0.00  0.00    -0.624 OA
HETATM   10  O           1     -21.759  -8.247  -4.805  0.00  0.00    -0.624 OA
BRANCH   8  11
HETATM   11  O           1     -21.704  -6.799  -2.733  0.00  0.00    -0.300 OA
HETATM   12  H           1     -21.609  -7.698  -2.467  0.00  0.00     0.223 HD
ENDBRANCH   8  11
ENDBRANCH   7   8
ENDBRANCH   6   7
ENDBRANCH   5   6
BRANCH   5  13
HETATM   13  N           1     -18.916  -4.418  -7.457  0.00  0.00    -0.064 N 
HETATM   14  H           1     -19.114  -3.449  -7.119  0.00  0.00     0.275 HD
HETATM   15  H           1     -18.058  -4.782  -6.984  0.00  0.00     0.275 HD
HETATM   16  H           1     -18.763  -4.400  -8.490  0.00  0.00     0.275 HD
ENDBRANCH   5  13
ENDBRANCH   2   5
BRANCH   1  17
HETATM   17  C           1     -21.983  -4.213 -10.276  0.00  0.00     0.194 C 
BRANCH  17  18
HETATM   18  C           1     -23.025  -3.297  -9.648  0.00  0.00     0.138 C 
BRANCH  18  19
HETATM   19  C           1     -24.404  -3.727 -10.087  0.00  0.00     0.217 C 
HETATM   20  O           1     -24.957  -3.148 -10.992  0.00  0.00    -0.274 OA
HETATM   21  N           1     -25.028  -4.771  -9.460  0.00  0.00    -0.370 N 
HETATM   22  H           1     -24.564  -5.255  -8.702  0.00  0.00     0.159 HD
HETATM   23  H           1     -25.952  -5.059  -9.754  0.00  0.00     0.159 HD
ENDBRANCH  18  19
ENDBRANCH  17  18
BRANCH  17  24
HETATM   24  C           1     -21.417  -3.558 -11.512  0.00  0.00     0.197 C 
HETATM   25  O           1     -21.937  -3.776 -12.628  0.00  0.00    -0.646 OA
HETATM   26  O           1     -20.429  -2.799 -11.420  0.00  0.00    -0.646 OA
ENDBRANCH  17  24
ENDBRANCH   1  17
TORSDOF 10
ENDMDL
MODEL 6
REMARK VINA RESULT:      -5.8     13.331     15.713
REMARK  10 active torsions:
REMARK  status: ('A' for Active; 'I' for Inactive)
REMARK       I    between atoms: C_2  and  N_3 
REMARK    1  A    between atoms: C_2  and  C_4 
REMARK    2  A    between atoms: C_4  and  C_5 
REMARK    3  A    between atoms: C_5  and  C_6 
REMARK    4  A    between atoms: C_5  and  N_9 
REMARK       I    between atoms: N_9  and  C_10 
REMARK    5  A    between atoms: C_10  and  C_11 
REMARK    6  A    between atoms: C_11  and  C_12 
REMARK    7  A    between atoms: C_11  and  N_18 
REMARK    8  A    between atoms: C_12  and  O_13 
REMARK    9  A    between atoms: O_13  and  P_14 
REMARK   10  A    between atoms: P_14  and  O_15 
ROOT
HETATM    1  N           1     -20.753  -6.350  -6.039  0.00  0.00    -0.344 N 
HETATM    2  C           1     -20.470  -5.011  -6.084  0.00  0.00     0.251 C 
HETATM    3  O           1     -20.039  -4.451  -5.104  0.00  0.00    -0.271 OA
HETATM    4  H           1     -21.115  -6.819  -6.860  0.00  0.00     0.163 HD
ENDROOT
BRANCH   2   5
HETATM    5  C           1     -20.699  -4.234  -7.357  0.00  0.00     0.298 C 
BRANCH   5   6
HETATM    6  C           1     -21.686  -4.986  -8.241  0.00  0.00     0.224 C 
BRANCH   6   7
HETATM    7  O           1     -21.911  -4.255  -9.417  0.00  0.00    -0.287 OA
BRANCH   7   8
HETATM    8  P           1     -23.454  -4.074  -9.854  0.00  0.00     0.406 P 
HETATM    9  O           1     -23.563  -2.974 -10.838  0.00  0.00    -0.624 OA
HETATM   10  O           1     -23.946  -5.331 -10.461  0.00  0.00    -0.624 OA
BRANCH   8  11
HETATM   11  O           1     -24.346  -3.721  -8.554  0.00  0.00    -0.300 OA
HETATM   12  H           1     -24.908  -3.016  -8.826  0.00  0.00     0.223 HD
ENDBRANCH   8  11
ENDBRANCH   7   8
ENDBRANCH   6   7
ENDBRANCH   5   6
BRANCH   5  13
HETATM   13  N           1     -19.397  -4.076  -8.086  0.00  0.00    -0.064 N 
HETATM   14  H           1     -18.608  -4.337  -7.453  0.00  0.00     0.275 HD
HETATM   15  H           1     -19.391  -4.698  -8.925  0.00  0.00     0.275 HD
HETATM   16  H           1     -19.286  -3.082  -8.388  0.00  0.00     0.275 HD
ENDBRANCH   5  13
ENDBRANCH   2   5
BRANCH   1  17
HETATM   17  C           1     -20.533  -7.096  -4.815  0.00  0.00     0.194 C 
BRANCH  17  18
HETATM   18  C           1     -21.839  -7.187  -4.037  0.00  0.00     0.138 C 
BRANCH  18  19
HETATM   19  C           1     -21.594  -6.808  -2.597  0.00  0.00     0.217 C 
HETATM   20  O           1     -20.773  -7.408  -1.945  0.00  0.00    -0.274 OA
HETATM   21  N           1     -22.303  -5.784  -2.029  0.00  0.00    -0.370 N 
HETATM   22  H           1     -22.991  -5.281  -2.575  0.00  0.00     0.159 HD
HETATM   23  H           1     -22.139  -5.530  -1.063  0.00  0.00     0.159 HD
ENDBRANCH  18  19
ENDBRANCH  17  18
BRANCH  17  24
HETATM   24  C           1     -20.050  -8.486  -5.153  0.00  0.00     0.197 C 
HETATM   25  O           1     -18.935  -8.877  -4.744  0.00  0.00    -0.646 OA
HETATM   26  O           1     -20.765  -9.245  -5.842  0.00  0.00    -0.646 OA
ENDBRANCH  17  24
ENDBRANCH   1  17
TORSDOF 10
ENDMDL
MODEL 7
REMARK VINA RESULT:      -5.8     21.253     23.740
REMARK  10 active torsions:
REMARK  status: ('A' for Active; 'I' for Inactive)
REMARK       I    between atoms: C_2  and  N_3 
REMARK    1  A    between atoms: C_2  and  C_4 
REMARK    2  A    between atoms: C_4  and  C_5 
REMARK    3  A    between atoms: C_5  and  C_6 
REMARK    4  A    between atoms: C_5  and  N_9 
REMARK       I    between atoms: N_9  and  C_10 
REMARK    5  A    between atoms: C_10  and  C_11 
REMARK    6  A    between atoms: C_11  and  C_12 
REMARK    7  A    between atoms: C_11  and  N_18 
REMARK    8  A    between atoms: C_12  and  O_13 
REMARK    9  A    between atoms: O_13  and  P_14 
REMARK   10  A    between atoms: P_14  and  O_15 
ROOT
HETATM    1  N           1     -11.762   4.939 -21.007  0.00  0.00    -0.344 N 
HETATM    2  C           1     -11.448   5.340 -19.736  0.00  0.00     0.251 C 
HETATM    3  O           1     -12.190   5.081 -18.819  0.00  0.00    -0.271 OA
HETATM    4  H           1     -11.141   5.157 -21.775  0.00  0.00     0.163 HD
ENDROOT
BRANCH   2   5
HETATM    5  C           1     -10.174   6.107 -19.481  0.00  0.00     0.298 C 
BRANCH   5   6
HETATM    6  C           1      -9.580   6.563 -20.809  0.00  0.00     0.224 C 
BRANCH   6   7
HETATM    7  O           1     -10.349   7.614 -21.328  0.00  0.00    -0.287 OA
BRANCH   7   8
HETATM    8  P           1      -9.959   9.095 -20.818  0.00  0.00     0.406 P 
HETATM    9  O           1     -10.965  10.066 -21.306  0.00  0.00    -0.624 OA
HETATM   10  O           1      -9.930   9.115 -19.338  0.00  0.00    -0.624 OA
BRANCH   8  11
HETATM   11  O           1      -8.503   9.497 -21.390  0.00  0.00    -0.300 OA
HETATM   12  H           1      -8.547  10.427 -21.538  0.00  0.00     0.223 HD
ENDBRANCH   8  11
ENDBRANCH   7   8
ENDBRANCH   6   7
ENDBRANCH   5   6
BRANCH   5  13
HETATM   13  N           1      -9.191   5.222 -18.773  0.00  0.00    -0.064 N 
HETATM   14  H           1      -9.704   4.559 -18.150  0.00  0.00     0.275 HD
HETATM   15  H           1      -8.639   4.682 -19.477  0.00  0.00     0.275 HD
HETATM   16  H           1      -8.545   5.809 -18.199  0.00  0.00     0.275 HD
ENDBRANCH   5  13
ENDBRANCH   2   5
BRANCH   1  17
HETATM   17  C           1     -12.987   4.201 -21.251  0.00  0.00     0.194 C 
BRANCH  17  18
HETATM   18  C           1     -13.530   4.562 -22.627  0.00  0.00     0.138 C 
BRANCH  18  19
HETATM   19  C           1     -14.362   5.817 -22.528  0.00  0.00     0.217 C 
HETATM   20  O           1     -13.865   6.840 -22.121  0.00  0.00    -0.274 OA
HETATM   21  N           1     -15.678   5.797 -22.899  0.00  0.00    -0.370 N 
HETATM   22  H           1     -16.095   4.940 -23.240  0.00  0.00     0.159 HD
HETATM   23  H           1     -16.237   6.639 -22.832  0.00  0.00     0.159 HD
ENDBRANCH  18  19
ENDBRANCH  17  18
BRANCH  17  24
HETATM   24  C           1     -12.702   2.720 -21.194  0.00  0.00     0.197 C 
HETATM   25  O           1     -13.628   1.899 -21.373  0.00  0.00    -0.646 OA
HETATM   26  O           1     -11.541   2.316 -20.970  0.00  0.00    -0.646 OA
ENDBRANCH  17  24
ENDBRANCH   1  17
TORSDOF 10
ENDMDL
MODEL 8
REMARK VINA RESULT:      -5.7     21.179     23.873
REMARK  10 active torsions:
REMARK  status: ('A' for Active; 'I' for Inactive)
REMARK       I    between atoms: C_2  and  N_3 
REMARK    1  A    between atoms: C_2  and  C_4 
REMARK    2  A    between atoms: C_4  and  C_5 
REMARK    3  A    between atoms: C_5  and  C_6 
REMARK    4  A    between atoms: C_5  and  N_9 
REMARK       I    between atoms: N_9  and  C_10 
REMARK    5  A    between atoms: C_10  and  C_11 
REMARK    6  A    between atoms: C_11  and  C_12 
REMARK    7  A    between atoms: C_11  and  N_18 
REMARK    8  A    between atoms: C_12  and  O_13 
REMARK    9  A    between atoms: O_13  and  P_14 
REMARK   10  A    between atoms: P_14  and  O_15 
ROOT
HETATM    1  N           1     -11.736   6.495 -21.897  0.00  0.00    -0.344 N 
HETATM    2  C           1     -12.135   7.739 -22.308  0.00  0.00     0.251 C 
HETATM    3  O           1     -13.311   7.996 -22.405  0.00  0.00    -0.271 OA
HETATM    4  H           1     -10.751   6.280 -21.817  0.00  0.00     0.163 HD
ENDROOT
BRANCH   2   5
HETATM    5  C           1     -11.104   8.789 -22.640  0.00  0.00     0.298 C 
BRANCH   5   6
HETATM    6  C           1      -9.951   8.702 -21.648  0.00  0.00     0.224 C 
BRANCH   6   7
HETATM    7  O           1     -10.223   9.520 -20.542  0.00  0.00    -0.287 OA
BRANCH   7   8
HETATM    8  P           1     -10.585   8.754 -19.167  0.00  0.00     0.406 P 
HETATM    9  O           1      -9.863   9.390 -18.043  0.00  0.00    -0.624 OA
HETATM   10  O           1     -12.044   8.836 -18.927  0.00  0.00    -0.624 OA
BRANCH   8  11
HETATM   11  O           1     -10.145   7.204 -19.281  0.00  0.00    -0.300 OA
HETATM   12  H           1      -9.292   7.162 -18.883  0.00  0.00     0.223 HD
ENDBRANCH   8  11
ENDBRANCH   7   8
ENDBRANCH   6   7
ENDBRANCH   5   6
BRANCH   5  13
HETATM   13  N           1     -11.731  10.149 -22.557  0.00  0.00    -0.064 N 
HETATM   14  H           1     -12.066  10.438 -23.504  0.00  0.00     0.275 HD
HETATM   15  H           1     -12.540  10.119 -21.897  0.00  0.00     0.275 HD
HETATM   16  H           1     -11.025  10.838 -22.213  0.00  0.00     0.275 HD
ENDBRANCH   5  13
ENDBRANCH   2   5
BRANCH   1  17
HETATM   17  C           1     -12.728   5.486 -21.578  0.00  0.00     0.194 C 
BRANCH  17  18
HETATM   18  C           1     -12.181   4.109 -21.933  0.00  0.00     0.138 C 
BRANCH  18  19
HETATM   19  C           1     -13.312   3.110 -21.964  0.00  0.00     0.217 C 
HETATM   20  O           1     -13.340   2.205 -21.165  0.00  0.00    -0.274 OA
HETATM   21  N           1     -14.305   3.230 -22.898  0.00  0.00    -0.370 N 
HETATM   22  H           1     -14.281   3.988 -23.568  0.00  0.00     0.159 HD
HETATM   23  H           1     -15.063   2.560 -22.919  0.00  0.00     0.159 HD
ENDBRANCH  18  19
ENDBRANCH  17  18
BRANCH  17  24
HETATM   24  C           1     -13.042   5.538 -20.103  0.00  0.00     0.197 C 
HETATM   25  O           1     -12.169   5.219 -19.267  0.00  0.00    -0.646 OA
HETATM   26  O           1     -14.175   5.901 -19.718  0.00  0.00    -0.646 OA
ENDBRANCH  17  24
ENDBRANCH   1  17
TORSDOF 10
ENDMDL
MODEL 9
REMARK VINA RESULT:      -5.6     13.279     15.579
REMARK  10 active torsions:
REMARK  status: ('A' for Active; 'I' for Inactive)
REMARK       I    between atoms: C_2  and  N_3 
REMARK    1  A    between atoms: C_2  and  C_4 
REMARK    2  A    between atoms: C_4  and  C_5 
REMARK    3  A    between atoms: C_5  and  C_6 
REMARK    4  A    between atoms: C_5  and  N_9 
REMARK       I    between atoms: N_9  and  C_10 
REMARK    5  A    between atoms: C_10  and  C_11 
REMARK    6  A    between atoms: C_11  and  C_12 
REMARK    7  A    between atoms: C_11  and  N_18 
REMARK    8  A    between atoms: C_12  and  O_13 
REMARK    9  A    between atoms: O_13  and  P_14 
REMARK   10  A    between atoms: P_14  and  O_15 
ROOT
HETATM    1  N           1     -21.142  -6.401  -5.227  0.00  0.00    -0.344 N 
HETATM    2  C           1     -21.876  -5.535  -5.992  0.00  0.00     0.251 C 
HETATM    3  O           1     -23.080  -5.515  -5.897  0.00  0.00    -0.271 OA
HETATM    4  H           1     -20.133  -6.418  -5.307  0.00  0.00     0.163 HD
ENDROOT
BRANCH   2   5
HETATM    5  C           1     -21.180  -4.603  -6.954  0.00  0.00     0.298 C 
BRANCH   5   6
HETATM    6  C           1     -21.809  -4.737  -8.336  0.00  0.00     0.224 C 
BRANCH   6   7
HETATM    7  O           1     -22.853  -3.809  -8.466  0.00  0.00    -0.287 OA
BRANCH   7   8
HETATM    8  P           1     -23.607  -3.788  -9.893  0.00  0.00     0.406 P 
HETATM    9  O           1     -22.732  -3.152 -10.904  0.00  0.00    -0.624 OA
HETATM   10  O           1     -23.917  -5.174 -10.309  0.00  0.00    -0.624 OA
BRANCH   8  11
HETATM   11  O           1     -24.979  -2.946  -9.765  0.00  0.00    -0.300 OA
HETATM   12  H           1     -24.773  -2.227  -9.191  0.00  0.00     0.223 HD
ENDBRANCH   8  11
ENDBRANCH   7   8
ENDBRANCH   6   7
ENDBRANCH   5   6
BRANCH   5  13
HETATM   13  N           1     -19.726  -4.961  -7.031  0.00  0.00    -0.064 N 
HETATM   14  H           1     -19.499  -5.295  -7.995  0.00  0.00     0.275 HD
HETATM   15  H           1     -19.148  -4.119  -6.810  0.00  0.00     0.275 HD
HETATM   16  H           1     -19.516  -5.719  -6.343  0.00  0.00     0.275 HD
ENDBRANCH   5  13
ENDBRANCH   2   5
BRANCH   1  17
HETATM   17  C           1     -21.811  -7.296  -4.302  0.00  0.00     0.194 C 
BRANCH  17  18
HETATM   18  C           1     -21.228  -8.696  -4.441  0.00  0.00     0.138 C 
BRANCH  18  19
HETATM   19  C           1     -19.778  -8.600  -4.846  0.00  0.00     0.217 C 
HETATM   20  O           1     -19.485  -8.223  -5.956  0.00  0.00    -0.274 OA
HETATM   21  N           1     -18.794  -8.939  -3.957  0.00  0.00    -0.370 N 
HETATM   22  H           1     -19.039  -9.255  -3.028  0.00  0.00     0.159 HD
HETATM   23  H           1     -17.821  -8.874  -4.229  0.00  0.00     0.159 HD
ENDBRANCH  18  19
ENDBRANCH  17  18
BRANCH  17  24
HETATM   24  C           1     -21.609  -6.803  -2.890  0.00  0.00     0.197 C 
HETATM   25  O           1     -22.289  -5.847  -2.459  0.00  0.00    -0.646 OA
HETATM   26  O           1     -20.761  -7.351  -2.153  0.00  0.00    -0.646 OA
ENDBRANCH  17  24
ENDBRANCH   1  17
TORSDOF 10
ENDMDL
