MODEL 1
REMARK VINA RESULT:      -7.4      0.000      0.000
REMARK  6 active torsions:
REMARK  status: ('A' for Active; 'I' for Inactive)
REMARK       I    between atoms: C_2  and  N_3 
REMARK    1  A    between atoms: C_2  and  C_20 
REMARK    2  A    between atoms: N_3  and  C_11 
REMARK    3  A    between atoms: C_9  and  C_10 
REMARK    4  A    between atoms: C_10  and  C_11 
REMARK    5  A    between atoms: C_11  and  C_13 
REMARK    6  A    between atoms: C_20  and  N_22 
ROOT
HETATM    1  C           1     -21.798  -6.711  -5.755  0.00  0.00     0.190 C 
ENDROOT
BRANCH   1   2
HETATM    2  N           1     -22.361  -6.413  -4.452  0.00  0.00    -0.344 N 
HETATM    3  C           1     -21.585  -6.520  -3.330  0.00  0.00     0.248 C 
HETATM    4  O           1     -20.953  -5.567  -2.939  0.00  0.00    -0.271 OA
HETATM    5  H           1     -23.328  -6.125  -4.374  0.00  0.00     0.163 HD
BRANCH   3   6
HETATM    6  C           1     -21.518  -7.828  -2.581  0.00  0.00     0.270 C 
HETATM    7  C           1     -21.983  -7.617  -1.146  0.00  0.00     0.050 C 
BRANCH   6   8
HETATM    8  N           1     -20.105  -8.331  -2.579  0.00  0.00    -0.067 N 
HETATM    9  H           1     -19.479  -7.613  -2.151  0.00  0.00     0.275 HD
HETATM   10  H           1     -20.051  -9.215  -2.024  0.00  0.00     0.275 HD
HETATM   11  H           1     -19.800  -8.516  -3.562  0.00  0.00     0.275 HD
ENDBRANCH   6   8
ENDBRANCH   3   6
ENDBRANCH   1   2
BRANCH   1  12
HETATM   12  C           1     -21.042  -5.494  -6.272  0.00  0.00     0.077 C 
BRANCH  12  13
HETATM   13  C           1     -21.841  -4.832  -7.352  0.00  0.00    -0.028 A 
HETATM   14  C           1     -21.396  -4.555  -8.673  0.00  0.00    -0.002 A 
HETATM   15  C           1     -20.190  -4.773  -9.368  0.00  0.00     0.014 A 
HETATM   16  C           1     -22.453  -3.935  -9.342  0.00  0.00     0.042 A 
HETATM   17  C           1     -20.084  -4.364 -10.703  0.00  0.00     0.001 A 
HETATM   18  C           1     -21.157  -3.748 -11.344  0.00  0.00     0.002 A 
HETATM   19  C           1     -22.364  -3.521 -10.676  0.00  0.00     0.030 A 
HETATM   20  N           1     -23.497  -3.845  -8.449  0.00  0.00    -0.365 N 
HETATM   21  C           1     -23.138  -4.384  -7.242  0.00  0.00     0.096 A 
HETATM   22  H           1     -24.435  -3.422  -8.663  0.00  0.00     0.165 HD
ENDBRANCH  12  13
ENDBRANCH   1  12
BRANCH   1  23
HETATM   23  C           1     -20.849  -7.879  -5.636  0.00  0.00     0.197 C 
HETATM   24  O           1     -19.616  -7.680  -5.583  0.00  0.00    -0.646 OA
HETATM   25  O           1     -21.295  -9.046  -5.592  0.00  0.00    -0.646 OA
ENDBRANCH   1  23
TORSDOF 6
ENDMDL
MODEL 2
REMARK VINA RESULT:      -7.1      2.241      3.175
REMARK  6 active torsions:
REMARK  status: ('A' for Active; 'I' for Inactive)
REMARK       I    between atoms: C_2  and  N_3 
REMARK    1  A    between atoms: C_2  and  C_20 
REMARK    2  A    between atoms: N_3  and  C_11 
REMARK    3  A    between atoms: C_9  and  C_10 
REMARK    4  A    between atoms: C_10  and  C_11 
REMARK    5  A    between atoms: C_11  and  C_13 
REMARK    6  A    between atoms: C_20  and  N_22 
ROOT
HETATM    1  C           1     -21.324  -9.035  -3.979  0.00  0.00     0.190 C 
ENDROOT
BRANCH   1   2
HETATM    2  N           1     -20.954  -9.469  -2.645  0.00  0.00    -0.344 N 
HETATM    3  C           1     -21.740  -9.137  -1.574  0.00  0.00     0.248 C 
HETATM    4  O           1     -22.639  -9.869  -1.235  0.00  0.00    -0.271 OA
HETATM    5  H           1     -20.115 -10.017  -2.506  0.00  0.00     0.163 HD
BRANCH   3   6
HETATM    6  C           1     -21.484  -7.857  -0.819  0.00  0.00     0.270 C 
HETATM    7  C           1     -21.764  -8.076   0.663  0.00  0.00     0.050 C 
BRANCH   6   8
HETATM    8  N           1     -22.383  -6.778  -1.343  0.00  0.00    -0.067 N 
HETATM    9  H           1     -23.352  -7.154  -1.455  0.00  0.00     0.275 HD
HETATM   10  H           1     -22.397  -5.978  -0.670  0.00  0.00     0.275 HD
HETATM   11  H           1     -22.029  -6.449  -2.269  0.00  0.00     0.275 HD
ENDBRANCH   6   8
ENDBRANCH   3   6
ENDBRANCH   1   2
BRANCH   1  12
HETATM   12  C           1     -20.416  -7.890  -4.408  0.00  0.00     0.077 C 
BRANCH  12  13
HETATM   13  C           1     -21.229  -6.844  -5.107  0.00  0.00    -0.028 A 
HETATM   14  C           1     -20.748  -5.908  -6.062  0.00  0.00    -0.002 A 
HETATM   15  C           1     -19.486  -5.651  -6.634  0.00  0.00     0.014 A 
HETATM   16  C           1     -21.834  -5.125  -6.455  0.00  0.00     0.042 A 
HETATM   17  C           1     -19.357  -4.622  -7.574  0.00  0.00     0.001 A 
HETATM   18  C           1     -20.460  -3.857  -7.946  0.00  0.00     0.002 A 
HETATM   19  C           1     -21.722  -4.093  -7.394  0.00  0.00     0.030 A 
HETATM   20  N           1     -22.931  -5.579  -5.757  0.00  0.00    -0.365 N 
HETATM   21  C           1     -22.577  -6.618  -4.939  0.00  0.00     0.096 A 
HETATM   22  H           1     -23.901  -5.183  -5.840  0.00  0.00     0.165 HD
ENDBRANCH  12  13
ENDBRANCH   1  12
BRANCH   1  23
HETATM   23  C           1     -21.171 -10.187  -4.942  0.00  0.00     0.197 C 
HETATM   24  O           1     -21.852 -11.224  -4.789  0.00  0.00    -0.646 OA
HETATM   25  O           1     -20.363 -10.105  -5.892  0.00  0.00    -0.646 OA
ENDBRANCH   1  23
TORSDOF 6
ENDMDL
MODEL 3
REMARK VINA RESULT:      -7.0      2.086      3.567
REMARK  6 active torsions:
REMARK  status: ('A' for Active; 'I' for Inactive)
REMARK       I    between atoms: C_2  and  N_3 
REMARK    1  A    between atoms: C_2  and  C_20 
REMARK    2  A    between atoms: N_3  and  C_11 
REMARK    3  A    between atoms: C_9  and  C_10 
REMARK    4  A    between atoms: C_10  and  C_11 
REMARK    5  A    between atoms: C_11  and  C_13 
REMARK    6  A    between atoms: C_20  and  N_22 
ROOT
HETATM    1  C           1     -21.478  -7.356  -3.822  0.00  0.00     0.190 C 
ENDROOT
BRANCH   1   2
HETATM    2  N           1     -22.053  -8.684  -3.932  0.00  0.00    -0.344 N 
HETATM    3  C           1     -21.241  -9.766  -4.137  0.00  0.00     0.248 C 
HETATM    4  O           1     -20.789 -10.370  -3.193  0.00  0.00    -0.271 OA
HETATM    5  H           1     -23.054  -8.809  -3.856  0.00  0.00     0.163 HD
BRANCH   3   6
HETATM    6  C           1     -20.910 -10.206  -5.542  0.00  0.00     0.270 C 
HETATM    7  C           1     -21.391 -11.635  -5.754  0.00  0.00     0.050 C 
BRANCH   6   8
HETATM    8  N           1     -19.426 -10.143  -5.749  0.00  0.00    -0.067 N 
HETATM    9  H           1     -18.951 -10.778  -5.069  0.00  0.00     0.275 HD
HETATM   10  H           1     -19.197 -10.443  -6.723  0.00  0.00     0.275 HD
HETATM   11  H           1     -19.095  -9.163  -5.599  0.00  0.00     0.275 HD
ENDBRANCH   6   8
ENDBRANCH   3   6
ENDBRANCH   1   2
BRANCH   1  12
HETATM   12  C           1     -22.203  -6.411  -4.771  0.00  0.00     0.077 C 
BRANCH  12  13
HETATM   13  C           1     -21.326  -6.116  -5.949  0.00  0.00    -0.028 A 
HETATM   14  C           1     -21.662  -5.294  -7.059  0.00  0.00    -0.002 A 
HETATM   15  C           1     -22.800  -4.546  -7.417  0.00  0.00     0.014 A 
HETATM   16  C           1     -20.562  -5.293  -7.918  0.00  0.00     0.042 A 
HETATM   17  C           1     -22.799  -3.828  -8.618  0.00  0.00     0.001 A 
HETATM   18  C           1     -21.686  -3.847  -9.456  0.00  0.00     0.002 A 
HETATM   19  C           1     -20.544  -4.580  -9.122  0.00  0.00     0.030 A 
HETATM   20  N           1     -19.598  -6.090  -7.340  0.00  0.00    -0.365 N 
HETATM   21  C           1     -20.050  -6.592  -6.149  0.00  0.00     0.096 A 
HETATM   22  H           1     -18.652  -6.284  -7.755  0.00  0.00     0.165 HD
ENDBRANCH  12  13
ENDBRANCH   1  12
BRANCH   1  23
HETATM   23  C           1     -21.628  -6.860  -2.405  0.00  0.00     0.197 C 
HETATM   24  O           1     -22.414  -5.922  -2.152  0.00  0.00    -0.646 OA
HETATM   25  O           1     -20.966  -7.386  -1.485  0.00  0.00    -0.646 OA
ENDBRANCH   1  23
TORSDOF 6
ENDMDL
MODEL 4
REMARK VINA RESULT:      -6.9      2.408      7.412
REMARK  6 active torsions:
REMARK  status: ('A' for Active; 'I' for Inactive)
REMARK       I    between atoms: C_2  and  N_3 
REMARK    1  A    between atoms: C_2  and  C_20 
REMARK    2  A    between atoms: N_3  and  C_11 
REMARK    3  A    between atoms: C_9  and  C_10 
REMARK    4  A    between atoms: C_10  and  C_11 
REMARK    5  A    between atoms: C_11  and  C_13 
REMARK    6  A    between atoms: C_20  and  N_22 
ROOT
HETATM    1  C           1     -21.138  -7.575  -5.134  0.00  0.00     0.190 C 
ENDROOT
BRANCH   1   2
HETATM    2  N           1     -20.130  -6.936  -5.958  0.00  0.00    -0.344 N 
HETATM    3  C           1     -20.325  -5.659  -6.412  0.00  0.00     0.248 C 
HETATM    4  O           1     -19.948  -4.719  -5.753  0.00  0.00    -0.271 OA
HETATM    5  H           1     -19.283  -7.434  -6.198  0.00  0.00     0.163 HD
BRANCH   3   6
HETATM    6  C           1     -21.013  -5.426  -7.735  0.00  0.00     0.270 C 
HETATM    7  C           1     -20.041  -4.764  -8.703  0.00  0.00     0.050 C 
BRANCH   6   8
HETATM    8  N           1     -22.200  -4.533  -7.530  0.00  0.00    -0.067 N 
HETATM    9  H           1     -22.223  -3.805  -8.279  0.00  0.00     0.275 HD
HETATM   10  H           1     -23.076  -5.102  -7.572  0.00  0.00     0.275 HD
HETATM   11  H           1     -22.130  -4.069  -6.596  0.00  0.00     0.275 HD
ENDBRANCH   6   8
ENDBRANCH   3   6
ENDBRANCH   1   2
BRANCH   1  12
HETATM   12  C           1     -20.457  -8.407  -4.056  0.00  0.00     0.077 C 
BRANCH  12  13
HETATM   13  C           1     -21.355  -9.538  -3.656  0.00  0.00    -0.028 A 
HETATM   14  C           1     -22.020  -9.678  -2.407  0.00  0.00    -0.002 A 
HETATM   15  C           1     -22.074  -8.903  -1.232  0.00  0.00     0.014 A 
HETATM   16  C           1     -22.747 -10.868  -2.460  0.00  0.00     0.042 A 
HETATM   17  C           1     -22.850  -9.345  -0.155  0.00  0.00     0.001 A 
HETATM   18  C           1     -23.565 -10.538  -0.237  0.00  0.00     0.002 A 
HETATM   19  C           1     -23.529 -11.324  -1.392  0.00  0.00     0.030 A 
HETATM   20  N           1     -22.525 -11.421  -3.701  0.00  0.00    -0.365 N 
HETATM   21  C           1     -21.684 -10.625  -4.433  0.00  0.00     0.096 A 
HETATM   22  H           1     -22.940 -12.326  -4.038  0.00  0.00     0.165 HD
ENDBRANCH  12  13
ENDBRANCH   1  12
BRANCH   1  23
HETATM   23  C           1     -21.999  -6.519  -4.484  0.00  0.00     0.197 C 
HETATM   24  O           1     -21.650  -6.009  -3.398  0.00  0.00    -0.646 OA
HETATM   25  O           1     -23.061  -6.154  -5.032  0.00  0.00    -0.646 OA
ENDBRANCH   1  23
TORSDOF 6
ENDMDL
MODEL 5
REMARK VINA RESULT:      -6.9     11.104     13.784
REMARK  6 active torsions:
REMARK  status: ('A' for Active; 'I' for Inactive)
REMARK       I    between atoms: C_2  and  N_3 
REMARK    1  A    between atoms: C_2  and  C_20 
REMARK    2  A    between atoms: N_3  and  C_11 
REMARK    3  A    between atoms: C_9  and  C_10 
REMARK    4  A    between atoms: C_10  and  C_11 
REMARK    5  A    between atoms: C_11  and  C_13 
REMARK    6  A    between atoms: C_20  and  N_22 
ROOT
HETATM    1  C           1     -25.920  -6.453 -17.218  0.00  0.00     0.190 C 
ENDROOT
BRANCH   1   2
HETATM    2  N           1     -24.907  -7.334 -17.767  0.00  0.00    -0.344 N 
HETATM    3  C           1     -24.278  -7.008 -18.938  0.00  0.00     0.248 C 
HETATM    4  O           1     -23.264  -6.352 -18.918  0.00  0.00    -0.271 OA
HETATM    5  H           1     -24.665  -8.189 -17.283  0.00  0.00     0.163 HD
BRANCH   3   6
HETATM    6  C           1     -24.852  -7.469 -20.255  0.00  0.00     0.270 C 
HETATM    7  C           1     -23.769  -8.168 -21.065  0.00  0.00     0.050 C 
BRANCH   6   8
HETATM    8  N           1     -25.361  -6.283 -21.020  0.00  0.00    -0.067 N 
HETATM    9  H           1     -25.364  -5.442 -20.401  0.00  0.00     0.275 HD
HETATM   10  H           1     -24.740  -6.107 -21.843  0.00  0.00     0.275 HD
HETATM   11  H           1     -26.334  -6.474 -21.352  0.00  0.00     0.275 HD
ENDBRANCH   6   8
ENDBRANCH   3   6
ENDBRANCH   1   2
BRANCH   1  12
HETATM   12  C           1     -27.248  -6.709 -17.919  0.00  0.00     0.077 C 
BRANCH  12  13
HETATM   13  C           1     -28.213  -5.616 -17.575  0.00  0.00    -0.028 A 
HETATM   14  C           1     -29.622  -5.753 -17.447  0.00  0.00    -0.002 A 
HETATM   15  C           1     -30.519  -6.831 -17.579  0.00  0.00     0.014 A 
HETATM   16  C           1     -30.129  -4.495 -17.118  0.00  0.00     0.042 A 
HETATM   17  C           1     -31.887  -6.612 -17.379  0.00  0.00     0.001 A 
HETATM   18  C           1     -32.364  -5.344 -17.053  0.00  0.00     0.002 A 
HETATM   19  C           1     -31.493  -4.259 -16.915  0.00  0.00     0.030 A 
HETATM   20  N           1     -29.056  -3.633 -17.051  0.00  0.00    -0.365 N 
HETATM   21  C           1     -27.893  -4.301 -17.326  0.00  0.00     0.096 A 
HETATM   22  H           1     -29.122  -2.609 -16.823  0.00  0.00     0.165 HD
ENDBRANCH  12  13
ENDBRANCH   1  12
BRANCH   1  23
HETATM   23  C           1     -26.071  -6.721 -15.740  0.00  0.00     0.197 C 
HETATM   24  O           1     -26.948  -7.514 -15.336  0.00  0.00    -0.646 OA
HETATM   25  O           1     -25.320  -6.150 -14.921  0.00  0.00    -0.646 OA
ENDBRANCH   1  23
TORSDOF 6
ENDMDL
MODEL 6
REMARK VINA RESULT:      -6.8      3.697      6.573
REMARK  6 active torsions:
REMARK  status: ('A' for Active; 'I' for Inactive)
REMARK       I    between atoms: C_2  and  N_3 
REMARK    1  A    between atoms: C_2  and  C_20 
REMARK    2  A    between atoms: N_3  and  C_11 
REMARK    3  A    between atoms: C_9  and  C_10 
REMARK    4  A    between atoms: C_10  and  C_11 
REMARK    5  A    between atoms: C_11  and  C_13 
REMARK    6  A    between atoms: C_20  and  N_22 
ROOT
HETATM    1  C           1     -21.396  -8.744  -2.022  0.00  0.00     0.190 C 
ENDROOT
BRANCH   1   2
HETATM    2  N           1     -20.898  -7.415  -2.319  0.00  0.00    -0.344 N 
HETATM    3  C           1     -21.681  -6.529  -3.008  0.00  0.00     0.248 C 
HETATM    4  O           1     -22.424  -5.787  -2.410  0.00  0.00    -0.271 OA
HETATM    5  H           1     -19.971  -7.143  -2.017  0.00  0.00     0.163 HD
BRANCH   3   6
HETATM    6  C           1     -21.617  -6.478  -4.515  0.00  0.00     0.270 C 
HETATM    7  C           1     -20.646  -5.387  -4.946  0.00  0.00     0.050 C 
BRANCH   6   8
HETATM    8  N           1     -22.981  -6.179  -5.063  0.00  0.00    -0.067 N 
HETATM    9  H           1     -23.273  -5.221  -4.769  0.00  0.00     0.275 HD
HETATM   10  H           1     -22.955  -6.230  -6.107  0.00  0.00     0.275 HD
HETATM   11  H           1     -23.664  -6.880  -4.697  0.00  0.00     0.275 HD
ENDBRANCH   6   8
ENDBRANCH   3   6
ENDBRANCH   1   2
BRANCH   1  12
HETATM   12  C           1     -20.239  -9.734  -2.034  0.00  0.00     0.077 C 
BRANCH  12  13
HETATM   13  C           1     -19.669  -9.818  -3.417  0.00  0.00    -0.028 A 
HETATM   14  C           1     -18.289  -9.772  -3.758  0.00  0.00    -0.002 A 
HETATM   15  C           1     -17.099  -9.648  -3.017  0.00  0.00     0.014 A 
HETATM   16  C           1     -18.206  -9.884  -5.147  0.00  0.00     0.042 A 
HETATM   17  C           1     -15.870  -9.637  -3.688  0.00  0.00     0.001 A 
HETATM   18  C           1     -15.819  -9.750  -5.076  0.00  0.00     0.002 A 
HETATM   19  C           1     -16.987  -9.876  -5.834  0.00  0.00     0.030 A 
HETATM   20  N           1     -19.495  -9.993  -5.621  0.00  0.00    -0.365 N 
HETATM   21  C           1     -20.387  -9.954  -4.583  0.00  0.00     0.096 A 
HETATM   22  H           1     -19.755 -10.090  -6.634  0.00  0.00     0.165 HD
ENDBRANCH  12  13
ENDBRANCH   1  12
BRANCH   1  23
HETATM   23  C           1     -22.044  -8.744  -0.658  0.00  0.00     0.197 C 
HETATM   24  O           1     -23.043  -9.461  -0.441  0.00  0.00    -0.646 OA
HETATM   25  O           1     -21.580  -8.026   0.254  0.00  0.00    -0.646 OA
ENDBRANCH   1  23
TORSDOF 6
ENDMDL
MODEL 7
REMARK VINA RESULT:      -6.8      4.555      7.802
REMARK  6 active torsions:
REMARK  status: ('A' for Active; 'I' for Inactive)
REMARK       I    between atoms: C_2  and  N_3 
REMARK    1  A    between atoms: C_2  and  C_20 
REMARK    2  A    between atoms: N_3  and  C_11 
REMARK    3  A    between atoms: C_9  and  C_10 
REMARK    4  A    between atoms: C_10  and  C_11 
REMARK    5  A    between atoms: C_11  and  C_13 
REMARK    6  A    between atoms: C_20  and  N_22 
ROOT
HETATM    1  C           1     -21.203  -7.692  -3.015  0.00  0.00     0.190 C 
ENDROOT
BRANCH   1   2
HETATM    2  N           1     -20.000  -7.772  -3.820  0.00  0.00    -0.344 N 
HETATM    3  C           1     -19.971  -8.570  -4.932  0.00  0.00     0.248 C 
HETATM    4  O           1     -20.297  -8.123  -6.006  0.00  0.00    -0.271 OA
HETATM    5  H           1     -19.181  -7.237  -3.560  0.00  0.00     0.163 HD
BRANCH   3   6
HETATM    6  C           1     -19.535 -10.010  -4.815  0.00  0.00     0.270 C 
HETATM    7  C           1     -18.522 -10.144  -3.685  0.00  0.00     0.050 C 
BRANCH   6   8
HETATM    8  N           1     -18.906 -10.447  -6.105  0.00  0.00    -0.067 N 
HETATM    9  H           1     -18.244 -11.234  -5.921  0.00  0.00     0.275 HD
HETATM   10  H           1     -19.651 -10.766  -6.765  0.00  0.00     0.275 HD
HETATM   11  H           1     -18.385  -9.646  -6.527  0.00  0.00     0.275 HD
ENDBRANCH   6   8
ENDBRANCH   3   6
ENDBRANCH   1   2
BRANCH   1  12
HETATM   12  C           1     -20.841  -7.859  -1.545  0.00  0.00     0.077 C 
BRANCH  12  13
HETATM   13  C           1     -21.981  -8.506  -0.820  0.00  0.00    -0.028 A 
HETATM   14  C           1     -22.463  -9.827  -1.028  0.00  0.00    -0.002 A 
HETATM   15  C           1     -22.095 -10.883  -1.884  0.00  0.00     0.014 A 
HETATM   16  C           1     -23.528 -10.019  -0.146  0.00  0.00     0.042 A 
HETATM   17  C           1     -22.803 -12.089  -1.830  0.00  0.00     0.001 A 
HETATM   18  C           1     -23.862 -12.251  -0.939  0.00  0.00     0.002 A 
HETATM   19  C           1     -24.246 -11.218  -0.079  0.00  0.00     0.030 A 
HETATM   20  N           1     -23.677  -8.850   0.566  0.00  0.00    -0.365 N 
HETATM   21  C           1     -22.746  -7.928   0.167  0.00  0.00     0.096 A 
HETATM   22  H           1     -24.403  -8.689   1.310  0.00  0.00     0.165 HD
ENDBRANCH  12  13
ENDBRANCH   1  12
BRANCH   1  23
HETATM   23  C           1     -21.858  -6.347  -3.222  0.00  0.00     0.197 C 
HETATM   24  O           1     -22.269  -6.021  -4.356  0.00  0.00    -0.646 OA
HETATM   25  O           1     -21.987  -5.560  -2.260  0.00  0.00    -0.646 OA
ENDBRANCH   1  23
TORSDOF 6
ENDMDL
MODEL 8
REMARK VINA RESULT:      -6.8      2.862      7.191
REMARK  6 active torsions:
REMARK  status: ('A' for Active; 'I' for Inactive)
REMARK       I    between atoms: C_2  and  N_3 
REMARK    1  A    between atoms: C_2  and  C_20 
REMARK    2  A    between atoms: N_3  and  C_11 
REMARK    3  A    between atoms: C_9  and  C_10 
REMARK    4  A    between atoms: C_10  and  C_11 
REMARK    5  A    between atoms: C_11  and  C_13 
REMARK    6  A    between atoms: C_20  and  N_22 
ROOT
HETATM    1  C           1     -20.249  -7.961  -4.818  0.00  0.00     0.190 C 
ENDROOT
BRANCH   1   2
HETATM    2  N           1     -20.721  -7.494  -6.108  0.00  0.00    -0.344 N 
HETATM    3  C           1     -20.320  -6.274  -6.583  0.00  0.00     0.248 C 
HETATM    4  O           1     -19.321  -6.187  -7.257  0.00  0.00    -0.271 OA
HETATM    5  H           1     -21.347  -8.070  -6.656  0.00  0.00     0.163 HD
BRANCH   3   6
HETATM    6  C           1     -21.126  -5.039  -6.265  0.00  0.00     0.270 C 
HETATM    7  C           1     -22.610  -5.382  -6.278  0.00  0.00     0.050 C 
BRANCH   6   8
HETATM    8  N           1     -20.848  -3.982  -7.292  0.00  0.00    -0.067 N 
HETATM    9  H           1     -19.976  -3.466  -7.036  0.00  0.00     0.275 HD
HETATM   10  H           1     -20.723  -4.431  -8.228  0.00  0.00     0.275 HD
HETATM   11  H           1     -21.650  -3.314  -7.330  0.00  0.00     0.275 HD
ENDBRANCH   6   8
ENDBRANCH   3   6
ENDBRANCH   1   2
BRANCH   1  12
HETATM   12  C           1     -21.384  -8.668  -4.090  0.00  0.00     0.077 C 
BRANCH  12  13
HETATM   13  C           1     -21.654  -7.973  -2.791  0.00  0.00    -0.028 A 
HETATM   14  C           1     -21.473  -8.523  -1.492  0.00  0.00    -0.002 A 
HETATM   15  C           1     -21.030  -9.769  -1.008  0.00  0.00     0.014 A 
HETATM   16  C           1     -21.842  -7.538  -0.574  0.00  0.00     0.042 A 
HETATM   17  C           1     -20.971  -9.985   0.374  0.00  0.00     0.001 A 
HETATM   18  C           1     -21.345  -8.983   1.266  0.00  0.00     0.002 A 
HETATM   19  C           1     -21.789  -7.739   0.810  0.00  0.00     0.030 A 
HETATM   20  N           1     -22.230  -6.434  -1.300  0.00  0.00    -0.365 N 
HETATM   21  C           1     -22.120  -6.686  -2.642  0.00  0.00     0.096 A 
HETATM   22  H           1     -22.563  -5.529  -0.884  0.00  0.00     0.165 HD
ENDBRANCH  12  13
ENDBRANCH   1  12
BRANCH   1  23
HETATM   23  C           1     -19.104  -8.923  -5.021  0.00  0.00     0.197 C 
HETATM   24  O           1     -18.339  -9.194  -4.071  0.00  0.00    -0.646 OA
HETATM   25  O           1     -18.921  -9.449  -6.140  0.00  0.00    -0.646 OA
ENDBRANCH   1  23
TORSDOF 6
ENDMDL
MODEL 9
REMARK VINA RESULT:      -6.7      2.402      6.803
REMARK  6 active torsions:
REMARK  status: ('A' for Active; 'I' for Inactive)
REMARK       I    between atoms: C_2  and  N_3 
REMARK    1  A    between atoms: C_2  and  C_20 
REMARK    2  A    between atoms: N_3  and  C_11 
REMARK    3  A    between atoms: C_9  and  C_10 
REMARK    4  A    between atoms: C_10  and  C_11 
REMARK    5  A    between atoms: C_11  and  C_13 
REMARK    6  A    between atoms: C_20  and  N_22 
ROOT
HETATM    1  C           1     -19.945  -7.911  -5.176  0.00  0.00     0.190 C 
ENDROOT
BRANCH   1   2
HETATM    2  N           1     -19.821  -7.113  -6.381  0.00  0.00    -0.344 N 
HETATM    3  C           1     -20.238  -5.809  -6.385  0.00  0.00     0.248 C 
HETATM    4  O           1     -19.468  -4.927  -6.085  0.00  0.00    -0.271 OA
HETATM    5  H           1     -19.425  -7.520  -7.219  0.00  0.00     0.163 HD
BRANCH   3   6
HETATM    6  C           1     -21.659  -5.473  -6.763  0.00  0.00     0.270 C 
HETATM    7  C           1     -21.718  -4.051  -7.308  0.00  0.00     0.050 C 
BRANCH   6   8
HETATM    8  N           1     -22.537  -5.580  -5.552  0.00  0.00    -0.067 N 
HETATM    9  H           1     -21.993  -5.313  -4.701  0.00  0.00     0.275 HD
HETATM   10  H           1     -23.355  -4.938  -5.657  0.00  0.00     0.275 HD
HETATM   11  H           1     -22.876  -6.564  -5.454  0.00  0.00     0.275 HD
ENDBRANCH   6   8
ENDBRANCH   3   6
ENDBRANCH   1   2
BRANCH   1  12
HETATM   12  C           1     -21.287  -8.630  -5.181  0.00  0.00     0.077 C 
BRANCH  12  13
HETATM   13  C           1     -21.555  -9.196  -3.821  0.00  0.00    -0.028 A 
HETATM   14  C           1     -21.815  -8.451  -2.639  0.00  0.00    -0.002 A 
HETATM   15  C           1     -21.905  -7.076  -2.346  0.00  0.00     0.014 A 
HETATM   16  C           1     -22.008  -9.370  -1.606  0.00  0.00     0.042 A 
HETATM   17  C           1     -22.184  -6.670  -1.036  0.00  0.00     0.001 A 
HETATM   18  C           1     -22.372  -7.612  -0.026  0.00  0.00     0.002 A 
HETATM   19  C           1     -22.288  -8.982  -0.291  0.00  0.00     0.030 A 
HETATM   20  N           1     -21.869 -10.626  -2.154  0.00  0.00    -0.365 N 
HETATM   21  C           1     -21.595 -10.533  -3.493  0.00  0.00     0.096 A 
HETATM   22  H           1     -21.959 -11.527  -1.620  0.00  0.00     0.165 HD
ENDBRANCH  12  13
ENDBRANCH   1  12
BRANCH   1  23
HETATM   23  C           1     -18.830  -8.927  -5.130  0.00  0.00     0.197 C 
HETATM   24  O           1     -18.207  -9.123  -4.064  0.00  0.00    -0.646 OA
HETATM   25  O           1     -18.528  -9.571  -6.157  0.00  0.00    -0.646 OA
ENDBRANCH   1  23
TORSDOF 6
ENDMDL
