MODEL 1
REMARK VINA RESULT:      -5.8      0.000      0.000
REMARK  11 active torsions:
REMARK  status: ('A' for Active; 'I' for Inactive)
REMARK    1  A    between atoms: C_3  and  C_4 
REMARK    2  A    between atoms: C_3  and  C_21 
REMARK    3  A    between atoms: C_4  and  C_5 
REMARK    4  A    between atoms: C_4  and  N_14 
REMARK       I    between atoms: C_5  and  N_6 
REMARK    5  A    between atoms: N_6  and  C_22 
REMARK    6  A    between atoms: S_8  and  C_21 
REMARK    7  A    between atoms: C_9  and  C_22 
REMARK    8  A    between atoms: C_9  and  O_19 
REMARK    9  A    between atoms: C_15  and  C_22 
REMARK   10  A    between atoms: P_18  and  O_19 
REMARK   11  A    between atoms: P_18  and  O_23 
ROOT
HETATM    1  C           1     -21.171  -6.206  -5.996  0.00  0.00     0.249 C 
HETATM    2  N           1     -21.410  -4.969  -6.530  0.00  0.00    -0.343 N 
HETATM    3  H           1     -21.499  -4.164  -5.924  0.00  0.00     0.163 HD
HETATM    4  O           1     -21.064  -7.167  -6.719  0.00  0.00    -0.271 OA
ENDROOT
BRANCH   2   5
HETATM    5  C           1     -21.536  -4.813  -7.967  0.00  0.00     0.210 C 
BRANCH   5   6
HETATM    6  C           1     -22.588  -3.755  -8.272  0.00  0.00     0.217 C 
BRANCH   6   7
HETATM    7  O           1     -23.670  -4.351  -8.937  0.00  0.00    -0.287 OA
BRANCH   7   8
HETATM    8  P           1     -23.825  -3.984 -10.502  0.00  0.00     0.406 P 
HETATM    9  O           1     -25.101  -3.266 -10.717  0.00  0.00    -0.624 OA
HETATM   10  O           1     -23.819  -5.229 -11.303  0.00  0.00    -0.624 OA
BRANCH   8  11
HETATM   11  O           1     -22.595  -3.043 -10.959  0.00  0.00    -0.300 OA
HETATM   12  H           1     -22.638  -2.292 -10.393  0.00  0.00     0.223 HD
ENDBRANCH   8  11
ENDBRANCH   7   8
ENDBRANCH   6   7
ENDBRANCH   5   6
BRANCH   5  13
HETATM   13  C           1     -20.208  -4.384  -8.543  0.00  0.00     0.198 C 
HETATM   14  O           1     -20.120  -4.085  -9.753  0.00  0.00    -0.646 OA
HETATM   15  O           1     -19.197  -4.328  -7.810  0.00  0.00    -0.646 OA
ENDBRANCH   5  13
ENDBRANCH   2   5
BRANCH   1  16
HETATM   16  C           1     -21.040  -6.370  -4.501  0.00  0.00     0.275 C 
BRANCH  16  17
HETATM   17  C           1     -20.589  -7.788  -4.182  0.00  0.00     0.053 C 
BRANCH  17  18
HETATM   18  C           1     -21.481  -8.374  -3.096  0.00  0.00     0.076 C 
BRANCH  18  19
HETATM   19  S           1     -20.669  -8.197  -1.483  0.00  0.00    -0.173 SA
HETATM   20  C           1     -22.102  -7.503  -0.612  0.00  0.00     0.089 C 
ENDBRANCH  18  19
ENDBRANCH  17  18
ENDBRANCH  16  17
BRANCH  16  21
HETATM   21  N           1     -22.367  -6.109  -3.852  0.00  0.00    -0.066 N 
HETATM   22  H           1     -22.253  -5.389  -3.103  0.00  0.00     0.275 HD
HETATM   23  H           1     -22.730  -6.994  -3.432  0.00  0.00     0.275 HD
HETATM   24  H           1     -23.043  -5.761  -4.570  0.00  0.00     0.275 HD
ENDBRANCH  16  21
ENDBRANCH   1  16
TORSDOF 11
ENDMDL
MODEL 2
REMARK VINA RESULT:      -5.1      4.732      7.449
REMARK  11 active torsions:
REMARK  status: ('A' for Active; 'I' for Inactive)
REMARK    1  A    between atoms: C_3  and  C_4 
REMARK    2  A    between atoms: C_3  and  C_21 
REMARK    3  A    between atoms: C_4  and  C_5 
REMARK    4  A    between atoms: C_4  and  N_14 
REMARK       I    between atoms: C_5  and  N_6 
REMARK    5  A    between atoms: N_6  and  C_22 
REMARK    6  A    between atoms: S_8  and  C_21 
REMARK    7  A    between atoms: C_9  and  C_22 
REMARK    8  A    between atoms: C_9  and  O_19 
REMARK    9  A    between atoms: C_15  and  C_22 
REMARK   10  A    between atoms: P_18  and  O_19 
REMARK   11  A    between atoms: P_18  and  O_23 
ROOT
HETATM    1  C           1     -20.648  -4.802  -6.126  0.00  0.00     0.249 C 
HETATM    2  N           1     -21.456  -5.672  -5.446  0.00  0.00    -0.343 N 
HETATM    3  H           1     -22.448  -5.705  -5.645  0.00  0.00     0.163 HD
HETATM    4  O           1     -19.465  -4.763  -5.887  0.00  0.00    -0.271 OA
ENDROOT
BRANCH   2   5
HETATM    5  C           1     -20.891  -6.548  -4.437  0.00  0.00     0.210 C 
BRANCH   5   6
HETATM    6  C           1     -21.733  -6.474  -3.171  0.00  0.00     0.217 C 
BRANCH   6   7
HETATM    7  O           1     -20.984  -6.948  -2.084  0.00  0.00    -0.287 OA
BRANCH   7   8
HETATM    8  P           1     -21.785  -7.861  -1.018  0.00  0.00     0.406 P 
HETATM    9  O           1     -22.992  -7.138  -0.557  0.00  0.00    -0.624 OA
HETATM   10  O           1     -20.911  -8.149   0.140  0.00  0.00    -0.624 OA
BRANCH   8  11
HETATM   11  O           1     -22.225  -9.247  -1.721  0.00  0.00    -0.300 OA
HETATM   12  H           1     -22.636  -9.747  -1.038  0.00  0.00     0.223 HD
ENDBRANCH   8  11
ENDBRANCH   7   8
ENDBRANCH   6   7
ENDBRANCH   5   6
BRANCH   5  13
HETATM   13  C           1     -20.880  -7.966  -4.953  0.00  0.00     0.198 C 
HETATM   14  O           1     -19.938  -8.362  -5.674  0.00  0.00    -0.646 OA
HETATM   15  O           1     -21.813  -8.745  -4.661  0.00  0.00    -0.646 OA
ENDBRANCH   5  13
ENDBRANCH   2   5
BRANCH   1  16
HETATM   16  C           1     -21.236  -3.890  -7.175  0.00  0.00     0.275 C 
BRANCH  16  17
HETATM   17  C           1     -22.397  -4.591  -7.866  0.00  0.00     0.053 C 
BRANCH  17  18
HETATM   18  C           1     -22.230  -4.486  -9.376  0.00  0.00     0.076 C 
BRANCH  18  19
HETATM   19  S           1     -23.809  -4.862 -10.188  0.00  0.00    -0.173 SA
HETATM   20  C           1     -24.649  -3.325  -9.714  0.00  0.00     0.089 C 
ENDBRANCH  18  19
ENDBRANCH  17  18
ENDBRANCH  16  17
BRANCH  16  21
HETATM   21  N           1     -20.183  -3.550  -8.188  0.00  0.00    -0.066 N 
HETATM   22  H           1     -20.572  -2.868  -8.879  0.00  0.00     0.275 HD
HETATM   23  H           1     -19.885  -4.418  -8.686  0.00  0.00     0.275 HD
HETATM   24  H           1     -19.360  -3.125  -7.704  0.00  0.00     0.275 HD
ENDBRANCH  16  21
ENDBRANCH   1  16
TORSDOF 11
ENDMDL
MODEL 3
REMARK VINA RESULT:      -5.1      4.367      6.989
REMARK  11 active torsions:
REMARK  status: ('A' for Active; 'I' for Inactive)
REMARK    1  A    between atoms: C_3  and  C_4 
REMARK    2  A    between atoms: C_3  and  C_21 
REMARK    3  A    between atoms: C_4  and  C_5 
REMARK    4  A    between atoms: C_4  and  N_14 
REMARK       I    between atoms: C_5  and  N_6 
REMARK    5  A    between atoms: N_6  and  C_22 
REMARK    6  A    between atoms: S_8  and  C_21 
REMARK    7  A    between atoms: C_9  and  C_22 
REMARK    8  A    between atoms: C_9  and  O_19 
REMARK    9  A    between atoms: C_15  and  C_22 
REMARK   10  A    between atoms: P_18  and  O_19 
REMARK   11  A    between atoms: P_18  and  O_23 
ROOT
HETATM    1  C           1     -21.296  -6.019  -5.263  0.00  0.00     0.249 C 
HETATM    2  N           1     -20.827  -6.811  -4.249  0.00  0.00    -0.343 N 
HETATM    3  H           1     -19.831  -6.897  -4.093  0.00  0.00     0.163 HD
HETATM    4  O           1     -22.484  -5.916  -5.449  0.00  0.00    -0.271 OA
ENDROOT
BRANCH   2   5
HETATM    5  C           1     -21.760  -7.528  -3.401  0.00  0.00     0.210 C 
BRANCH   5   6
HETATM    6  C           1     -21.293  -8.969  -3.238  0.00  0.00     0.217 C 
BRANCH   6   7
HETATM    7  O           1     -21.735  -9.730  -4.330  0.00  0.00    -0.287 OA
BRANCH   7   8
HETATM    8  P           1     -20.580 -10.350  -5.273  0.00  0.00     0.406 P 
HETATM    9  O           1     -21.196 -10.959  -6.473  0.00  0.00    -0.624 OA
HETATM   10  O           1     -19.833 -11.385  -4.524  0.00  0.00    -0.624 OA
BRANCH   8  11
HETATM   11  O           1     -19.567  -9.176  -5.726  0.00  0.00    -0.300 OA
HETATM   12  H           1     -18.839  -9.239  -5.132  0.00  0.00     0.223 HD
ENDBRANCH   8  11
ENDBRANCH   7   8
ENDBRANCH   6   7
ENDBRANCH   5   6
BRANCH   5  13
HETATM   13  C           1     -21.821  -6.862  -2.048  0.00  0.00     0.198 C 
HETATM   14  O           1     -21.493  -7.498  -1.023  0.00  0.00    -0.646 OA
HETATM   15  O           1     -22.200  -5.675  -1.952  0.00  0.00    -0.646 OA
ENDBRANCH   5  13
ENDBRANCH   2   5
BRANCH   1  16
HETATM   16  C           1     -20.326  -5.272  -6.146  0.00  0.00     0.275 C 
BRANCH  16  17
HETATM   17  C           1     -21.068  -4.183  -6.909  0.00  0.00     0.053 C 
BRANCH  17  18
HETATM   18  C           1     -20.437  -4.003  -8.283  0.00  0.00     0.076 C 
BRANCH  18  19
HETATM   19  S           1     -21.718  -4.131  -9.561  0.00  0.00    -0.173 SA
HETATM   20  C           1     -23.134  -4.128  -8.425  0.00  0.00     0.089 C 
ENDBRANCH  18  19
ENDBRANCH  17  18
ENDBRANCH  16  17
BRANCH  16  21
HETATM   21  N           1     -19.701  -6.227  -7.120  0.00  0.00    -0.066 N 
HETATM   22  H           1     -18.723  -6.440  -6.819  0.00  0.00     0.275 HD
HETATM   23  H           1     -19.686  -5.795  -8.071  0.00  0.00     0.275 HD
HETATM   24  H           1     -20.258  -7.111  -7.146  0.00  0.00     0.275 HD
ENDBRANCH  16  21
ENDBRANCH   1  16
TORSDOF 11
ENDMDL
MODEL 4
REMARK VINA RESULT:      -5.0      4.285      7.181
REMARK  11 active torsions:
REMARK  status: ('A' for Active; 'I' for Inactive)
REMARK    1  A    between atoms: C_3  and  C_4 
REMARK    2  A    between atoms: C_3  and  C_21 
REMARK    3  A    between atoms: C_4  and  C_5 
REMARK    4  A    between atoms: C_4  and  N_14 
REMARK       I    between atoms: C_5  and  N_6 
REMARK    5  A    between atoms: N_6  and  C_22 
REMARK    6  A    between atoms: S_8  and  C_21 
REMARK    7  A    between atoms: C_9  and  C_22 
REMARK    8  A    between atoms: C_9  and  O_19 
REMARK    9  A    between atoms: C_15  and  C_22 
REMARK   10  A    between atoms: P_18  and  O_19 
REMARK   11  A    between atoms: P_18  and  O_23 
ROOT
HETATM    1  C           1     -21.830  -5.449  -6.081  0.00  0.00     0.249 C 
HETATM    2  N           1     -21.169  -6.364  -5.307  0.00  0.00    -0.343 N 
HETATM    3  H           1     -20.162  -6.447  -5.370  0.00  0.00     0.163 HD
HETATM    4  O           1     -23.031  -5.350  -6.006  0.00  0.00    -0.271 OA
ENDROOT
BRANCH   2   5
HETATM    5  C           1     -21.911  -7.215  -4.397  0.00  0.00     0.210 C 
BRANCH   5   6
HETATM    6  C           1     -21.506  -8.666  -4.615  0.00  0.00     0.217 C 
BRANCH   6   7
HETATM    7  O           1     -20.461  -8.725  -5.548  0.00  0.00    -0.287 OA
BRANCH   7   8
HETATM    8  P           1     -19.171  -9.594  -5.112  0.00  0.00     0.406 P 
HETATM    9  O           1     -18.129  -9.491  -6.159  0.00  0.00    -0.624 OA
HETATM   10  O           1     -19.564 -11.011  -4.946  0.00  0.00    -0.624 OA
BRANCH   8  11
HETATM   11  O           1     -18.588  -9.029  -3.716  0.00  0.00    -0.300 OA
HETATM   12  H           1     -17.652  -9.069  -3.808  0.00  0.00     0.223 HD
ENDBRANCH   8  11
ENDBRANCH   7   8
ENDBRANCH   6   7
ENDBRANCH   5   6
BRANCH   5  13
HETATM   13  C           1     -21.606  -6.814  -2.975  0.00  0.00     0.198 C 
HETATM   14  O           1     -22.242  -5.881  -2.439  0.00  0.00    -0.646 OA
HETATM   15  O           1     -20.718  -7.415  -2.332  0.00  0.00    -0.646 OA
ENDBRANCH   5  13
ENDBRANCH   2   5
BRANCH   1  16
HETATM   16  C           1     -21.058  -4.564  -7.029  0.00  0.00     0.275 C 
BRANCH  16  17
HETATM   17  C           1     -22.031  -3.786  -7.904  0.00  0.00     0.053 C 
BRANCH  17  18
HETATM   18  C           1     -22.147  -4.464  -9.263  0.00  0.00     0.076 C 
BRANCH  18  19
HETATM   19  S           1     -23.858  -4.345  -9.856  0.00  0.00    -0.173 SA
HETATM   20  C           1     -23.520  -4.896 -11.552  0.00  0.00     0.089 C 
ENDBRANCH  18  19
ENDBRANCH  17  18
ENDBRANCH  16  17
BRANCH  16  21
HETATM   21  N           1     -20.174  -5.411  -7.896  0.00  0.00    -0.066 N 
HETATM   22  H           1     -19.197  -5.389  -7.523  0.00  0.00     0.275 HD
HETATM   23  H           1     -20.182  -5.039  -8.872  0.00  0.00     0.275 HD
HETATM   24  H           1     -20.525  -6.395  -7.894  0.00  0.00     0.275 HD
ENDBRANCH  16  21
ENDBRANCH   1  16
TORSDOF 11
ENDMDL
MODEL 5
REMARK VINA RESULT:      -4.9      5.648      8.158
REMARK  11 active torsions:
REMARK  status: ('A' for Active; 'I' for Inactive)
REMARK    1  A    between atoms: C_3  and  C_4 
REMARK    2  A    between atoms: C_3  and  C_21 
REMARK    3  A    between atoms: C_4  and  C_5 
REMARK    4  A    between atoms: C_4  and  N_14 
REMARK       I    between atoms: C_5  and  N_6 
REMARK    5  A    between atoms: N_6  and  C_22 
REMARK    6  A    between atoms: S_8  and  C_21 
REMARK    7  A    between atoms: C_9  and  C_22 
REMARK    8  A    between atoms: C_9  and  O_19 
REMARK    9  A    between atoms: C_15  and  C_22 
REMARK   10  A    between atoms: P_18  and  O_19 
REMARK   11  A    between atoms: P_18  and  O_23 
ROOT
HETATM    1  C           1     -20.889  -8.235  -4.167  0.00  0.00     0.249 C 
HETATM    2  N           1     -21.656  -9.104  -3.440  0.00  0.00    -0.343 N 
HETATM    3  H           1     -22.653  -8.952  -3.357  0.00  0.00     0.163 HD
HETATM    4  O           1     -19.699  -8.417  -4.266  0.00  0.00    -0.271 OA
ENDROOT
BRANCH   2   5
HETATM    5  C           1     -21.040 -10.243  -2.787  0.00  0.00     0.210 C 
BRANCH   5   6
HETATM    6  C           1     -21.082 -10.046  -1.278  0.00  0.00     0.217 C 
BRANCH   6   7
HETATM    7  O           1     -22.343  -9.559  -0.905  0.00  0.00    -0.287 OA
BRANCH   7   8
HETATM    8  P           1     -22.346  -8.184  -0.056  0.00  0.00     0.406 P 
HETATM    9  O           1     -22.150  -7.038  -0.971  0.00  0.00    -0.624 OA
HETATM   10  O           1     -21.250  -8.215   0.938  0.00  0.00    -0.624 OA
BRANCH   8  11
HETATM   11  O           1     -23.761  -8.027   0.707  0.00  0.00    -0.300 OA
HETATM   12  H           1     -24.315  -8.690   0.333  0.00  0.00     0.223 HD
ENDBRANCH   8  11
ENDBRANCH   7   8
ENDBRANCH   6   7
ENDBRANCH   5   6
BRANCH   5  13
HETATM   13  C           1     -21.792 -11.499  -3.153  0.00  0.00     0.198 C 
HETATM   14  O           1     -22.582 -11.494  -4.122  0.00  0.00    -0.646 OA
HETATM   15  O           1     -21.625 -12.544  -2.488  0.00  0.00    -0.646 OA
ENDBRANCH   5  13
ENDBRANCH   2   5
BRANCH   1  16
HETATM   16  C           1     -21.529  -7.049  -4.847  0.00  0.00     0.275 C 
BRANCH  16  17
HETATM   17  C           1     -20.562  -6.463  -5.866  0.00  0.00     0.053 C 
BRANCH  17  18
HETATM   18  C           1     -20.427  -4.964  -5.636  0.00  0.00     0.076 C 
BRANCH  18  19
HETATM   19  S           1     -20.708  -4.083  -7.198  0.00  0.00    -0.173 SA
HETATM   20  C           1     -22.477  -4.467  -7.328  0.00  0.00     0.089 C 
ENDBRANCH  18  19
ENDBRANCH  17  18
ENDBRANCH  16  17
BRANCH  16  21
HETATM   21  N           1     -21.867  -6.008  -3.821  0.00  0.00    -0.066 N 
HETATM   22  H           1     -21.065  -5.899  -3.159  0.00  0.00     0.275 HD
HETATM   23  H           1     -22.718  -6.302  -3.292  0.00  0.00     0.275 HD
HETATM   24  H           1     -22.051  -5.096  -4.299  0.00  0.00     0.275 HD
ENDBRANCH  16  21
ENDBRANCH   1  16
TORSDOF 11
ENDMDL
MODEL 6
REMARK VINA RESULT:      -4.8      4.984      7.954
REMARK  11 active torsions:
REMARK  status: ('A' for Active; 'I' for Inactive)
REMARK    1  A    between atoms: C_3  and  C_4 
REMARK    2  A    between atoms: C_3  and  C_21 
REMARK    3  A    between atoms: C_4  and  C_5 
REMARK    4  A    between atoms: C_4  and  N_14 
REMARK       I    between atoms: C_5  and  N_6 
REMARK    5  A    between atoms: N_6  and  C_22 
REMARK    6  A    between atoms: S_8  and  C_21 
REMARK    7  A    between atoms: C_9  and  C_22 
REMARK    8  A    between atoms: C_9  and  O_19 
REMARK    9  A    between atoms: C_15  and  C_22 
REMARK   10  A    between atoms: P_18  and  O_19 
REMARK   11  A    between atoms: P_18  and  O_23 
ROOT
HETATM    1  C           1     -21.708  -5.986  -5.367  0.00  0.00     0.249 C 
HETATM    2  N           1     -21.048  -6.611  -4.344  0.00  0.00    -0.343 N 
HETATM    3  H           1     -20.037  -6.591  -4.305  0.00  0.00     0.163 HD
HETATM    4  O           1     -22.914  -6.012  -5.412  0.00  0.00    -0.271 OA
ENDROOT
BRANCH   2   5
HETATM    5  C           1     -21.799  -7.304  -3.314  0.00  0.00     0.210 C 
BRANCH   5   6
HETATM    6  C           1     -21.008  -8.516  -2.838  0.00  0.00     0.217 C 
BRANCH   6   7
HETATM    7  O           1     -21.855  -9.630  -2.771  0.00  0.00    -0.287 OA
BRANCH   7   8
HETATM    8  P           1     -21.964 -10.351  -1.330  0.00  0.00     0.406 P 
HETATM    9  O           1     -20.663 -10.255  -0.630  0.00  0.00    -0.624 OA
HETATM   10  O           1     -22.320 -11.775  -1.515  0.00  0.00    -0.624 OA
BRANCH   8  11
HETATM   11  O           1     -23.104  -9.621  -0.448  0.00  0.00    -0.300 OA
HETATM   12  H           1     -22.756  -8.767  -0.258  0.00  0.00     0.223 HD
ENDBRANCH   8  11
ENDBRANCH   7   8
ENDBRANCH   6   7
ENDBRANCH   5   6
BRANCH   5  13
HETATM   13  C           1     -22.038  -6.370  -2.153  0.00  0.00     0.198 C 
HETATM   14  O           1     -21.574  -5.210  -2.179  0.00  0.00    -0.646 OA
HETATM   15  O           1     -22.700  -6.757  -1.166  0.00  0.00    -0.646 OA
ENDBRANCH   5  13
ENDBRANCH   2   5
BRANCH   1  16
HETATM   16  C           1     -20.928  -5.265  -6.439  0.00  0.00     0.275 C 
BRANCH  16  17
HETATM   17  C           1     -21.889  -4.706  -7.479  0.00  0.00     0.053 C 
BRANCH  17  18
HETATM   18  C           1     -21.143  -4.466  -8.785  0.00  0.00     0.076 C 
BRANCH  18  19
HETATM   19  S           1     -22.336  -4.139 -10.113  0.00  0.00    -0.173 SA
HETATM   20  C           1     -23.792  -3.986  -9.040  0.00  0.00     0.089 C 
ENDBRANCH  18  19
ENDBRANCH  17  18
ENDBRANCH  16  17
BRANCH  16  21
HETATM   21  N           1     -19.981  -6.224  -7.098  0.00  0.00    -0.066 N 
HETATM   22  H           1     -19.124  -6.329  -6.509  0.00  0.00     0.275 HD
HETATM   23  H           1     -19.714  -5.859  -8.040  0.00  0.00     0.275 HD
HETATM   24  H           1     -20.446  -7.155  -7.204  0.00  0.00     0.275 HD
ENDBRANCH  16  21
ENDBRANCH   1  16
TORSDOF 11
ENDMDL
MODEL 7
REMARK VINA RESULT:      -4.7      5.384      8.325
REMARK  11 active torsions:
REMARK  status: ('A' for Active; 'I' for Inactive)
REMARK    1  A    between atoms: C_3  and  C_4 
REMARK    2  A    between atoms: C_3  and  C_21 
REMARK    3  A    between atoms: C_4  and  C_5 
REMARK    4  A    between atoms: C_4  and  N_14 
REMARK       I    between atoms: C_5  and  N_6 
REMARK    5  A    between atoms: N_6  and  C_22 
REMARK    6  A    between atoms: S_8  and  C_21 
REMARK    7  A    between atoms: C_9  and  C_22 
REMARK    8  A    between atoms: C_9  and  O_19 
REMARK    9  A    between atoms: C_15  and  C_22 
REMARK   10  A    between atoms: P_18  and  O_19 
REMARK   11  A    between atoms: P_18  and  O_23 
ROOT
HETATM    1  C           1     -20.974  -7.744  -4.383  0.00  0.00     0.249 C 
HETATM    2  N           1     -20.805  -7.688  -3.026  0.00  0.00    -0.343 N 
HETATM    3  H           1     -19.922  -7.381  -2.638  0.00  0.00     0.163 HD
HETATM    4  O           1     -22.027  -8.110  -4.847  0.00  0.00    -0.271 OA
ENDROOT
BRANCH   2   5
HETATM    5  C           1     -21.891  -8.071  -2.145  0.00  0.00     0.210 C 
BRANCH   5   6
HETATM    6  C           1     -21.413  -9.159  -1.193  0.00  0.00     0.217 C 
BRANCH   6   7
HETATM    7  O           1     -22.026 -10.375  -1.527  0.00  0.00    -0.287 OA
BRANCH   7   8
HETATM    8  P           1     -23.113 -10.933  -0.471  0.00  0.00     0.406 P 
HETATM    9  O           1     -22.429 -11.745   0.560  0.00  0.00    -0.624 OA
HETATM   10  O           1     -24.106 -11.770  -1.180  0.00  0.00    -0.624 OA
BRANCH   8  11
HETATM   11  O           1     -23.864  -9.689   0.236  0.00  0.00    -0.300 OA
HETATM   12  H           1     -23.309  -9.447   0.957  0.00  0.00     0.223 HD
ENDBRANCH   8  11
ENDBRANCH   7   8
ENDBRANCH   6   7
ENDBRANCH   5   6
BRANCH   5  13
HETATM   13  C           1     -22.340  -6.869  -1.351  0.00  0.00     0.198 C 
HETATM   14  O           1     -22.851  -7.022  -0.221  0.00  0.00    -0.646 OA
HETATM   15  O           1     -22.201  -5.719  -1.824  0.00  0.00    -0.646 OA
ENDBRANCH   5  13
ENDBRANCH   2   5
BRANCH   1  16
HETATM   16  C           1     -19.844  -7.346  -5.302  0.00  0.00     0.275 C 
BRANCH  16  17
HETATM   17  C           1     -20.376  -6.431  -6.396  0.00  0.00     0.053 C 
BRANCH  17  18
HETATM   18  C           1     -20.351  -4.988  -5.910  0.00  0.00     0.076 C 
BRANCH  18  19
HETATM   19  S           1     -21.102  -3.913  -7.164  0.00  0.00    -0.173 SA
HETATM   20  C           1     -19.854  -4.202  -8.450  0.00  0.00     0.089 C 
ENDBRANCH  18  19
ENDBRANCH  17  18
ENDBRANCH  16  17
BRANCH  16  21
HETATM   21  N           1     -19.249  -8.575  -5.923  0.00  0.00    -0.066 N 
HETATM   22  H           1     -19.481  -9.409  -5.336  0.00  0.00     0.275 HD
HETATM   23  H           1     -18.212  -8.469  -5.982  0.00  0.00     0.275 HD
HETATM   24  H           1     -19.642  -8.704  -6.883  0.00  0.00     0.275 HD
ENDBRANCH  16  21
ENDBRANCH   1  16
TORSDOF 11
ENDMDL
MODEL 8
REMARK VINA RESULT:      -4.7      4.870      7.839
REMARK  11 active torsions:
REMARK  status: ('A' for Active; 'I' for Inactive)
REMARK    1  A    between atoms: C_3  and  C_4 
REMARK    2  A    between atoms: C_3  and  C_21 
REMARK    3  A    between atoms: C_4  and  C_5 
REMARK    4  A    between atoms: C_4  and  N_14 
REMARK       I    between atoms: C_5  and  N_6 
REMARK    5  A    between atoms: N_6  and  C_22 
REMARK    6  A    between atoms: S_8  and  C_21 
REMARK    7  A    between atoms: C_9  and  C_22 
REMARK    8  A    between atoms: C_9  and  O_19 
REMARK    9  A    between atoms: C_15  and  C_22 
REMARK   10  A    between atoms: P_18  and  O_19 
REMARK   11  A    between atoms: P_18  and  O_23 
ROOT
HETATM    1  C           1     -21.299  -6.769  -4.750  0.00  0.00     0.249 C 
HETATM    2  N           1     -20.798  -7.079  -3.514  0.00  0.00    -0.343 N 
HETATM    3  H           1     -19.894  -6.723  -3.230  0.00  0.00     0.163 HD
HETATM    4  O           1     -22.378  -7.194  -5.088  0.00  0.00    -0.271 OA
ENDROOT
BRANCH   2   5
HETATM    5  C           1     -21.562  -7.920  -2.613  0.00  0.00     0.210 C 
BRANCH   5   6
HETATM    6  C           1     -20.704  -9.096  -2.166  0.00  0.00     0.217 C 
BRANCH   6   7
HETATM    7  O           1     -19.352  -8.730  -2.205  0.00  0.00    -0.287 OA
BRANCH   7   8
HETATM    8  P           1     -18.418  -9.577  -3.216  0.00  0.00     0.406 P 
HETATM    9  O           1     -18.750 -11.015  -3.106  0.00  0.00    -0.624 OA
HETATM   10  O           1     -16.996  -9.371  -2.864  0.00  0.00    -0.624 OA
BRANCH   8  11
HETATM   11  O           1     -18.677  -9.080  -4.731  0.00  0.00    -0.300 OA
HETATM   12  H           1     -18.166  -9.660  -5.268  0.00  0.00     0.223 HD
ENDBRANCH   8  11
ENDBRANCH   7   8
ENDBRANCH   6   7
ENDBRANCH   5   6
BRANCH   5  13
HETATM   13  C           1     -21.978  -7.113  -1.407  0.00  0.00     0.198 C 
HETATM   14  O           1     -22.426  -5.956  -1.554  0.00  0.00    -0.646 OA
HETATM   15  O           1     -21.875  -7.603  -0.261  0.00  0.00    -0.646 OA
ENDBRANCH   5  13
ENDBRANCH   2   5
BRANCH   1  16
HETATM   16  C           1     -20.505  -5.895  -5.689  0.00  0.00     0.275 C 
BRANCH  16  17
HETATM   17  C           1     -21.451  -4.982  -6.457  0.00  0.00     0.053 C 
BRANCH  17  18
HETATM   18  C           1     -21.318  -5.253  -7.950  0.00  0.00     0.076 C 
BRANCH  18  19
HETATM   19  S           1     -22.221  -3.982  -8.879  0.00  0.00    -0.173 SA
HETATM   20  C           1     -21.109  -3.954 -10.313  0.00  0.00     0.089 C 
ENDBRANCH  18  19
ENDBRANCH  17  18
ENDBRANCH  16  17
BRANCH  16  21
HETATM   21  N           1     -19.748  -6.758  -6.655  0.00  0.00    -0.066 N 
HETATM   22  H           1     -20.282  -6.828  -7.551  0.00  0.00     0.275 HD
HETATM   23  H           1     -19.625  -7.712  -6.248  0.00  0.00     0.275 HD
HETATM   24  H           1     -18.811  -6.334  -6.840  0.00  0.00     0.275 HD
ENDBRANCH  16  21
ENDBRANCH   1  16
TORSDOF 11
ENDMDL
MODEL 9
REMARK VINA RESULT:      -4.6      2.329      3.651
REMARK  11 active torsions:
REMARK  status: ('A' for Active; 'I' for Inactive)
REMARK    1  A    between atoms: C_3  and  C_4 
REMARK    2  A    between atoms: C_3  and  C_21 
REMARK    3  A    between atoms: C_4  and  C_5 
REMARK    4  A    between atoms: C_4  and  N_14 
REMARK       I    between atoms: C_5  and  N_6 
REMARK    5  A    between atoms: N_6  and  C_22 
REMARK    6  A    between atoms: S_8  and  C_21 
REMARK    7  A    between atoms: C_9  and  C_22 
REMARK    8  A    between atoms: C_9  and  O_19 
REMARK    9  A    between atoms: C_15  and  C_22 
REMARK   10  A    between atoms: P_18  and  O_19 
REMARK   11  A    between atoms: P_18  and  O_23 
ROOT
HETATM    1  C           1     -21.863  -4.638  -7.298  0.00  0.00     0.249 C 
HETATM    2  N           1     -22.884  -4.798  -8.195  0.00  0.00    -0.343 N 
HETATM    3  H           1     -23.151  -5.726  -8.498  0.00  0.00     0.163 HD
HETATM    4  O           1     -21.545  -3.530  -6.937  0.00  0.00    -0.271 OA
ENDROOT
BRANCH   2   5
HETATM    5  C           1     -23.584  -3.638  -8.712  0.00  0.00     0.210 C 
BRANCH   5   6
HETATM    6  C           1     -22.607  -2.756  -9.478  0.00  0.00     0.217 C 
BRANCH   6   7
HETATM    7  O           1     -22.683  -3.054 -10.846  0.00  0.00    -0.287 OA
BRANCH   7   8
HETATM    8  P           1     -21.320  -3.584 -11.532  0.00  0.00     0.406 P 
HETATM    9  O           1     -20.911  -4.857 -10.897  0.00  0.00    -0.624 OA
HETATM   10  O           1     -20.252  -2.577 -11.349  0.00  0.00    -0.624 OA
BRANCH   8  11
HETATM   11  O           1     -21.570  -3.826 -13.109  0.00  0.00    -0.300 OA
HETATM   12  H           1     -22.480  -3.628 -13.245  0.00  0.00     0.223 HD
ENDBRANCH   8  11
ENDBRANCH   7   8
ENDBRANCH   6   7
ENDBRANCH   5   6
BRANCH   5  13
HETATM   13  C           1     -24.688  -4.088  -9.636  0.00  0.00     0.198 C 
HETATM   14  O           1     -24.662  -5.237 -10.127  0.00  0.00    -0.646 OA
HETATM   15  O           1     -25.630  -3.312  -9.910  0.00  0.00    -0.646 OA
ENDBRANCH   5  13
ENDBRANCH   2   5
BRANCH   1  16
HETATM   16  C           1     -21.134  -5.845  -6.760  0.00  0.00     0.275 C 
BRANCH  16  17
HETATM   17  C           1     -20.689  -5.575  -5.329  0.00  0.00     0.053 C 
BRANCH  17  18
HETATM   18  C           1     -21.501  -6.437  -4.372  0.00  0.00     0.076 C 
BRANCH  18  19
HETATM   19  S           1     -21.470  -8.162  -4.934  0.00  0.00    -0.173 SA
HETATM   20  C           1     -19.734  -8.479  -4.510  0.00  0.00     0.089 C 
ENDBRANCH  18  19
ENDBRANCH  17  18
ENDBRANCH  16  17
BRANCH  16  21
HETATM   21  N           1     -19.933  -6.125  -7.613  0.00  0.00    -0.066 N 
HETATM   22  H           1     -19.423  -6.955  -7.235  0.00  0.00     0.275 HD
HETATM   23  H           1     -19.299  -5.294  -7.606  0.00  0.00     0.275 HD
HETATM   24  H           1     -20.240  -6.321  -8.593  0.00  0.00     0.275 HD
ENDBRANCH  16  21
ENDBRANCH   1  16
TORSDOF 11
ENDMDL
