MODEL 1
REMARK VINA RESULT:      -6.9      0.000      0.000
REMARK  10 active torsions:
REMARK  status: ('A' for Active; 'I' for Inactive)
REMARK    1  A    between atoms: C_7  and  C_19 
REMARK    2  A    between atoms: C_8  and  O_12 
REMARK    3  A    between atoms: N_9  and  C_18 
REMARK       I    between atoms: N_9  and  C_23 
REMARK    4  A    between atoms: C_10  and  C_20 
REMARK    5  A    between atoms: C_10  and  S_22 
REMARK    6  A    between atoms: C_15  and  C_23 
REMARK    7  A    between atoms: C_15  and  C_20 
REMARK    8  A    between atoms: C_15  and  N_26 
REMARK    9  A    between atoms: C_17  and  C_18 
REMARK   10  A    between atoms: C_18  and  C_19 
ROOT
HETATM    1  N           1     -21.061  -5.167  -5.201  0.00  0.00    -0.344 N 
HETATM    2  H           1     -20.891  -4.282  -4.741  0.00  0.00     0.163 HD
HETATM    3  C           1     -21.281  -6.294  -4.457  0.00  0.00     0.249 C 
HETATM    4  O           1     -21.483  -7.351  -5.006  0.00  0.00    -0.271 OA
ENDROOT
BRANCH   1   5
HETATM    5  C           1     -21.071  -5.240  -6.649  0.00  0.00     0.189 C 
BRANCH   5   6
HETATM    6  C           1     -19.675  -5.523  -7.148  0.00  0.00     0.197 C 
HETATM    7  O           1     -19.329  -6.696  -7.409  0.00  0.00    -0.646 OA
HETATM    8  O           1     -18.864  -4.584  -7.300  0.00  0.00    -0.646 OA
ENDBRANCH   5   6
BRANCH   5   9
HETATM    9  C           1     -21.557  -3.914  -7.221  0.00  0.00     0.074 C 
BRANCH   9  10
HETATM   10  C           1     -22.115  -4.136  -8.592  0.00  0.00    -0.056 A 
HETATM   11  C           1     -21.271  -4.108  -9.701  0.00  0.00     0.010 A 
HETATM   12  C           1     -21.790  -4.314 -10.980  0.00  0.00     0.037 A 
HETATM   13  C           1     -23.156  -4.547 -11.148  0.00  0.00     0.065 A 
HETATM   14  C           1     -24.000  -4.574 -10.038  0.00  0.00     0.037 A 
HETATM   15  C           1     -23.480  -4.368  -8.759  0.00  0.00     0.010 A 
BRANCH  13  16
HETATM   16  O           1     -23.661  -4.747 -12.388  0.00  0.00    -0.361 OA
HETATM   17  H           1     -23.112  -4.251 -13.019  0.00  0.00     0.217 HD
ENDBRANCH  13  16
ENDBRANCH   9  10
ENDBRANCH   5   9
ENDBRANCH   1   5
BRANCH   3  18
HETATM   18  C           1     -21.270  -6.218  -2.950  0.00  0.00     0.275 C 
BRANCH  18  19
HETATM   19  C           1     -20.846  -7.563  -2.376  0.00  0.00     0.053 C 
BRANCH  19  20
HETATM   20  C           1     -21.555  -7.796  -1.048  0.00  0.00     0.076 C 
BRANCH  20  21
HETATM   21  S           1     -21.935  -9.560  -0.865  0.00  0.00    -0.173 SA
HETATM   22  C           1     -21.862  -9.965  -2.633  0.00  0.00     0.089 C 
ENDBRANCH  20  21
ENDBRANCH  19  20
ENDBRANCH  18  19
BRANCH  18  23
HETATM   23  N           1     -22.644  -5.875  -2.458  0.00  0.00    -0.066 N 
HETATM   24  H           1     -22.879  -4.896  -2.737  0.00  0.00     0.275 HD
HETATM   25  H           1     -23.338  -6.533  -2.877  0.00  0.00     0.275 HD
HETATM   26  H           1     -22.671  -5.956  -1.416  0.00  0.00     0.275 HD
ENDBRANCH  18  23
ENDBRANCH   3  18
TORSDOF 10
ENDMDL
MODEL 2
REMARK VINA RESULT:      -6.7     11.888     14.625
REMARK  10 active torsions:
REMARK  status: ('A' for Active; 'I' for Inactive)
REMARK    1  A    between atoms: C_7  and  C_19 
REMARK    2  A    between atoms: C_8  and  O_12 
REMARK    3  A    between atoms: N_9  and  C_18 
REMARK       I    between atoms: N_9  and  C_23 
REMARK    4  A    between atoms: C_10  and  C_20 
REMARK    5  A    between atoms: C_10  and  S_22 
REMARK    6  A    between atoms: C_15  and  C_23 
REMARK    7  A    between atoms: C_15  and  C_20 
REMARK    8  A    between atoms: C_15  and  N_26 
REMARK    9  A    between atoms: C_17  and  C_18 
REMARK   10  A    between atoms: C_18  and  C_19 
ROOT
HETATM    1  N           1     -26.009  -6.740 -18.520  0.00  0.00    -0.344 N 
HETATM    2  H           1     -25.204  -7.323 -18.329  0.00  0.00     0.163 HD
HETATM    3  C           1     -26.363  -6.464 -19.812  0.00  0.00     0.249 C 
HETATM    4  O           1     -27.323  -5.768 -20.040  0.00  0.00    -0.271 OA
ENDROOT
BRANCH   1   5
HETATM    5  C           1     -26.787  -6.199 -17.422  0.00  0.00     0.189 C 
BRANCH   5   6
HETATM    6  C           1     -26.052  -6.429 -16.124  0.00  0.00     0.197 C 
HETATM    7  O           1     -26.388  -7.371 -15.373  0.00  0.00    -0.646 OA
HETATM    8  O           1     -25.107  -5.678 -15.800  0.00  0.00    -0.646 OA
ENDBRANCH   5   6
BRANCH   5   9
HETATM    9  C           1     -28.142  -6.894 -17.370  0.00  0.00     0.074 C 
BRANCH   9  10
HETATM   10  C           1     -29.230  -5.867 -17.360  0.00  0.00    -0.056 A 
HETATM   11  C           1     -30.550  -6.251 -17.126  0.00  0.00     0.010 A 
HETATM   12  C           1     -31.565  -5.294 -17.117  0.00  0.00     0.037 A 
HETATM   13  C           1     -31.259  -3.951 -17.342  0.00  0.00     0.065 A 
HETATM   14  C           1     -29.938  -3.567 -17.576  0.00  0.00     0.037 A 
HETATM   15  C           1     -28.923  -4.524 -17.585  0.00  0.00     0.010 A 
BRANCH  13  16
HETATM   16  O           1     -32.244  -3.022 -17.334  0.00  0.00    -0.361 OA
HETATM   17  H           1     -32.776  -3.155 -16.531  0.00  0.00     0.217 HD
ENDBRANCH  13  16
ENDBRANCH   9  10
ENDBRANCH   5   9
ENDBRANCH   1   5
BRANCH   3  18
HETATM   18  C           1     -25.552  -7.027 -20.954  0.00  0.00     0.275 C 
BRANCH  18  19
HETATM   19  C           1     -24.399  -7.852 -20.398  0.00  0.00     0.053 C 
BRANCH  19  20
HETATM   20  C           1     -23.611  -8.465 -21.549  0.00  0.00     0.076 C 
BRANCH  20  21
HETATM   21  S           1     -21.867  -8.619 -21.075  0.00  0.00    -0.173 SA
HETATM   22  C           1     -21.318  -9.440 -22.599  0.00  0.00     0.089 C 
ENDBRANCH  20  21
ENDBRANCH  19  20
ENDBRANCH  18  19
BRANCH  18  23
HETATM   23  N           1     -25.008  -5.902 -21.782  0.00  0.00    -0.066 N 
HETATM   24  H           1     -24.876  -6.227 -22.767  0.00  0.00     0.275 HD
HETATM   25  H           1     -25.678  -5.101 -21.766  0.00  0.00     0.275 HD
HETATM   26  H           1     -24.088  -5.595 -21.391  0.00  0.00     0.275 HD
ENDBRANCH  18  23
ENDBRANCH   3  18
TORSDOF 10
ENDMDL
MODEL 3
REMARK VINA RESULT:      -6.7     13.801     16.027
REMARK  10 active torsions:
REMARK  status: ('A' for Active; 'I' for Inactive)
REMARK    1  A    between atoms: C_7  and  C_19 
REMARK    2  A    between atoms: C_8  and  O_12 
REMARK    3  A    between atoms: N_9  and  C_18 
REMARK       I    between atoms: N_9  and  C_23 
REMARK    4  A    between atoms: C_10  and  C_20 
REMARK    5  A    between atoms: C_10  and  S_22 
REMARK    6  A    between atoms: C_15  and  C_23 
REMARK    7  A    between atoms: C_15  and  C_20 
REMARK    8  A    between atoms: C_15  and  N_26 
REMARK    9  A    between atoms: C_17  and  C_18 
REMARK   10  A    between atoms: C_18  and  C_19 
ROOT
HETATM    1  N           1     -36.291  -1.981 -10.797  0.00  0.00    -0.344 N 
HETATM    2  H           1     -37.134  -2.541 -10.776  0.00  0.00     0.163 HD
HETATM    3  C           1     -35.086  -2.567 -11.072  0.00  0.00     0.249 C 
HETATM    4  O           1     -34.080  -1.899 -11.097  0.00  0.00    -0.271 OA
ENDROOT
BRANCH   1   5
HETATM    5  C           1     -36.363  -0.556 -10.536  0.00  0.00     0.189 C 
BRANCH   5   6
HETATM    6  C           1     -36.630  -0.328  -9.069  0.00  0.00     0.197 C 
HETATM    7  O           1     -37.741  -0.631  -8.581  0.00  0.00    -0.646 OA
HETATM    8  O           1     -35.742   0.166  -8.341  0.00  0.00    -0.646 OA
ENDBRANCH   5   6
BRANCH   5   9
HETATM    9  C           1     -37.488   0.055 -11.360  0.00  0.00     0.074 C 
BRANCH   9  10
HETATM   10  C           1     -37.104   0.060 -12.806  0.00  0.00    -0.056 A 
HETATM   11  C           1     -35.777   0.279 -13.174  0.00  0.00     0.010 A 
HETATM   12  C           1     -35.417   0.283 -14.522  0.00  0.00     0.037 A 
HETATM   13  C           1     -36.387   0.069 -15.503  0.00  0.00     0.065 A 
HETATM   14  C           1     -37.714  -0.149 -15.135  0.00  0.00     0.037 A 
HETATM   15  C           1     -38.073  -0.154 -13.786  0.00  0.00     0.010 A 
BRANCH  13  16
HETATM   16  O           1     -36.039   0.074 -16.812  0.00  0.00    -0.361 OA
HETATM   17  H           1     -36.094  -0.839 -17.141  0.00  0.00     0.217 HD
ENDBRANCH  13  16
ENDBRANCH   9  10
ENDBRANCH   5   9
ENDBRANCH   1   5
BRANCH   3  18
HETATM   18  C           1     -35.013  -4.050 -11.344  0.00  0.00     0.275 C 
BRANCH  18  19
HETATM   19  C           1     -33.986  -4.686 -10.415  0.00  0.00     0.053 C 
BRANCH  19  20
HETATM   20  C           1     -33.769  -6.139 -10.816  0.00  0.00     0.076 C 
BRANCH  20  21
HETATM   21  S           1     -34.939  -7.197  -9.918  0.00  0.00    -0.173 SA
HETATM   22  C           1     -33.874  -8.666  -9.857  0.00  0.00     0.089 C 
ENDBRANCH  20  21
ENDBRANCH  19  20
ENDBRANCH  18  19
BRANCH  18  23
HETATM   23  N           1     -34.606  -4.277 -12.769  0.00  0.00    -0.066 N 
HETATM   24  H           1     -33.727  -4.842 -12.794  0.00  0.00     0.275 HD
HETATM   25  H           1     -35.364  -4.789 -13.271  0.00  0.00     0.275 HD
HETATM   26  H           1     -34.439  -3.355 -13.234  0.00  0.00     0.275 HD
ENDBRANCH  18  23
ENDBRANCH   3  18
TORSDOF 10
ENDMDL
MODEL 4
REMARK VINA RESULT:      -6.3     11.883     13.848
REMARK  10 active torsions:
REMARK  status: ('A' for Active; 'I' for Inactive)
REMARK    1  A    between atoms: C_7  and  C_19 
REMARK    2  A    between atoms: C_8  and  O_12 
REMARK    3  A    between atoms: N_9  and  C_18 
REMARK       I    between atoms: N_9  and  C_23 
REMARK    4  A    between atoms: C_10  and  C_20 
REMARK    5  A    between atoms: C_10  and  S_22 
REMARK    6  A    between atoms: C_15  and  C_23 
REMARK    7  A    between atoms: C_15  and  C_20 
REMARK    8  A    between atoms: C_15  and  N_26 
REMARK    9  A    between atoms: C_17  and  C_18 
REMARK   10  A    between atoms: C_18  and  C_19 
ROOT
HETATM    1  N           1     -26.703  -6.825 -17.341  0.00  0.00    -0.344 N 
HETATM    2  H           1     -26.743  -7.536 -18.060  0.00  0.00     0.163 HD
HETATM    3  C           1     -25.491  -6.388 -16.879  0.00  0.00     0.249 C 
HETATM    4  O           1     -25.443  -5.540 -16.020  0.00  0.00    -0.271 OA
ENDROOT
BRANCH   1   5
HETATM    5  C           1     -27.929  -6.271 -16.802  0.00  0.00     0.189 C 
BRANCH   5   6
HETATM    6  C           1     -28.151  -6.805 -15.408  0.00  0.00     0.197 C 
HETATM    7  O           1     -27.625  -7.885 -15.061  0.00  0.00    -0.646 OA
HETATM    8  O           1     -28.862  -6.168 -14.600  0.00  0.00    -0.646 OA
ENDBRANCH   5   6
BRANCH   5   9
HETATM    9  C           1     -29.100  -6.668 -17.692  0.00  0.00     0.074 C 
BRANCH   9  10
HETATM   10  C           1     -30.183  -5.641 -17.579  0.00  0.00    -0.056 A 
HETATM   11  C           1     -31.441  -6.005 -17.099  0.00  0.00     0.010 A 
HETATM   12  C           1     -32.451  -5.048 -16.994  0.00  0.00     0.037 A 
HETATM   13  C           1     -32.203  -3.728 -17.371  0.00  0.00     0.065 A 
HETATM   14  C           1     -30.945  -3.365 -17.852  0.00  0.00     0.037 A 
HETATM   15  C           1     -29.935  -4.321 -17.957  0.00  0.00     0.010 A 
BRANCH  13  16
HETATM   16  O           1     -33.184  -2.799 -17.270  0.00  0.00    -0.361 OA
HETATM   17  H           1     -33.285  -2.570 -16.330  0.00  0.00     0.217 HD
ENDBRANCH  13  16
ENDBRANCH   9  10
ENDBRANCH   5   9
ENDBRANCH   1   5
BRANCH   3  18
HETATM   18  C           1     -24.215  -6.966 -17.441  0.00  0.00     0.275 C 
BRANCH  18  19
HETATM   19  C           1     -24.443  -7.388 -18.886  0.00  0.00     0.053 C 
BRANCH  19  20
HETATM   20  C           1     -23.118  -7.368 -19.636  0.00  0.00     0.076 C 
BRANCH  20  21
HETATM   21  S           1     -23.306  -8.228 -21.223  0.00  0.00    -0.173 SA
HETATM   22  C           1     -25.097  -7.972 -21.377  0.00  0.00     0.089 C 
ENDBRANCH  20  21
ENDBRANCH  19  20
ENDBRANCH  18  19
BRANCH  18  23
HETATM   23  N           1     -23.809  -8.160 -16.630  0.00  0.00    -0.066 N 
HETATM   24  H           1     -23.156  -8.754 -17.189  0.00  0.00     0.275 HD
HETATM   25  H           1     -23.331  -7.842 -15.757  0.00  0.00     0.275 HD
HETATM   26  H           1     -24.658  -8.716 -16.379  0.00  0.00     0.275 HD
ENDBRANCH  18  23
ENDBRANCH   3  18
TORSDOF 10
ENDMDL
MODEL 5
REMARK VINA RESULT:      -6.2      3.491      7.579
REMARK  10 active torsions:
REMARK  status: ('A' for Active; 'I' for Inactive)
REMARK    1  A    between atoms: C_7  and  C_19 
REMARK    2  A    between atoms: C_8  and  O_12 
REMARK    3  A    between atoms: N_9  and  C_18 
REMARK       I    between atoms: N_9  and  C_23 
REMARK    4  A    between atoms: C_10  and  C_20 
REMARK    5  A    between atoms: C_10  and  S_22 
REMARK    6  A    between atoms: C_15  and  C_23 
REMARK    7  A    between atoms: C_15  and  C_20 
REMARK    8  A    between atoms: C_15  and  N_26 
REMARK    9  A    between atoms: C_17  and  C_18 
REMARK   10  A    between atoms: C_18  and  C_19 
ROOT
HETATM    1  N           1     -20.225  -6.721  -6.103  0.00  0.00    -0.344 N 
HETATM    2  H           1     -20.230  -7.155  -7.017  0.00  0.00     0.163 HD
HETATM    3  C           1     -20.330  -5.362  -5.990  0.00  0.00     0.249 C 
HETATM    4  O           1     -20.323  -4.844  -4.898  0.00  0.00    -0.271 OA
ENDROOT
BRANCH   1   5
HETATM    5  C           1     -20.105  -7.542  -4.914  0.00  0.00     0.189 C 
BRANCH   5   6
HETATM    6  C           1     -19.099  -8.639  -5.160  0.00  0.00     0.197 C 
HETATM    7  O           1     -18.759  -9.398  -4.226  0.00  0.00    -0.646 OA
HETATM    8  O           1     -18.604  -8.790  -6.299  0.00  0.00    -0.646 OA
ENDBRANCH   5   6
BRANCH   5   9
HETATM    9  C           1     -21.458  -8.157  -4.583  0.00  0.00     0.074 C 
BRANCH   9  10
HETATM   10  C           1     -21.710  -8.047  -3.112  0.00  0.00    -0.056 A 
HETATM   11  C           1     -21.960  -6.800  -2.538  0.00  0.00     0.010 A 
HETATM   12  C           1     -22.195  -6.697  -1.167  0.00  0.00     0.037 A 
HETATM   13  C           1     -22.181  -7.842  -0.369  0.00  0.00     0.065 A 
HETATM   14  C           1     -21.930  -9.088  -0.943  0.00  0.00     0.037 A 
HETATM   15  C           1     -21.695  -9.191  -2.314  0.00  0.00     0.010 A 
BRANCH  13  16
HETATM   16  O           1     -22.408  -7.741   0.962  0.00  0.00    -0.361 OA
HETATM   17  H           1     -23.008  -6.990   1.109  0.00  0.00     0.217 HD
ENDBRANCH  13  16
ENDBRANCH   9  10
ENDBRANCH   5   9
ENDBRANCH   1   5
BRANCH   3  18
HETATM   18  C           1     -20.455  -4.508  -7.228  0.00  0.00     0.275 C 
BRANCH  18  19
HETATM   19  C           1     -21.439  -5.156  -8.194  0.00  0.00     0.053 C 
BRANCH  19  20
HETATM   20  C           1     -22.421  -4.107  -8.700  0.00  0.00     0.076 C 
BRANCH  20  21
HETATM   21  S           1     -22.791  -4.417 -10.448  0.00  0.00    -0.173 SA
HETATM   22  C           1     -21.181  -3.880 -11.092  0.00  0.00     0.089 C 
ENDBRANCH  20  21
ENDBRANCH  19  20
ENDBRANCH  18  19
BRANCH  18  23
HETATM   23  N           1     -19.114  -4.388  -7.888  0.00  0.00    -0.066 N 
HETATM   24  H           1     -18.364  -4.429  -7.162  0.00  0.00     0.275 HD
HETATM   25  H           1     -18.987  -5.172  -8.565  0.00  0.00     0.275 HD
HETATM   26  H           1     -19.057  -3.475  -8.396  0.00  0.00     0.275 HD
ENDBRANCH  18  23
ENDBRANCH   3  18
TORSDOF 10
ENDMDL
MODEL 6
REMARK VINA RESULT:      -6.2      1.809      2.001
REMARK  10 active torsions:
REMARK  status: ('A' for Active; 'I' for Inactive)
REMARK    1  A    between atoms: C_7  and  C_19 
REMARK    2  A    between atoms: C_8  and  O_12 
REMARK    3  A    between atoms: N_9  and  C_18 
REMARK       I    between atoms: N_9  and  C_23 
REMARK    4  A    between atoms: C_10  and  C_20 
REMARK    5  A    between atoms: C_10  and  S_22 
REMARK    6  A    between atoms: C_15  and  C_23 
REMARK    7  A    between atoms: C_15  and  C_20 
REMARK    8  A    between atoms: C_15  and  N_26 
REMARK    9  A    between atoms: C_17  and  C_18 
REMARK   10  A    between atoms: C_18  and  C_19 
ROOT
HETATM    1  N           1     -21.521  -6.513  -5.810  0.00  0.00    -0.344 N 
HETATM    2  H           1     -22.408  -6.324  -5.362  0.00  0.00     0.163 HD
HETATM    3  C           1     -20.838  -7.662  -5.516  0.00  0.00     0.249 C 
HETATM    4  O           1     -19.778  -7.888  -6.049  0.00  0.00    -0.271 OA
ENDROOT
BRANCH   1   5
HETATM    5  C           1     -20.973  -5.567  -6.762  0.00  0.00     0.189 C 
BRANCH   5   6
HETATM    6  C           1     -19.860  -4.785  -6.109  0.00  0.00     0.197 C 
HETATM    7  O           1     -18.785  -4.598  -6.720  0.00  0.00    -0.646 OA
HETATM    8  O           1     -20.012  -4.323  -4.957  0.00  0.00    -0.646 OA
ENDBRANCH   5   6
BRANCH   5   9
HETATM    9  C           1     -22.069  -4.611  -7.214  0.00  0.00     0.074 C 
BRANCH   9  10
HETATM   10  C           1     -21.989  -4.424  -8.697  0.00  0.00    -0.056 A 
HETATM   11  C           1     -20.753  -4.480  -9.341  0.00  0.00     0.010 A 
HETATM   12  C           1     -20.677  -4.306 -10.723  0.00  0.00     0.037 A 
HETATM   13  C           1     -21.839  -4.076 -11.461  0.00  0.00     0.065 A 
HETATM   14  C           1     -23.075  -4.020 -10.817  0.00  0.00     0.037 A 
HETATM   15  C           1     -23.150  -4.194  -9.435  0.00  0.00     0.010 A 
BRANCH  13  16
HETATM   16  O           1     -21.766  -3.907 -12.803  0.00  0.00    -0.361 OA
HETATM   17  H           1     -22.210  -4.661 -13.226  0.00  0.00     0.217 HD
ENDBRANCH  13  16
ENDBRANCH   9  10
ENDBRANCH   5   9
ENDBRANCH   1   5
BRANCH   3  18
HETATM   18  C           1     -21.408  -8.647  -4.524  0.00  0.00     0.275 C 
BRANCH  18  19
HETATM   19  C           1     -20.687  -8.500  -3.191  0.00  0.00     0.053 C 
BRANCH  19  20
HETATM   20  C           1     -21.559  -9.063  -2.076  0.00  0.00     0.076 C 
BRANCH  20  21
HETATM   21  S           1     -20.652 -10.365  -1.196  0.00  0.00    -0.173 SA
HETATM   22  C           1     -21.939 -10.706   0.038  0.00  0.00     0.089 C 
ENDBRANCH  20  21
ENDBRANCH  19  20
ENDBRANCH  18  19
BRANCH  18  23
HETATM   23  N           1     -21.222 -10.041  -5.042  0.00  0.00    -0.066 N 
HETATM   24  H           1     -20.754 -10.006  -5.976  0.00  0.00     0.275 HD
HETATM   25  H           1     -20.629 -10.584  -4.376  0.00  0.00     0.275 HD
HETATM   26  H           1     -22.154 -10.505  -5.138  0.00  0.00     0.275 HD
ENDBRANCH  18  23
ENDBRANCH   3  18
TORSDOF 10
ENDMDL
MODEL 7
REMARK VINA RESULT:      -5.9      3.276      7.760
REMARK  10 active torsions:
REMARK  status: ('A' for Active; 'I' for Inactive)
REMARK    1  A    between atoms: C_7  and  C_19 
REMARK    2  A    between atoms: C_8  and  O_12 
REMARK    3  A    between atoms: N_9  and  C_18 
REMARK       I    between atoms: N_9  and  C_23 
REMARK    4  A    between atoms: C_10  and  C_20 
REMARK    5  A    between atoms: C_10  and  S_22 
REMARK    6  A    between atoms: C_15  and  C_23 
REMARK    7  A    between atoms: C_15  and  C_20 
REMARK    8  A    between atoms: C_15  and  N_26 
REMARK    9  A    between atoms: C_17  and  C_18 
REMARK   10  A    between atoms: C_18  and  C_19 
ROOT
HETATM    1  N           1     -20.709  -7.992  -4.368  0.00  0.00    -0.344 N 
HETATM    2  H           1     -21.504  -7.721  -3.803  0.00  0.00     0.163 HD
HETATM    3  C           1     -20.422  -7.309  -5.518  0.00  0.00     0.249 C 
HETATM    4  O           1     -19.473  -7.634  -6.192  0.00  0.00    -0.271 OA
ENDROOT
BRANCH   1   5
HETATM    5  C           1     -19.875  -9.105  -3.956  0.00  0.00     0.189 C 
BRANCH   5   6
HETATM    6  C           1     -20.675 -10.383  -4.024  0.00  0.00     0.197 C 
HETATM    7  O           1     -21.884 -10.349  -4.340  0.00  0.00    -0.646 OA
HETATM    8  O           1     -20.128 -11.477  -3.765  0.00  0.00    -0.646 OA
ENDBRANCH   5   6
BRANCH   5   9
HETATM    9  C           1     -19.397  -8.879  -2.528  0.00  0.00     0.074 C 
BRANCH   9  10
HETATM   10  C           1     -20.567  -8.555  -1.654  0.00  0.00    -0.056 A 
HETATM   11  C           1     -21.042  -9.500  -0.745  0.00  0.00     0.010 A 
HETATM   12  C           1     -22.134  -9.199   0.070  0.00  0.00     0.037 A 
HETATM   13  C           1     -22.750  -7.950  -0.025  0.00  0.00     0.065 A 
HETATM   14  C           1     -22.275  -7.005  -0.934  0.00  0.00     0.037 A 
HETATM   15  C           1     -21.184  -7.307  -1.749  0.00  0.00     0.010 A 
BRANCH  13  16
HETATM   16  O           1     -23.810  -7.657   0.766  0.00  0.00    -0.361 OA
HETATM   17  H           1     -23.908  -6.690   0.791  0.00  0.00     0.217 HD
ENDBRANCH  13  16
ENDBRANCH   9  10
ENDBRANCH   5   9
ENDBRANCH   1   5
BRANCH   3  18
HETATM   18  C           1     -21.290  -6.151  -5.945  0.00  0.00     0.275 C 
BRANCH  18  19
HETATM   19  C           1     -20.519  -4.849  -5.775  0.00  0.00     0.053 C 
BRANCH  19  20
HETATM   20  C           1     -20.214  -4.255  -7.144  0.00  0.00     0.076 C 
BRANCH  20  21
HETATM   21  S           1     -21.436  -4.846  -8.347  0.00  0.00    -0.173 SA
HETATM   22  C           1     -20.505  -4.368  -9.830  0.00  0.00     0.089 C 
ENDBRANCH  20  21
ENDBRANCH  19  20
ENDBRANCH  18  19
BRANCH  18  23
HETATM   23  N           1     -22.526  -6.115  -5.097  0.00  0.00    -0.066 N 
HETATM   24  H           1     -23.200  -5.422  -5.494  0.00  0.00     0.275 HD
HETATM   25  H           1     -22.967  -7.062  -5.083  0.00  0.00     0.275 HD
HETATM   26  H           1     -22.271  -5.834  -4.123  0.00  0.00     0.275 HD
ENDBRANCH  18  23
ENDBRANCH   3  18
TORSDOF 10
ENDMDL
MODEL 8
REMARK VINA RESULT:      -5.8      5.835      8.605
REMARK  10 active torsions:
REMARK  status: ('A' for Active; 'I' for Inactive)
REMARK    1  A    between atoms: C_7  and  C_19 
REMARK    2  A    between atoms: C_8  and  O_12 
REMARK    3  A    between atoms: N_9  and  C_18 
REMARK       I    between atoms: N_9  and  C_23 
REMARK    4  A    between atoms: C_10  and  C_20 
REMARK    5  A    between atoms: C_10  and  S_22 
REMARK    6  A    between atoms: C_15  and  C_23 
REMARK    7  A    between atoms: C_15  and  C_20 
REMARK    8  A    between atoms: C_15  and  N_26 
REMARK    9  A    between atoms: C_17  and  C_18 
REMARK   10  A    between atoms: C_18  and  C_19 
ROOT
HETATM    1  N           1     -20.454  -8.420  -2.627  0.00  0.00    -0.344 N 
HETATM    2  H           1     -19.607  -7.904  -2.429  0.00  0.00     0.163 HD
HETATM    3  C           1     -20.446  -9.414  -3.568  0.00  0.00     0.249 C 
HETATM    4  O           1     -21.458 -10.030  -3.805  0.00  0.00    -0.271 OA
ENDROOT
BRANCH   1   5
HETATM    5  C           1     -21.677  -8.106  -1.914  0.00  0.00     0.189 C 
BRANCH   5   6
HETATM    6  C           1     -22.012  -6.648  -2.111  0.00  0.00     0.197 C 
HETATM    7  O           1     -21.914  -6.131  -3.245  0.00  0.00    -0.646 OA
HETATM    8  O           1     -22.388  -5.956  -1.140  0.00  0.00    -0.646 OA
ENDBRANCH   5   6
BRANCH   5   9
HETATM    9  C           1     -21.485  -8.388  -0.430  0.00  0.00     0.074 C 
BRANCH   9  10
HETATM   10  C           1     -22.008  -9.753  -0.109  0.00  0.00    -0.056 A 
HETATM   11  C           1     -21.150 -10.725   0.405  0.00  0.00     0.010 A 
HETATM   12  C           1     -21.637 -11.998   0.704  0.00  0.00     0.037 A 
HETATM   13  C           1     -22.983 -12.298   0.489  0.00  0.00     0.065 A 
HETATM   14  C           1     -23.840 -11.326  -0.025  0.00  0.00     0.037 A 
HETATM   15  C           1     -23.353 -10.053  -0.324  0.00  0.00     0.010 A 
BRANCH  13  16
HETATM   16  O           1     -23.455 -13.534   0.779  0.00  0.00    -0.361 OA
HETATM   17  H           1     -23.757 -13.531   1.703  0.00  0.00     0.217 HD
ENDBRANCH  13  16
ENDBRANCH   9  10
ENDBRANCH   5   9
ENDBRANCH   1   5
BRANCH   3  18
HETATM   18  C           1     -19.173  -9.740  -4.310  0.00  0.00     0.275 C 
BRANCH  18  19
HETATM   19  C           1     -17.977  -9.476  -3.406  0.00  0.00     0.053 C 
BRANCH  19  20
HETATM   20  C           1     -17.647 -10.736  -2.617  0.00  0.00     0.076 C 
BRANCH  20  21
HETATM   21  S           1     -15.861 -10.807  -2.306  0.00  0.00    -0.173 SA
HETATM   22  C           1     -15.969 -11.679  -0.718  0.00  0.00     0.089 C 
ENDBRANCH  20  21
ENDBRANCH  19  20
ENDBRANCH  18  19
BRANCH  18  23
HETATM   23  N           1     -19.075  -8.880  -5.534  0.00  0.00    -0.066 N 
HETATM   24  H           1     -19.881  -9.082  -6.168  0.00  0.00     0.275 HD
HETATM   25  H           1     -19.095  -7.874  -5.256  0.00  0.00     0.275 HD
HETATM   26  H           1     -18.180  -9.086  -6.034  0.00  0.00     0.275 HD
ENDBRANCH  18  23
ENDBRANCH   3  18
TORSDOF 10
ENDMDL
MODEL 9
REMARK VINA RESULT:      -5.8      3.797      8.760
REMARK  10 active torsions:
REMARK  status: ('A' for Active; 'I' for Inactive)
REMARK    1  A    between atoms: C_7  and  C_19 
REMARK    2  A    between atoms: C_8  and  O_12 
REMARK    3  A    between atoms: N_9  and  C_18 
REMARK       I    between atoms: N_9  and  C_23 
REMARK    4  A    between atoms: C_10  and  C_20 
REMARK    5  A    between atoms: C_10  and  S_22 
REMARK    6  A    between atoms: C_15  and  C_23 
REMARK    7  A    between atoms: C_15  and  C_20 
REMARK    8  A    between atoms: C_15  and  N_26 
REMARK    9  A    between atoms: C_17  and  C_18 
REMARK   10  A    between atoms: C_18  and  C_19 
ROOT
HETATM    1  N           1     -20.579  -7.966  -2.713  0.00  0.00    -0.344 N 
HETATM    2  H           1     -19.688  -7.591  -2.416  0.00  0.00     0.163 HD
HETATM    3  C           1     -20.772  -8.315  -4.022  0.00  0.00     0.249 C 
HETATM    4  O           1     -21.837  -8.762  -4.378  0.00  0.00    -0.271 OA
ENDROOT
BRANCH   1   5
HETATM    5  C           1     -21.651  -8.133  -1.752  0.00  0.00     0.189 C 
BRANCH   5   6
HETATM    6  C           1     -22.296  -6.796  -1.481  0.00  0.00     0.197 C 
HETATM    7  O           1     -22.717  -6.525  -0.335  0.00  0.00    -0.646 OA
HETATM    8  O           1     -22.409  -5.959  -2.402  0.00  0.00    -0.646 OA
ENDBRANCH   5   6
BRANCH   5   9
HETATM    9  C           1     -21.086  -8.698  -0.455  0.00  0.00     0.074 C 
BRANCH   9  10
HETATM   10  C           1     -21.765  -9.993  -0.136  0.00  0.00    -0.056 A 
HETATM   11  C           1     -21.041 -11.037   0.438  0.00  0.00     0.010 A 
HETATM   12  C           1     -21.673 -12.245   0.735  0.00  0.00     0.037 A 
HETATM   13  C           1     -23.031 -12.407   0.458  0.00  0.00     0.065 A 
HETATM   14  C           1     -23.755 -11.363  -0.116  0.00  0.00     0.037 A 
HETATM   15  C           1     -23.123 -10.155  -0.414  0.00  0.00     0.010 A 
BRANCH  13  16
HETATM   16  O           1     -23.645 -13.580   0.746  0.00  0.00    -0.361 OA
HETATM   17  H           1     -24.064 -13.907  -0.067  0.00  0.00     0.217 HD
ENDBRANCH  13  16
ENDBRANCH   9  10
ENDBRANCH   5   9
ENDBRANCH   1   5
BRANCH   3  18
HETATM   18  C           1     -19.656  -8.140  -5.023  0.00  0.00     0.275 C 
BRANCH  18  19
HETATM   19  C           1     -20.136  -7.263  -6.172  0.00  0.00     0.053 C 
BRANCH  19  20
HETATM   20  C           1     -20.369  -5.846  -5.666  0.00  0.00     0.076 C 
BRANCH  20  21
HETATM   21  S           1     -21.885  -5.179  -6.407  0.00  0.00    -0.173 SA
HETATM   22  C           1     -21.116  -3.716  -7.155  0.00  0.00     0.089 C 
ENDBRANCH  20  21
ENDBRANCH  19  20
ENDBRANCH  18  19
BRANCH  18  23
HETATM   23  N           1     -19.248  -9.482  -5.554  0.00  0.00    -0.066 N 
HETATM   24  H           1     -19.806 -10.228  -5.081  0.00  0.00     0.275 HD
HETATM   25  H           1     -19.423  -9.517  -6.583  0.00  0.00     0.275 HD
HETATM   26  H           1     -18.231  -9.636  -5.367  0.00  0.00     0.275 HD
ENDBRANCH  18  23
ENDBRANCH   3  18
TORSDOF 10
ENDMDL
