MODEL 1
REMARK VINA RESULT:      -6.2      0.000      0.000
REMARK  3 active torsions:
REMARK  status: ('A' for Active; 'I' for Inactive)
REMARK    1  A    between atoms: C_1  and  C_2 
REMARK       I    between atoms: C_2  and  N_12 
REMARK    2  A    between atoms: C_4  and  C_11 
REMARK    3  A    between atoms: C_11  and  N_12 
ROOT
HETATM    1  C           1     -27.732  -5.365 -17.163  0.00  0.00     0.251 C 
HETATM    2  N           1     -27.081  -6.558 -16.999  0.00  0.00    -0.349 N 
HETATM    3  O           1     -27.442  -4.419 -16.470  0.00  0.00    -0.271 OA
HETATM    4  H           1     -27.325  -7.350 -17.580  0.00  0.00     0.163 HD
ENDROOT
BRANCH   1   5
HETATM    5  C           1     -28.811  -5.230 -18.209  0.00  0.00     0.311 C 
HETATM    6  N           1     -29.729  -6.364 -18.159  0.00  0.00     0.097 N 
HETATM    7  C           1     -30.610  -6.086 -17.029  0.00  0.00     0.271 C 
HETATM    8  H           1     -30.281  -6.421 -19.015  0.00  0.00     0.317 HD
HETATM    9  C           1     -30.881  -4.595 -17.137  0.00  0.00     0.033 C 
HETATM   10  C           1     -29.699  -4.033 -17.918  0.00  0.00     0.047 C 
ENDBRANCH   1   5
BRANCH   2  11
HETATM   11  C           1     -26.045  -6.687 -15.993  0.00  0.00     0.235 C 
BRANCH  11  12
HETATM   12  C           1     -24.798  -7.255 -16.625  0.00  0.00     0.191 C 
HETATM   13  O           1     -24.306  -6.710 -17.638  0.00  0.00    -0.647 OA
HETATM   14  O           1     -24.256  -8.270 -16.137  0.00  0.00    -0.647 OA
ENDBRANCH  11  12
ENDBRANCH   2  11
TORSDOF 3
ENDMDL
MODEL 2
REMARK VINA RESULT:      -5.6      2.943      3.393
REMARK  3 active torsions:
REMARK  status: ('A' for Active; 'I' for Inactive)
REMARK    1  A    between atoms: C_1  and  C_2 
REMARK       I    between atoms: C_2  and  N_12 
REMARK    2  A    between atoms: C_4  and  C_11 
REMARK    3  A    between atoms: C_11  and  N_12 
ROOT
HETATM    1  C           1     -27.131  -6.363 -18.182  0.00  0.00     0.251 C 
HETATM    2  N           1     -27.221  -6.684 -19.510  0.00  0.00    -0.349 N 
HETATM    3  O           1     -26.051  -6.160 -17.682  0.00  0.00    -0.271 OA
HETATM    4  H           1     -28.127  -6.855 -19.929  0.00  0.00     0.163 HD
ENDROOT
BRANCH   1   5
HETATM    5  C           1     -28.382  -6.261 -17.343  0.00  0.00     0.311 C 
HETATM    6  N           1     -28.267  -5.182 -16.368  0.00  0.00     0.097 N 
HETATM    7  C           1     -28.522  -3.960 -17.126  0.00  0.00     0.271 C 
HETATM    8  H           1     -28.970  -5.280 -15.635  0.00  0.00     0.317 HD
HETATM    9  C           1     -29.662  -4.340 -18.055  0.00  0.00     0.033 C 
HETATM   10  C           1     -29.572  -5.856 -18.195  0.00  0.00     0.047 C 
ENDBRANCH   1   5
BRANCH   2  11
HETATM   11  C           1     -26.020  -6.782 -20.316  0.00  0.00     0.235 C 
BRANCH  11  12
HETATM   12  C           1     -26.095  -8.012 -21.186  0.00  0.00     0.191 C 
HETATM   13  O           1     -27.186  -8.604 -21.339  0.00  0.00    -0.647 OA
HETATM   14  O           1     -25.068  -8.439 -21.755  0.00  0.00    -0.647 OA
ENDBRANCH  11  12
ENDBRANCH   2  11
TORSDOF 3
ENDMDL
MODEL 3
REMARK VINA RESULT:      -5.6      9.679     11.665
REMARK  3 active torsions:
REMARK  status: ('A' for Active; 'I' for Inactive)
REMARK    1  A    between atoms: C_1  and  C_2 
REMARK       I    between atoms: C_2  and  N_12 
REMARK    2  A    between atoms: C_4  and  C_11 
REMARK    3  A    between atoms: C_11  and  N_12 
ROOT
HETATM    1  C           1     -22.379  -4.354  -7.401  0.00  0.00     0.251 C 
HETATM    2  N           1     -22.449  -4.331  -8.767  0.00  0.00    -0.349 N 
HETATM    3  O           1     -23.369  -4.589  -6.750  0.00  0.00    -0.271 OA
HETATM    4  H           1     -21.619  -4.135  -9.313  0.00  0.00     0.163 HD
ENDROOT
BRANCH   1   5
HETATM    5  C           1     -21.066  -4.087  -6.707  0.00  0.00     0.311 C 
HETATM    6  N           1     -20.865  -5.015  -5.599  0.00  0.00     0.097 N 
HETATM    7  C           1     -20.428  -6.260  -6.224  0.00  0.00     0.271 C 
HETATM    8  H           1     -20.136  -4.677  -4.970  0.00  0.00     0.317 HD
HETATM    9  C           1     -19.480  -5.804  -7.320  0.00  0.00     0.033 C 
HETATM   10  C           1     -19.897  -4.371  -7.634  0.00  0.00     0.047 C 
ENDBRANCH   1   5
BRANCH   2  11
HETATM   11  C           1     -23.710  -4.587  -9.434  0.00  0.00     0.235 C 
BRANCH  11  12
HETATM   12  C           1     -23.964  -3.514 -10.463  0.00  0.00     0.191 C 
HETATM   13  O           1     -23.001  -2.937 -11.014  0.00  0.00    -0.647 OA
HETATM   14  O           1     -25.135  -3.202 -10.766  0.00  0.00    -0.647 OA
ENDBRANCH  11  12
ENDBRANCH   2  11
TORSDOF 3
ENDMDL
MODEL 4
REMARK VINA RESULT:      -5.5      2.335      2.908
REMARK  3 active torsions:
REMARK  status: ('A' for Active; 'I' for Inactive)
REMARK    1  A    between atoms: C_1  and  C_2 
REMARK       I    between atoms: C_2  and  N_12 
REMARK    2  A    between atoms: C_4  and  C_11 
REMARK    3  A    between atoms: C_11  and  N_12 
ROOT
HETATM    1  C           1     -28.572  -6.215 -18.530  0.00  0.00     0.251 C 
HETATM    2  N           1     -27.637  -6.977 -19.177  0.00  0.00    -0.349 N 
HETATM    3  O           1     -28.670  -5.038 -18.781  0.00  0.00    -0.271 OA
HETATM    4  H           1     -27.555  -7.964 -18.968  0.00  0.00     0.163 HD
ENDROOT
BRANCH   1   5
HETATM    5  C           1     -29.482  -6.846 -17.505  0.00  0.00     0.311 C 
HETATM    6  N           1     -28.734  -7.735 -16.622  0.00  0.00     0.097 N 
HETATM    7  C           1     -28.066  -6.849 -15.673  0.00  0.00     0.271 C 
HETATM    8  H           1     -29.363  -8.360 -16.119  0.00  0.00     0.317 HD
HETATM    9  C           1     -29.114  -5.794 -15.362  0.00  0.00     0.033 C 
HETATM   10  C           1     -30.049  -5.796 -16.567  0.00  0.00     0.047 C 
ENDBRANCH   1   5
BRANCH   2  11
HETATM   11  C           1     -26.762  -6.370 -20.162  0.00  0.00     0.235 C 
BRANCH  11  12
HETATM   12  C           1     -25.375  -6.950 -20.030  0.00  0.00     0.191 C 
HETATM   13  O           1     -24.634  -6.587 -19.091  0.00  0.00    -0.647 OA
HETATM   14  O           1     -24.969  -7.793 -20.857  0.00  0.00    -0.647 OA
ENDBRANCH  11  12
ENDBRANCH   2  11
TORSDOF 3
ENDMDL
MODEL 5
REMARK VINA RESULT:      -5.5      3.547      5.585
REMARK  3 active torsions:
REMARK  status: ('A' for Active; 'I' for Inactive)
REMARK    1  A    between atoms: C_1  and  C_2 
REMARK       I    between atoms: C_2  and  N_12 
REMARK    2  A    between atoms: C_4  and  C_11 
REMARK    3  A    between atoms: C_11  and  N_12 
ROOT
HETATM    1  C           1     -30.528  -6.440 -16.987  0.00  0.00     0.251 C 
HETATM    2  N           1     -31.024  -5.332 -16.355  0.00  0.00    -0.349 N 
HETATM    3  O           1     -31.205  -7.025 -17.798  0.00  0.00    -0.271 OA
HETATM    4  H           1     -30.457  -4.841 -15.675  0.00  0.00     0.163 HD
ENDROOT
BRANCH   1   5
HETATM    5  C           1     -29.136  -6.930 -16.672  0.00  0.00     0.311 C 
HETATM    6  N           1     -28.363  -7.121 -17.894  0.00  0.00     0.097 N 
HETATM    7  C           1     -27.940  -5.780 -18.287  0.00  0.00     0.271 C 
HETATM    8  H           1     -27.541  -7.698 -17.716  0.00  0.00     0.317 HD
HETATM    9  C           1     -27.569  -5.116 -16.972  0.00  0.00     0.033 C 
HETATM   10  C           1     -28.353  -5.877 -15.908  0.00  0.00     0.047 C 
ENDBRANCH   1   5
BRANCH   2  11
HETATM   11  C           1     -32.362  -4.861 -16.658  0.00  0.00     0.235 C 
BRANCH  11  12
HETATM   12  C           1     -32.282  -3.507 -17.318  0.00  0.00     0.191 C 
HETATM   13  O           1     -33.329  -2.870 -17.567  0.00  0.00    -0.647 OA
HETATM   14  O           1     -31.170  -3.021 -17.616  0.00  0.00    -0.647 OA
ENDBRANCH  11  12
ENDBRANCH   2  11
TORSDOF 3
ENDMDL
MODEL 6
REMARK VINA RESULT:      -5.4      1.667      2.048
REMARK  3 active torsions:
REMARK  status: ('A' for Active; 'I' for Inactive)
REMARK    1  A    between atoms: C_1  and  C_2 
REMARK       I    between atoms: C_2  and  N_12 
REMARK    2  A    between atoms: C_4  and  C_11 
REMARK    3  A    between atoms: C_11  and  N_12 
ROOT
HETATM    1  C           1     -27.790  -6.529 -15.815  0.00  0.00     0.251 C 
HETATM    2  N           1     -26.535  -6.069 -16.110  0.00  0.00    -0.349 N 
HETATM    3  O           1     -27.931  -7.436 -15.031  0.00  0.00    -0.271 OA
HETATM    4  H           1     -26.416  -5.308 -16.767  0.00  0.00     0.163 HD
ENDROOT
BRANCH   1   5
HETATM    5  C           1     -28.997  -5.902 -16.469  0.00  0.00     0.311 C 
HETATM    6  N           1     -28.623  -5.212 -17.699  0.00  0.00     0.097 N 
HETATM    7  C           1     -28.473  -6.270 -18.694  0.00  0.00     0.271 C 
HETATM    8  H           1     -29.359  -4.571 -17.993  0.00  0.00     0.317 HD
HETATM    9  C           1     -29.626  -7.214 -18.398  0.00  0.00     0.033 C 
HETATM   10  C           1     -29.974  -6.968 -16.934  0.00  0.00     0.047 C 
ENDBRANCH   1   5
BRANCH   2  11
HETATM   11  C           1     -25.375  -6.672 -15.482  0.00  0.00     0.235 C 
BRANCH  11  12
HETATM   12  C           1     -24.575  -7.424 -16.516  0.00  0.00     0.191 C 
HETATM   13  O           1     -24.529  -7.008 -17.694  0.00  0.00    -0.647 OA
HETATM   14  O           1     -23.957  -8.462 -16.196  0.00  0.00    -0.647 OA
ENDBRANCH  11  12
ENDBRANCH   2  11
TORSDOF 3
ENDMDL
MODEL 7
REMARK VINA RESULT:      -5.1      1.866      2.384
REMARK  3 active torsions:
REMARK  status: ('A' for Active; 'I' for Inactive)
REMARK    1  A    between atoms: C_1  and  C_2 
REMARK       I    between atoms: C_2  and  N_12 
REMARK    2  A    between atoms: C_4  and  C_11 
REMARK    3  A    between atoms: C_11  and  N_12 
ROOT
HETATM    1  C           1     -27.455  -6.131 -17.229  0.00  0.00     0.251 C 
HETATM    2  N           1     -27.260  -6.677 -18.469  0.00  0.00    -0.349 N 
HETATM    3  O           1     -26.798  -5.181 -16.878  0.00  0.00    -0.271 OA
HETATM    4  H           1     -27.810  -7.474 -18.763  0.00  0.00     0.163 HD
ENDROOT
BRANCH   1   5
HETATM    5  C           1     -28.491  -6.716 -16.300  0.00  0.00     0.311 C 
HETATM    6  N           1     -29.262  -5.661 -15.652  0.00  0.00     0.097 N 
HETATM    7  C           1     -30.225  -5.224 -16.659  0.00  0.00     0.271 C 
HETATM    8  H           1     -29.762  -6.024 -14.839  0.00  0.00     0.317 HD
HETATM    9  C           1     -30.673  -6.516 -17.319  0.00  0.00     0.033 C 
HETATM   10  C           1     -29.533  -7.500 -17.079  0.00  0.00     0.047 C 
ENDBRANCH   1   5
BRANCH   2  11
HETATM   11  C           1     -26.264  -6.115 -19.361  0.00  0.00     0.235 C 
BRANCH  11  12
HETATM   12  C           1     -25.003  -6.940 -19.292  0.00  0.00     0.191 C 
HETATM   13  O           1     -24.725  -7.736 -20.215  0.00  0.00    -0.647 OA
HETATM   14  O           1     -24.234  -6.827 -18.313  0.00  0.00    -0.647 OA
ENDBRANCH  11  12
ENDBRANCH   2  11
TORSDOF 3
ENDMDL
MODEL 8
REMARK VINA RESULT:      -4.9      9.451     10.961
REMARK  3 active torsions:
REMARK  status: ('A' for Active; 'I' for Inactive)
REMARK    1  A    between atoms: C_1  and  C_2 
REMARK       I    between atoms: C_2  and  N_12 
REMARK    2  A    between atoms: C_4  and  C_11 
REMARK    3  A    between atoms: C_11  and  N_12 
ROOT
HETATM    1  C           1     -21.420  -4.302  -8.756  0.00  0.00     0.251 C 
HETATM    2  N           1     -21.904  -5.162  -7.807  0.00  0.00    -0.349 N 
HETATM    3  O           1     -20.229  -4.199  -8.927  0.00  0.00    -0.271 OA
HETATM    4  H           1     -22.902  -5.248  -7.664  0.00  0.00     0.163 HD
ENDROOT
BRANCH   1   5
HETATM    5  C           1     -22.375  -3.483  -9.590  0.00  0.00     0.311 C 
HETATM    6  N           1     -21.835  -3.258 -10.927  0.00  0.00     0.097 N 
HETATM    7  C           1     -22.075  -4.506 -11.646  0.00  0.00     0.271 C 
HETATM    8  H           1     -22.329  -2.497 -11.394  0.00  0.00     0.317 HD
HETATM    9  C           1     -23.464  -4.924 -11.195  0.00  0.00     0.033 C 
HETATM   10  C           1     -23.663  -4.247  -9.843  0.00  0.00     0.047 C 
ENDBRANCH   1   5
BRANCH   2  11
HETATM   11  C           1     -20.986  -5.948  -7.005  0.00  0.00     0.235 C 
BRANCH  11  12
HETATM   12  C           1     -20.986  -5.432  -5.588  0.00  0.00     0.191 C 
HETATM   13  O           1     -21.826  -5.860  -4.767  0.00  0.00    -0.647 OA
HETATM   14  O           1     -20.145  -4.578  -5.234  0.00  0.00    -0.647 OA
ENDBRANCH  11  12
ENDBRANCH   2  11
TORSDOF 3
ENDMDL
MODEL 9
REMARK VINA RESULT:      -4.8     11.659     13.362
REMARK  3 active torsions:
REMARK  status: ('A' for Active; 'I' for Inactive)
REMARK    1  A    between atoms: C_1  and  C_2 
REMARK       I    between atoms: C_2  and  N_12 
REMARK    2  A    between atoms: C_4  and  C_11 
REMARK    3  A    between atoms: C_11  and  N_12 
ROOT
HETATM    1  C           1     -20.681  -5.785  -6.305  0.00  0.00     0.251 C 
HETATM    2  N           1     -21.647  -5.679  -5.341  0.00  0.00    -0.349 N 
HETATM    3  O           1     -20.179  -6.857  -6.542  0.00  0.00    -0.271 OA
HETATM    4  H           1     -22.067  -4.780  -5.142  0.00  0.00     0.163 HD
ENDROOT
BRANCH   1   5
HETATM    5  C           1     -20.242  -4.561  -7.072  0.00  0.00     0.311 C 
HETATM    6  N           1     -20.062  -4.871  -8.486  0.00  0.00     0.097 N 
HETATM    7  C           1     -21.412  -4.894  -9.043  0.00  0.00     0.271 C 
HETATM    8  H           1     -19.516  -4.145  -8.950  0.00  0.00     0.317 HD
HETATM    9  C           1     -22.104  -3.725  -8.364  0.00  0.00     0.033 C 
HETATM   10  C           1     -21.331  -3.503  -7.069  0.00  0.00     0.047 C 
ENDBRANCH   1   5
BRANCH   2  11
HETATM   11  C           1     -22.068  -6.855  -4.604  0.00  0.00     0.235 C 
BRANCH  11  12
HETATM   12  C           1     -21.750  -6.673  -3.141  0.00  0.00     0.191 C 
HETATM   13  O           1     -20.791  -7.289  -2.628  0.00  0.00    -0.647 OA
HETATM   14  O           1     -22.444  -5.905  -2.441  0.00  0.00    -0.647 OA
ENDBRANCH  11  12
ENDBRANCH   2  11
TORSDOF 3
ENDMDL
