MODEL 1
REMARK VINA RESULT:      -6.3      0.000      0.000
REMARK  8 active torsions:
REMARK  status: ('A' for Active; 'I' for Inactive)
REMARK    1  A    between atoms: N_1  and  C_9 
REMARK    2  A    between atoms: O_3  and  C_4 
REMARK    3  A    between atoms: C_4  and  C_19 
REMARK    4  A    between atoms: N_7  and  C_19 
REMARK       I    between atoms: N_7  and  C_8 
REMARK    5  A    between atoms: C_8  and  C_9 
REMARK    6  A    between atoms: C_9  and  C_10 
REMARK    7  A    between atoms: C_10  and  C_11 
REMARK       I    between atoms: C_11  and  N_12 
REMARK    8  A    between atoms: C_18  and  C_19 
ROOT
HETATM    1  H           1     -34.091  -0.881 -14.254  0.00  0.00     0.163 HD
HETATM    2  N           1     -35.077  -0.769 -14.056  0.00  0.00    -0.343 N 
HETATM    3  C           1     -35.590  -1.203 -12.863  0.00  0.00     0.249 C 
HETATM    4  O           1     -36.767  -1.068 -12.627  0.00  0.00    -0.271 OA
ENDROOT
BRANCH   3   5
HETATM    5  C           1     -34.686  -1.849 -11.843  0.00  0.00     0.283 C 
BRANCH   5   6
HETATM    6  N           1     -35.057  -1.368 -10.471  0.00  0.00    -0.066 N 
HETATM    7  H           1     -36.096  -1.284 -10.400  0.00  0.00     0.275 HD
HETATM    8  H           1     -34.713  -2.050  -9.758  0.00  0.00     0.275 HD
HETATM    9  H           1     -34.620  -0.435 -10.299  0.00  0.00     0.275 HD
ENDBRANCH   5   6
BRANCH   5  10
HETATM   10  C           1     -34.844  -3.362 -11.909  0.00  0.00     0.145 C 
BRANCH  10  11
HETATM   11  C           1     -33.900  -3.922 -12.945  0.00  0.00     0.217 C 
HETATM   12  N           1     -32.739  -4.532 -12.554  0.00  0.00    -0.370 N 
HETATM   13  H           1     -32.105  -4.906 -13.248  0.00  0.00     0.159 HD
HETATM   14  H           1     -32.513  -4.607 -11.570  0.00  0.00     0.159 HD
HETATM   15  O           1     -34.169  -3.831 -14.118  0.00  0.00    -0.274 OA
ENDBRANCH  10  11
ENDBRANCH   5  10
ENDBRANCH   3   5
BRANCH   2  16
HETATM   16  C           1     -35.947  -0.148 -15.036  0.00  0.00     0.209 C 
BRANCH  16  17
HETATM   17  C           1     -35.524   1.301 -15.244  0.00  0.00     0.200 C 
BRANCH  17  18
HETATM   18  O           1     -36.431   1.934 -16.106  0.00  0.00    -0.398 OA
HETATM   19  H           1     -35.927   2.288 -16.819  0.00  0.00     0.209 HD
ENDBRANCH  17  18
ENDBRANCH  16  17
BRANCH  16  20
HETATM   20  C           1     -35.845  -0.894 -16.343  0.00  0.00     0.198 C 
HETATM   21  O           1     -36.767  -0.813 -17.183  0.00  0.00    -0.646 OA
HETATM   22  O           1     -34.838  -1.595 -16.586  0.00  0.00    -0.646 OA
ENDBRANCH  16  20
ENDBRANCH   2  16
TORSDOF 8
ENDMDL
MODEL 2
REMARK VINA RESULT:      -6.3      8.573     10.822
REMARK  8 active torsions:
REMARK  status: ('A' for Active; 'I' for Inactive)
REMARK    1  A    between atoms: N_1  and  C_9 
REMARK    2  A    between atoms: O_3  and  C_4 
REMARK    3  A    between atoms: C_4  and  C_19 
REMARK    4  A    between atoms: N_7  and  C_19 
REMARK       I    between atoms: N_7  and  C_8 
REMARK    5  A    between atoms: C_8  and  C_9 
REMARK    6  A    between atoms: C_9  and  C_10 
REMARK    7  A    between atoms: C_10  and  C_11 
REMARK       I    between atoms: C_11  and  N_12 
REMARK    8  A    between atoms: C_18  and  C_19 
ROOT
HETATM    1  H           1     -27.193  -7.331 -17.981  0.00  0.00     0.163 HD
HETATM    2  N           1     -26.807  -6.518 -17.519  0.00  0.00    -0.343 N 
HETATM    3  C           1     -27.634  -5.506 -17.111  0.00  0.00     0.249 C 
HETATM    4  O           1     -27.174  -4.535 -16.559  0.00  0.00    -0.271 OA
ENDROOT
BRANCH   3   5
HETATM    5  C           1     -29.121  -5.603 -17.351  0.00  0.00     0.283 C 
BRANCH   5   6
HETATM    6  N           1     -29.851  -5.337 -16.068  0.00  0.00    -0.066 N 
HETATM    7  H           1     -30.199  -4.352 -16.061  0.00  0.00     0.275 HD
HETATM    8  H           1     -30.661  -5.993 -15.986  0.00  0.00     0.275 HD
HETATM    9  H           1     -29.203  -5.483 -15.261  0.00  0.00     0.275 HD
ENDBRANCH   5   6
BRANCH   5  10
HETATM   10  C           1     -29.536  -4.573 -18.392  0.00  0.00     0.145 C 
BRANCH  10  11
HETATM   11  C           1     -30.120  -3.365 -17.702  0.00  0.00     0.217 C 
HETATM   12  N           1     -29.320  -2.297 -17.398  0.00  0.00    -0.370 N 
HETATM   13  H           1     -29.711  -1.487 -16.934  0.00  0.00     0.159 HD
HETATM   14  H           1     -28.336  -2.317 -17.637  0.00  0.00     0.159 HD
HETATM   15  O           1     -31.293  -3.341 -17.416  0.00  0.00    -0.274 OA
ENDBRANCH  10  11
ENDBRANCH   5  10
ENDBRANCH   3   5
BRANCH   2  16
HETATM   16  C           1     -25.379  -6.424 -17.289  0.00  0.00     0.209 C 
BRANCH  16  17
HETATM   17  C           1     -24.994  -7.317 -16.116  0.00  0.00     0.200 C 
BRANCH  17  18
HETATM   18  O           1     -24.223  -8.392 -16.578  0.00  0.00    -0.398 OA
HETATM   19  H           1     -24.055  -8.235 -17.491  0.00  0.00     0.209 HD
ENDBRANCH  17  18
ENDBRANCH  16  17
BRANCH  16  20
HETATM   20  C           1     -24.640  -6.872 -18.526  0.00  0.00     0.198 C 
HETATM   21  O           1     -25.271  -7.362 -19.487  0.00  0.00    -0.646 OA
HETATM   22  O           1     -23.397  -6.754 -18.588  0.00  0.00    -0.646 OA
ENDBRANCH  16  20
ENDBRANCH   2  16
TORSDOF 8
ENDMDL
MODEL 3
REMARK VINA RESULT:      -6.0     12.996     14.903
REMARK  8 active torsions:
REMARK  status: ('A' for Active; 'I' for Inactive)
REMARK    1  A    between atoms: N_1  and  C_9 
REMARK    2  A    between atoms: O_3  and  C_4 
REMARK    3  A    between atoms: C_4  and  C_19 
REMARK    4  A    between atoms: N_7  and  C_19 
REMARK       I    between atoms: N_7  and  C_8 
REMARK    5  A    between atoms: C_8  and  C_9 
REMARK    6  A    between atoms: C_9  and  C_10 
REMARK    7  A    between atoms: C_10  and  C_11 
REMARK       I    between atoms: C_11  and  N_12 
REMARK    8  A    between atoms: C_18  and  C_19 
ROOT
HETATM    1  H           1     -22.204  -5.844  -9.446  0.00  0.00     0.163 HD
HETATM    2  N           1     -22.143  -4.894  -9.103  0.00  0.00    -0.343 N 
HETATM    3  C           1     -21.679  -4.652  -7.837  0.00  0.00     0.249 C 
HETATM    4  O           1     -21.606  -3.517  -7.428  0.00  0.00    -0.271 OA
ENDROOT
BRANCH   3   5
HETATM    5  C           1     -21.258  -5.801  -6.955  0.00  0.00     0.283 C 
BRANCH   5   6
HETATM    6  N           1     -19.903  -6.284  -7.377  0.00  0.00    -0.066 N 
HETATM    7  H           1     -19.370  -5.496  -7.809  0.00  0.00     0.275 HD
HETATM    8  H           1     -19.384  -6.638  -6.541  0.00  0.00     0.275 HD
HETATM    9  H           1     -20.009  -7.055  -8.073  0.00  0.00     0.275 HD
ENDBRANCH   5   6
BRANCH   5  10
HETATM   10  C           1     -21.202  -5.335  -5.506  0.00  0.00     0.145 C 
BRANCH  10  11
HETATM   11  C           1     -21.724  -6.427  -4.605  0.00  0.00     0.217 C 
HETATM   12  N           1     -22.074  -6.139  -3.313  0.00  0.00    -0.370 N 
HETATM   13  H           1     -22.423  -6.871  -2.708  0.00  0.00     0.159 HD
HETATM   14  H           1     -21.983  -5.194  -2.963  0.00  0.00     0.159 HD
HETATM   15  O           1     -21.832  -7.555  -5.022  0.00  0.00    -0.274 OA
ENDBRANCH  10  11
ENDBRANCH   5  10
ENDBRANCH   3   5
BRANCH   2  16
HETATM   16  C           1     -22.547  -3.789  -9.950  0.00  0.00     0.209 C 
BRANCH  16  17
HETATM   17  C           1     -21.777  -3.849 -11.263  0.00  0.00     0.200 C 
BRANCH  17  18
HETATM   18  O           1     -22.569  -4.463 -12.244  0.00  0.00    -0.398 OA
HETATM   19  H           1     -23.411  -4.044 -12.216  0.00  0.00     0.209 HD
ENDBRANCH  17  18
ENDBRANCH  16  17
BRANCH  16  20
HETATM   20  C           1     -24.027  -3.885 -10.230  0.00  0.00     0.198 C 
HETATM   21  O           1     -24.649  -4.932  -9.946  0.00  0.00    -0.646 OA
HETATM   22  O           1     -24.629  -2.920 -10.747  0.00  0.00    -0.646 OA
ENDBRANCH  16  20
ENDBRANCH   2  16
TORSDOF 8
ENDMDL
MODEL 4
REMARK VINA RESULT:      -6.0      7.674     10.067
REMARK  8 active torsions:
REMARK  status: ('A' for Active; 'I' for Inactive)
REMARK    1  A    between atoms: N_1  and  C_9 
REMARK    2  A    between atoms: O_3  and  C_4 
REMARK    3  A    between atoms: C_4  and  C_19 
REMARK    4  A    between atoms: N_7  and  C_19 
REMARK       I    between atoms: N_7  and  C_8 
REMARK    5  A    between atoms: C_8  and  C_9 
REMARK    6  A    between atoms: C_9  and  C_10 
REMARK    7  A    between atoms: C_10  and  C_11 
REMARK       I    between atoms: C_11  and  N_12 
REMARK    8  A    between atoms: C_18  and  C_19 
ROOT
HETATM    1  H           1     -27.070  -4.696 -17.591  0.00  0.00     0.163 HD
HETATM    2  N           1     -27.364  -5.639 -17.373  0.00  0.00    -0.343 N 
HETATM    3  C           1     -28.679  -5.898 -17.089  0.00  0.00     0.249 C 
HETATM    4  O           1     -29.030  -7.025 -16.830  0.00  0.00    -0.271 OA
ENDROOT
BRANCH   3   5
HETATM    5  C           1     -29.689  -4.777 -17.101  0.00  0.00     0.283 C 
BRANCH   5   6
HETATM    6  N           1     -29.497  -3.946 -18.335  0.00  0.00    -0.066 N 
HETATM    7  H           1     -28.493  -3.666 -18.415  0.00  0.00     0.275 HD
HETATM    8  H           1     -29.771  -4.503 -19.176  0.00  0.00     0.275 HD
HETATM    9  H           1     -30.093  -3.090 -18.274  0.00  0.00     0.275 HD
ENDBRANCH   5   6
BRANCH   5  10
HETATM   10  C           1     -31.095  -5.360 -17.097  0.00  0.00     0.145 C 
BRANCH  10  11
HETATM   11  C           1     -32.096  -4.261 -16.835  0.00  0.00     0.217 C 
HETATM   12  N           1     -33.001  -4.388 -15.816  0.00  0.00    -0.370 N 
HETATM   13  H           1     -33.672  -3.652 -15.641  0.00  0.00     0.159 HD
HETATM   14  H           1     -32.999  -5.218 -15.238  0.00  0.00     0.159 HD
HETATM   15  O           1     -32.099  -3.271 -17.526  0.00  0.00    -0.274 OA
ENDBRANCH  10  11
ENDBRANCH   5  10
ENDBRANCH   3   5
BRANCH   2  16
HETATM   16  C           1     -26.395  -6.717 -17.361  0.00  0.00     0.209 C 
BRANCH  16  17
HETATM   17  C           1     -25.521  -6.626 -18.606  0.00  0.00     0.200 C 
BRANCH  17  18
HETATM   18  O           1     -24.180  -6.833 -18.253  0.00  0.00    -0.398 OA
HETATM   19  H           1     -23.978  -7.729 -18.459  0.00  0.00     0.209 HD
ENDBRANCH  17  18
ENDBRANCH  16  17
BRANCH  16  20
HETATM   20  C           1     -25.531  -6.602 -16.130  0.00  0.00     0.198 C 
HETATM   21  O           1     -25.069  -5.491 -15.792  0.00  0.00    -0.646 OA
HETATM   22  O           1     -25.275  -7.619 -15.448  0.00  0.00    -0.646 OA
ENDBRANCH  16  20
ENDBRANCH   2  16
TORSDOF 8
ENDMDL
MODEL 5
REMARK VINA RESULT:      -5.9      2.404      5.228
REMARK  8 active torsions:
REMARK  status: ('A' for Active; 'I' for Inactive)
REMARK    1  A    between atoms: N_1  and  C_9 
REMARK    2  A    between atoms: O_3  and  C_4 
REMARK    3  A    between atoms: C_4  and  C_19 
REMARK    4  A    between atoms: N_7  and  C_19 
REMARK       I    between atoms: N_7  and  C_8 
REMARK    5  A    between atoms: C_8  and  C_9 
REMARK    6  A    between atoms: C_9  and  C_10 
REMARK    7  A    between atoms: C_10  and  C_11 
REMARK       I    between atoms: C_11  and  N_12 
REMARK    8  A    between atoms: C_18  and  C_19 
ROOT
HETATM    1  H           1     -35.982  -3.578 -11.481  0.00  0.00     0.163 HD
HETATM    2  N           1     -35.117  -3.260 -11.064  0.00  0.00    -0.343 N 
HETATM    3  C           1     -35.005  -1.970 -10.620  0.00  0.00     0.249 C 
HETATM    4  O           1     -33.972  -1.590 -10.121  0.00  0.00    -0.271 OA
ENDROOT
BRANCH   3   5
HETATM    5  C           1     -36.170  -1.021 -10.754  0.00  0.00     0.283 C 
BRANCH   5   6
HETATM    6  N           1     -36.379  -0.302  -9.455  0.00  0.00    -0.066 N 
HETATM    7  H           1     -35.492   0.173  -9.171  0.00  0.00     0.275 HD
HETATM    8  H           1     -37.134   0.412  -9.570  0.00  0.00     0.275 HD
HETATM    9  H           1     -36.658  -0.988  -8.717  0.00  0.00     0.275 HD
ENDBRANCH   5   6
BRANCH   5  10
HETATM   10  C           1     -35.878  -0.008 -11.853  0.00  0.00     0.145 C 
BRANCH  10  11
HETATM   11  C           1     -36.126  -0.641 -13.200  0.00  0.00     0.217 C 
HETATM   12  N           1     -35.069  -1.003 -13.991  0.00  0.00    -0.370 N 
HETATM   13  H           1     -35.235  -1.426 -14.895  0.00  0.00     0.159 HD
HETATM   14  H           1     -34.121  -0.847 -13.672  0.00  0.00     0.159 HD
HETATM   15  O           1     -37.256  -0.827 -13.581  0.00  0.00    -0.274 OA
ENDBRANCH  10  11
ENDBRANCH   5  10
ENDBRANCH   3   5
BRANCH   2  16
HETATM   16  C           1     -33.996  -4.171 -10.935  0.00  0.00     0.209 C 
BRANCH  16  17
HETATM   17  C           1     -34.515  -5.580 -10.675  0.00  0.00     0.200 C 
BRANCH  17  18
HETATM   18  O           1     -34.520  -6.306 -11.874  0.00  0.00    -0.398 OA
HETATM   19  H           1     -34.480  -7.217 -11.641  0.00  0.00     0.209 HD
ENDBRANCH  17  18
ENDBRANCH  16  17
BRANCH  16  20
HETATM   20  C           1     -33.190  -4.159 -12.211  0.00  0.00     0.198 C 
HETATM   21  O           1     -33.702  -3.734 -13.269  0.00  0.00    -0.646 OA
HETATM   22  O           1     -32.011  -4.575 -12.209  0.00  0.00    -0.646 OA
ENDBRANCH  16  20
ENDBRANCH   2  16
TORSDOF 8
ENDMDL
MODEL 6
REMARK VINA RESULT:      -5.7      2.447      3.753
REMARK  8 active torsions:
REMARK  status: ('A' for Active; 'I' for Inactive)
REMARK    1  A    between atoms: N_1  and  C_9 
REMARK    2  A    between atoms: O_3  and  C_4 
REMARK    3  A    between atoms: C_4  and  C_19 
REMARK    4  A    between atoms: N_7  and  C_19 
REMARK       I    between atoms: N_7  and  C_8 
REMARK    5  A    between atoms: C_8  and  C_9 
REMARK    6  A    between atoms: C_9  and  C_10 
REMARK    7  A    between atoms: C_10  and  C_11 
REMARK       I    between atoms: C_11  and  N_12 
REMARK    8  A    between atoms: C_18  and  C_19 
ROOT
HETATM    1  H           1     -35.136  -2.593 -13.441  0.00  0.00     0.163 HD
HETATM    2  N           1     -34.713  -2.056 -12.694  0.00  0.00    -0.343 N 
HETATM    3  C           1     -33.924  -2.680 -11.766  0.00  0.00     0.249 C 
HETATM    4  O           1     -33.418  -2.039 -10.875  0.00  0.00    -0.271 OA
ENDROOT
BRANCH   3   5
HETATM    5  C           1     -33.684  -4.167 -11.854  0.00  0.00     0.283 C 
BRANCH   5   6
HETATM    6  N           1     -32.255  -4.421 -12.230  0.00  0.00    -0.066 N 
HETATM    7  H           1     -31.680  -3.577 -12.008  0.00  0.00     0.275 HD
HETATM    8  H           1     -31.893  -5.240 -11.691  0.00  0.00     0.275 HD
HETATM    9  H           1     -32.195  -4.624 -13.253  0.00  0.00     0.275 HD
ENDBRANCH   5   6
BRANCH   5  10
HETATM   10  C           1     -33.975  -4.810 -10.505  0.00  0.00     0.145 C 
BRANCH  10  11
HETATM   11  C           1     -34.561  -6.184 -10.717  0.00  0.00     0.217 C 
HETATM   12  N           1     -34.872  -6.608 -11.981  0.00  0.00    -0.370 N 
HETATM   13  H           1     -35.266  -7.529 -12.123  0.00  0.00     0.159 HD
HETATM   14  H           1     -34.709  -5.999 -12.773  0.00  0.00     0.159 HD
HETATM   15  O           1     -34.757  -6.910  -9.772  0.00  0.00    -0.274 OA
ENDBRANCH  10  11
ENDBRANCH   5  10
ENDBRANCH   3   5
BRANCH   2  16
HETATM   16  C           1     -34.942  -0.627 -12.609  0.00  0.00     0.209 C 
BRANCH  16  17
HETATM   17  C           1     -35.135  -0.059 -14.009  0.00  0.00     0.200 C 
BRANCH  17  18
HETATM   18  O           1     -36.280   0.748 -14.034  0.00  0.00    -0.398 OA
HETATM   19  H           1     -36.505   0.932 -13.138  0.00  0.00     0.209 HD
ENDBRANCH  17  18
ENDBRANCH  16  17
BRANCH  16  20
HETATM   20  C           1     -36.180  -0.366 -11.785  0.00  0.00     0.198 C 
HETATM   21  O           1     -36.157   0.496 -10.880  0.00  0.00    -0.646 OA
HETATM   22  O           1     -37.227  -1.012 -12.007  0.00  0.00    -0.646 OA
ENDBRANCH  16  20
ENDBRANCH   2  16
TORSDOF 8
ENDMDL
MODEL 7
REMARK VINA RESULT:      -5.5     13.421     15.938
REMARK  8 active torsions:
REMARK  status: ('A' for Active; 'I' for Inactive)
REMARK    1  A    between atoms: N_1  and  C_9 
REMARK    2  A    between atoms: O_3  and  C_4 
REMARK    3  A    between atoms: C_4  and  C_19 
REMARK    4  A    between atoms: N_7  and  C_19 
REMARK       I    between atoms: N_7  and  C_8 
REMARK    5  A    between atoms: C_8  and  C_9 
REMARK    6  A    between atoms: C_9  and  C_10 
REMARK    7  A    between atoms: C_10  and  C_11 
REMARK       I    between atoms: C_11  and  N_12 
REMARK    8  A    between atoms: C_18  and  C_19 
ROOT
HETATM    1  H           1     -22.642  -5.952  -7.457  0.00  0.00     0.163 HD
HETATM    2  N           1     -22.010  -5.320  -6.983  0.00  0.00    -0.343 N 
HETATM    3  C           1     -21.730  -4.096  -7.529  0.00  0.00     0.249 C 
HETATM    4  O           1     -20.976  -3.340  -6.962  0.00  0.00    -0.271 OA
ENDROOT
BRANCH   3   5
HETATM    5  C           1     -22.362  -3.689  -8.837  0.00  0.00     0.283 C 
BRANCH   5   6
HETATM    6  N           1     -21.461  -4.084  -9.970  0.00  0.00    -0.066 N 
HETATM    7  H           1     -20.464  -3.994  -9.670  0.00  0.00     0.275 HD
HETATM    8  H           1     -21.656  -5.075 -10.240  0.00  0.00     0.275 HD
HETATM    9  H           1     -21.636  -3.459 -10.788  0.00  0.00     0.275 HD
ENDBRANCH   5   6
BRANCH   5  10
HETATM   10  C           1     -23.706  -4.388  -8.991  0.00  0.00     0.145 C 
BRANCH  10  11
HETATM   11  C           1     -24.605  -3.561  -9.876  0.00  0.00     0.217 C 
HETATM   12  N           1     -25.951  -3.511  -9.629  0.00  0.00    -0.370 N 
HETATM   13  H           1     -26.554  -2.958 -10.223  0.00  0.00     0.159 HD
HETATM   14  H           1     -26.342  -4.029  -8.852  0.00  0.00     0.159 HD
HETATM   15  O           1     -24.139  -2.945 -10.804  0.00  0.00    -0.274 OA
ENDBRANCH  10  11
ENDBRANCH   5  10
ENDBRANCH   3   5
BRANCH   2  16
HETATM   16  C           1     -21.403  -5.709  -5.726  0.00  0.00     0.209 C 
BRANCH  16  17
HETATM   17  C           1     -22.439  -6.411  -4.857  0.00  0.00     0.200 C 
BRANCH  17  18
HETATM   18  O           1     -22.168  -6.157  -3.506  0.00  0.00    -0.398 OA
HETATM   19  H           1     -21.381  -5.641  -3.478  0.00  0.00     0.209 HD
ENDBRANCH  17  18
ENDBRANCH  16  17
BRANCH  16  20
HETATM   20  C           1     -20.252  -6.648  -5.993  0.00  0.00     0.198 C 
HETATM   21  O           1     -19.951  -7.523  -5.153  0.00  0.00    -0.646 OA
HETATM   22  O           1     -19.599  -6.549  -7.055  0.00  0.00    -0.646 OA
ENDBRANCH  16  20
ENDBRANCH   2  16
TORSDOF 8
ENDMDL
MODEL 8
REMARK VINA RESULT:      -5.4      2.261      5.537
REMARK  8 active torsions:
REMARK  status: ('A' for Active; 'I' for Inactive)
REMARK    1  A    between atoms: N_1  and  C_9 
REMARK    2  A    between atoms: O_3  and  C_4 
REMARK    3  A    between atoms: C_4  and  C_19 
REMARK    4  A    between atoms: N_7  and  C_19 
REMARK       I    between atoms: N_7  and  C_8 
REMARK    5  A    between atoms: C_8  and  C_9 
REMARK    6  A    between atoms: C_9  and  C_10 
REMARK    7  A    between atoms: C_10  and  C_11 
REMARK       I    between atoms: C_11  and  N_12 
REMARK    8  A    between atoms: C_18  and  C_19 
ROOT
HETATM    1  H           1     -35.445  -2.837 -13.095  0.00  0.00     0.163 HD
HETATM    2  N           1     -35.451  -2.225 -12.289  0.00  0.00    -0.343 N 
HETATM    3  C           1     -35.931  -0.948 -12.403  0.00  0.00     0.249 C 
HETATM    4  O           1     -35.940  -0.218 -11.440  0.00  0.00    -0.271 OA
ENDROOT
BRANCH   3   5
HETATM    5  C           1     -36.451  -0.452 -13.730  0.00  0.00     0.283 C 
BRANCH   5   6
HETATM    6  N           1     -37.810   0.154 -13.538  0.00  0.00    -0.066 N 
HETATM    7  H           1     -37.718   1.188 -13.418  0.00  0.00     0.275 HD
HETATM    8  H           1     -38.402  -0.048 -14.376  0.00  0.00     0.275 HD
HETATM    9  H           1     -38.258  -0.257 -12.688  0.00  0.00     0.275 HD
ENDBRANCH   5   6
BRANCH   5  10
HETATM   10  C           1     -35.501   0.600 -14.286  0.00  0.00     0.145 C 
BRANCH  10  11
HETATM   11  C           1     -35.978   1.040 -15.648  0.00  0.00     0.217 C 
HETATM   12  N           1     -36.010   2.371 -15.965  0.00  0.00    -0.370 N 
HETATM   13  H           1     -36.331   2.666 -16.878  0.00  0.00     0.159 HD
HETATM   14  H           1     -35.713   3.060 -15.286  0.00  0.00     0.159 HD
HETATM   15  O           1     -36.333   0.218 -16.458  0.00  0.00    -0.274 OA
ENDBRANCH  10  11
ENDBRANCH   5  10
ENDBRANCH   3   5
BRANCH   2  16
HETATM   16  C           1     -34.952  -2.701 -11.014  0.00  0.00     0.209 C 
BRANCH  16  17
HETATM   17  C           1     -35.266  -4.185 -10.868  0.00  0.00     0.200 C 
BRANCH  17  18
HETATM   18  O           1     -35.072  -4.828 -12.099  0.00  0.00    -0.398 OA
HETATM   19  H           1     -35.792  -5.423 -12.212  0.00  0.00     0.209 HD
ENDBRANCH  17  18
ENDBRANCH  16  17
BRANCH  16  20
HETATM   20  C           1     -33.459  -2.494 -10.950  0.00  0.00     0.198 C 
HETATM   21  O           1     -32.990  -1.499 -10.355  0.00  0.00    -0.646 OA
HETATM   22  O           1     -32.690  -3.317 -11.493  0.00  0.00    -0.646 OA
ENDBRANCH  16  20
ENDBRANCH   2  16
TORSDOF 8
ENDMDL
MODEL 9
REMARK VINA RESULT:      -5.4      2.784      5.718
REMARK  8 active torsions:
REMARK  status: ('A' for Active; 'I' for Inactive)
REMARK    1  A    between atoms: N_1  and  C_9 
REMARK    2  A    between atoms: O_3  and  C_4 
REMARK    3  A    between atoms: C_4  and  C_19 
REMARK    4  A    between atoms: N_7  and  C_19 
REMARK       I    between atoms: N_7  and  C_8 
REMARK    5  A    between atoms: C_8  and  C_9 
REMARK    6  A    between atoms: C_9  and  C_10 
REMARK    7  A    between atoms: C_10  and  C_11 
REMARK       I    between atoms: C_11  and  N_12 
REMARK    8  A    between atoms: C_18  and  C_19 
ROOT
HETATM    1  H           1     -35.263   0.780 -11.466  0.00  0.00     0.163 HD
HETATM    2  N           1     -36.075   0.210 -11.665  0.00  0.00    -0.343 N 
HETATM    3  C           1     -36.454  -0.011 -12.962  0.00  0.00     0.249 C 
HETATM    4  O           1     -37.422  -0.693 -13.201  0.00  0.00    -0.271 OA
ENDROOT
BRANCH   3   5
HETATM    5  C           1     -35.662   0.596 -14.094  0.00  0.00     0.283 C 
BRANCH   5   6
HETATM    6  N           1     -34.245   0.810 -13.653  0.00  0.00    -0.066 N 
HETATM    7  H           1     -33.765   1.455 -14.321  0.00  0.00     0.275 HD
HETATM    8  H           1     -34.238   1.232 -12.697  0.00  0.00     0.275 HD
HETATM    9  H           1     -33.744  -0.107 -13.633  0.00  0.00     0.275 HD
ENDBRANCH   5   6
BRANCH   5  10
HETATM   10  C           1     -35.684  -0.345 -15.292  0.00  0.00     0.145 C 
BRANCH  10  11
HETATM   11  C           1     -36.906  -0.065 -16.130  0.00  0.00     0.217 C 
HETATM   12  N           1     -37.591   1.110 -15.972  0.00  0.00    -0.370 N 
HETATM   13  H           1     -38.411   1.298 -16.533  0.00  0.00     0.159 HD
HETATM   14  H           1     -37.276   1.791 -15.292  0.00  0.00     0.159 HD
HETATM   15  O           1     -37.282  -0.877 -16.940  0.00  0.00    -0.274 OA
ENDBRANCH  10  11
ENDBRANCH   5  10
ENDBRANCH   3   5
BRANCH   2  16
HETATM   16  C           1     -36.836  -0.374 -10.578  0.00  0.00     0.209 C 
BRANCH  16  17
HETATM   17  C           1     -36.113  -1.611 -10.060  0.00  0.00     0.200 C 
BRANCH  17  18
HETATM   18  O           1     -34.728  -1.427 -10.176  0.00  0.00    -0.398 OA
HETATM   19  H           1     -34.339  -2.284 -10.186  0.00  0.00     0.209 HD
ENDBRANCH  17  18
ENDBRANCH  16  17
BRANCH  16  20
HETATM   20  C           1     -36.973   0.633  -9.463  0.00  0.00     0.198 C 
HETATM   21  O           1     -36.218   0.570  -8.468  0.00  0.00    -0.646 OA
HETATM   22  O           1     -37.841   1.529  -9.533  0.00  0.00    -0.646 OA
ENDBRANCH  16  20
ENDBRANCH   2  16
TORSDOF 8
ENDMDL
