MODEL 1
REMARK VINA RESULT:      -5.9      0.000      0.000
REMARK  3 active torsions:
REMARK  status: ('A' for Active; 'I' for Inactive)
REMARK    1  A    between atoms: C_2  and  C_12 
REMARK    2  A    between atoms: N_6  and  C_12 
REMARK       I    between atoms: N_6  and  C_7 
REMARK    3  A    between atoms: C_7  and  C_10 
ROOT
HETATM    1  H           1     -21.165  -5.448  -9.866  0.00  0.00     0.163 HD
HETATM    2  N           1     -21.782  -4.775  -9.434  0.00  0.00    -0.345 N 
HETATM    3  C           1     -22.000  -4.813  -8.082  0.00  0.00     0.251 C 
HETATM    4  O           1     -22.738  -4.008  -7.566  0.00  0.00    -0.271 OA
ENDROOT
BRANCH   3   5
HETATM    5  C           1     -21.320  -5.863  -7.239  0.00  0.00     0.311 C 
HETATM    6  N           1     -19.900  -5.954  -7.568  0.00  0.00     0.097 N 
HETATM    7  H           1     -19.501  -6.823  -7.213  0.00  0.00     0.317 HD
HETATM    8  C           1     -19.281  -4.821  -6.886  0.00  0.00     0.271 C 
HETATM    9  C           1     -19.988  -4.776  -5.541  0.00  0.00     0.033 C 
HETATM   10  C           1     -21.327  -5.467  -5.772  0.00  0.00     0.047 C 
ENDBRANCH   3   5
BRANCH   2  11
HETATM   11  C           1     -22.436  -3.766 -10.244  0.00  0.00     0.181 C 
HETATM   12  C           1     -21.483  -3.290 -11.332  0.00  0.00     0.043 C 
BRANCH  11  13
HETATM   13  C           1     -23.670  -4.357 -10.882  0.00  0.00     0.196 C 
HETATM   14  O           1     -24.738  -4.422 -10.234  0.00  0.00    -0.646 OA
HETATM   15  O           1     -23.625  -4.781 -12.057  0.00  0.00    -0.646 OA
ENDBRANCH  11  13
ENDBRANCH   2  11
TORSDOF 3
ENDMDL
MODEL 2
REMARK VINA RESULT:      -5.7      9.394     11.490
REMARK  3 active torsions:
REMARK  status: ('A' for Active; 'I' for Inactive)
REMARK    1  A    between atoms: C_2  and  C_12 
REMARK    2  A    between atoms: N_6  and  C_12 
REMARK       I    between atoms: N_6  and  C_7 
REMARK    3  A    between atoms: C_7  and  C_10 
ROOT
HETATM    1  H           1     -27.291  -6.902 -18.257  0.00  0.00     0.163 HD
HETATM    2  N           1     -27.089  -6.180 -17.578  0.00  0.00    -0.345 N 
HETATM    3  C           1     -27.928  -5.105 -17.451  0.00  0.00     0.251 C 
HETATM    4  O           1     -27.687  -4.243 -16.640  0.00  0.00    -0.271 OA
ENDROOT
BRANCH   3   5
HETATM    5  C           1     -29.152  -4.996 -18.327  0.00  0.00     0.311 C 
HETATM    6  N           1     -29.920  -6.238 -18.302  0.00  0.00     0.097 N 
HETATM    7  H           1     -30.577  -6.272 -19.081  0.00  0.00     0.317 HD
HETATM    8  C           1     -30.660  -6.199 -17.043  0.00  0.00     0.271 C 
HETATM    9  C           1     -31.108  -4.752 -16.930  0.00  0.00     0.033 C 
HETATM   10  C           1     -30.119  -3.961 -17.779  0.00  0.00     0.047 C 
ENDBRANCH   3   5
BRANCH   2  11
HETATM   11  C           1     -25.913  -6.284 -16.737  0.00  0.00     0.181 C 
HETATM   12  C           1     -26.227  -7.156 -15.528  0.00  0.00     0.043 C 
BRANCH  11  13
HETATM   13  C           1     -24.786  -6.905 -17.525  0.00  0.00     0.196 C 
HETATM   14  O           1     -24.647  -6.634 -18.737  0.00  0.00    -0.646 OA
HETATM   15  O           1     -23.991  -7.692 -16.965  0.00  0.00    -0.646 OA
ENDBRANCH  11  13
ENDBRANCH   2  11
TORSDOF 3
ENDMDL
MODEL 3
REMARK VINA RESULT:      -5.6      1.402      2.003
REMARK  3 active torsions:
REMARK  status: ('A' for Active; 'I' for Inactive)
REMARK    1  A    between atoms: C_2  and  C_12 
REMARK    2  A    between atoms: N_6  and  C_12 
REMARK       I    between atoms: N_6  and  C_7 
REMARK    3  A    between atoms: C_7  and  C_10 
ROOT
HETATM    1  H           1     -21.471  -3.700  -9.681  0.00  0.00     0.163 HD
HETATM    2  N           1     -22.305  -4.033  -9.217  0.00  0.00    -0.345 N 
HETATM    3  C           1     -22.334  -4.139  -7.852  0.00  0.00     0.251 C 
HETATM    4  O           1     -23.330  -4.537  -7.298  0.00  0.00    -0.271 OA
ENDROOT
BRANCH   3   5
HETATM    5  C           1     -21.119  -3.760  -7.041  0.00  0.00     0.311 C 
HETATM    6  N           1     -20.919  -4.694  -5.937  0.00  0.00     0.097 N 
HETATM    7  H           1     -20.286  -4.301  -5.241  0.00  0.00     0.317 HD
HETATM    8  C           1     -20.304  -5.870  -6.545  0.00  0.00     0.271 C 
HETATM    9  C           1     -19.319  -5.290  -7.545  0.00  0.00     0.033 C 
HETATM   10  C           1     -19.852  -3.898  -7.867  0.00  0.00     0.047 C 
ENDBRANCH   3   5
BRANCH   2  11
HETATM   11  C           1     -23.472  -4.398  -9.996  0.00  0.00     0.181 C 
HETATM   12  C           1     -24.501  -3.277  -9.928  0.00  0.00     0.043 C 
BRANCH  11  13
HETATM   13  C           1     -23.067  -4.620 -11.433  0.00  0.00     0.196 C 
HETATM   14  O           1     -21.857  -4.610 -11.750  0.00  0.00    -0.646 OA
HETATM   15  O           1     -23.940  -4.814 -12.306  0.00  0.00    -0.646 OA
ENDBRANCH  11  13
ENDBRANCH   2  11
TORSDOF 3
ENDMDL
MODEL 4
REMARK VINA RESULT:      -5.1      1.916      2.497
REMARK  3 active torsions:
REMARK  status: ('A' for Active; 'I' for Inactive)
REMARK    1  A    between atoms: C_2  and  C_12 
REMARK    2  A    between atoms: N_6  and  C_12 
REMARK       I    between atoms: N_6  and  C_7 
REMARK    3  A    between atoms: C_7  and  C_10 
ROOT
HETATM    1  H           1     -22.910  -3.766  -8.652  0.00  0.00     0.163 HD
HETATM    2  N           1     -22.115  -4.264  -9.030  0.00  0.00    -0.345 N 
HETATM    3  C           1     -21.079  -4.625  -8.210  0.00  0.00     0.251 C 
HETATM    4  O           1     -20.130  -5.220  -8.662  0.00  0.00    -0.271 OA
ENDROOT
BRANCH   3   5
HETATM    5  C           1     -21.124  -4.278  -6.743  0.00  0.00     0.311 C 
HETATM    6  N           1     -22.238  -4.952  -6.083  0.00  0.00     0.097 N 
HETATM    7  H           1     -22.438  -4.521  -5.180  0.00  0.00     0.317 HD
HETATM    8  C           1     -21.781  -6.323  -5.876  0.00  0.00     0.271 C 
HETATM    9  C           1     -20.329  -6.163  -5.457  0.00  0.00     0.033 C 
HETATM   10  C           1     -19.898  -4.814  -6.022  0.00  0.00     0.047 C 
ENDBRANCH   3   5
BRANCH   2  11
HETATM   11  C           1     -22.073  -4.598 -10.440  0.00  0.00     0.181 C 
HETATM   12  C           1     -23.492  -4.762 -10.968  0.00  0.00     0.043 C 
BRANCH  11  13
HETATM   13  C           1     -21.381  -3.490 -11.198  0.00  0.00     0.196 C 
HETATM   14  O           1     -20.164  -3.583 -11.469  0.00  0.00    -0.646 OA
HETATM   15  O           1     -22.025  -2.479 -11.553  0.00  0.00    -0.646 OA
ENDBRANCH  11  13
ENDBRANCH   2  11
TORSDOF 3
ENDMDL
MODEL 5
REMARK VINA RESULT:      -5.1      1.436      2.008
REMARK  3 active torsions:
REMARK  status: ('A' for Active; 'I' for Inactive)
REMARK    1  A    between atoms: C_2  and  C_12 
REMARK    2  A    between atoms: N_6  and  C_12 
REMARK       I    between atoms: N_6  and  C_7 
REMARK    3  A    between atoms: C_7  and  C_10 
ROOT
HETATM    1  H           1     -20.656  -5.574  -9.057  0.00  0.00     0.163 HD
HETATM    2  N           1     -21.032  -4.676  -8.785  0.00  0.00    -0.345 N 
HETATM    3  C           1     -20.759  -4.166  -7.544  0.00  0.00     0.251 C 
HETATM    4  O           1     -21.208  -3.092  -7.220  0.00  0.00    -0.271 OA
ENDROOT
BRANCH   3   5
HETATM    5  C           1     -19.899  -4.946  -6.581  0.00  0.00     0.311 C 
HETATM    6  N           1     -20.424  -4.852  -5.222  0.00  0.00     0.097 N 
HETATM    7  H           1     -19.720  -5.135  -4.541  0.00  0.00     0.317 HD
HETATM    8  C           1     -21.542  -5.791  -5.183  0.00  0.00     0.271 C 
HETATM    9  C           1     -21.039  -6.987  -5.973  0.00  0.00     0.033 C 
HETATM   10  C           1     -19.954  -6.433  -6.888  0.00  0.00     0.047 C 
ENDBRANCH   3   5
BRANCH   2  11
HETATM   11  C           1     -21.858  -3.926  -9.711  0.00  0.00     0.181 C 
HETATM   12  C           1     -21.300  -4.066 -11.121  0.00  0.00     0.043 C 
BRANCH  11  13
HETATM   13  C           1     -23.268  -4.464  -9.674  0.00  0.00     0.196 C 
HETATM   14  O           1     -23.652  -5.271 -10.548  0.00  0.00    -0.646 OA
HETATM   15  O           1     -24.052  -4.102  -8.770  0.00  0.00    -0.646 OA
ENDBRANCH  11  13
ENDBRANCH   2  11
TORSDOF 3
ENDMDL
MODEL 6
REMARK VINA RESULT:      -5.0      3.105      5.873
REMARK  3 active torsions:
REMARK  status: ('A' for Active; 'I' for Inactive)
REMARK    1  A    between atoms: C_2  and  C_12 
REMARK    2  A    between atoms: N_6  and  C_12 
REMARK       I    between atoms: N_6  and  C_7 
REMARK    3  A    between atoms: C_7  and  C_10 
ROOT
HETATM    1  H           1     -19.738  -5.952  -4.894  0.00  0.00     0.163 HD
HETATM    2  N           1     -20.732  -6.107  -4.998  0.00  0.00    -0.345 N 
HETATM    3  C           1     -21.471  -5.294  -5.815  0.00  0.00     0.251 C 
HETATM    4  O           1     -22.658  -5.480  -5.939  0.00  0.00    -0.271 OA
ENDROOT
BRANCH   3   5
HETATM    5  C           1     -20.802  -4.165  -6.559  0.00  0.00     0.311 C 
HETATM    6  N           1     -19.623  -4.642  -7.276  0.00  0.00     0.097 N 
HETATM    7  H           1     -19.024  -3.862  -7.547  0.00  0.00     0.317 HD
HETATM    8  C           1     -20.147  -5.292  -8.475  0.00  0.00     0.271 C 
HETATM    9  C           1     -21.277  -4.379  -8.919  0.00  0.00     0.033 C 
HETATM   10  C           1     -21.704  -3.633  -7.660  0.00  0.00     0.047 C 
ENDBRANCH   3   5
BRANCH   2  11
HETATM   11  C           1     -21.375  -7.193  -4.283  0.00  0.00     0.181 C 
HETATM   12  C           1     -20.515  -8.446  -4.379  0.00  0.00     0.043 C 
BRANCH  11  13
HETATM   13  C           1     -21.542  -6.809  -2.833  0.00  0.00     0.196 C 
HETATM   14  O           1     -20.803  -7.318  -1.962  0.00  0.00    -0.646 OA
HETATM   15  O           1     -22.420  -5.982  -2.502  0.00  0.00    -0.646 OA
ENDBRANCH  11  13
ENDBRANCH   2  11
TORSDOF 3
ENDMDL
MODEL 7
REMARK VINA RESULT:      -4.9     10.874     11.879
REMARK  3 active torsions:
REMARK  status: ('A' for Active; 'I' for Inactive)
REMARK    1  A    between atoms: C_2  and  C_12 
REMARK    2  A    between atoms: N_6  and  C_12 
REMARK       I    between atoms: N_6  and  C_7 
REMARK    3  A    between atoms: C_7  and  C_10 
ROOT
HETATM    1  H           1     -26.093  -5.767 -17.704  0.00  0.00     0.163 HD
HETATM    2  N           1     -26.728  -6.277 -18.304  0.00  0.00    -0.345 N 
HETATM    3  C           1     -28.055  -6.366 -17.979  0.00  0.00     0.251 C 
HETATM    4  O           1     -28.814  -6.974 -18.696  0.00  0.00    -0.271 OA
ENDROOT
BRANCH   3   5
HETATM    5  C           1     -28.570  -5.705 -16.724  0.00  0.00     0.311 C 
HETATM    6  N           1     -28.189  -4.296 -16.685  0.00  0.00     0.097 N 
HETATM    7  H           1     -28.289  -3.920 -15.742  0.00  0.00     0.317 HD
HETATM    8  C           1     -29.130  -3.625 -17.577  0.00  0.00     0.271 C 
HETATM    9  C           1     -30.457  -4.303 -17.281  0.00  0.00     0.033 C 
HETATM   10  C           1     -30.089  -5.670 -16.714  0.00  0.00     0.047 C 
ENDBRANCH   3   5
BRANCH   2  11
HETATM   11  C           1     -26.234  -6.911 -19.510  0.00  0.00     0.181 C 
HETATM   12  C           1     -26.512  -6.014 -20.709  0.00  0.00     0.043 C 
BRANCH  11  13
HETATM   13  C           1     -24.746  -7.136 -19.386  0.00  0.00     0.196 C 
HETATM   14  O           1     -24.141  -7.808 -20.249  0.00  0.00    -0.646 OA
HETATM   15  O           1     -24.119  -6.650 -18.419  0.00  0.00    -0.646 OA
ENDBRANCH  11  13
ENDBRANCH   2  11
TORSDOF 3
ENDMDL
MODEL 8
REMARK VINA RESULT:      -4.9      8.902     10.838
REMARK  3 active torsions:
REMARK  status: ('A' for Active; 'I' for Inactive)
REMARK    1  A    between atoms: C_2  and  C_12 
REMARK    2  A    between atoms: N_6  and  C_12 
REMARK       I    between atoms: N_6  and  C_7 
REMARK    3  A    between atoms: C_7  and  C_10 
ROOT
HETATM    1  H           1     -26.137  -4.942 -17.003  0.00  0.00     0.163 HD
HETATM    2  N           1     -26.529  -5.872 -16.933  0.00  0.00    -0.345 N 
HETATM    3  C           1     -27.819  -6.041 -16.507  0.00  0.00     0.251 C 
HETATM    4  O           1     -28.287  -7.151 -16.423  0.00  0.00    -0.271 OA
ENDROOT
BRANCH   3   5
HETATM    5  C           1     -28.655  -4.840 -16.139  0.00  0.00     0.311 C 
HETATM    6  N           1     -28.638  -3.848 -17.210  0.00  0.00     0.097 N 
HETATM    7  H           1     -28.961  -2.942 -16.870  0.00  0.00     0.317 HD
HETATM    8  C           1     -29.575  -4.354 -18.210  0.00  0.00     0.271 C 
HETATM    9  C           1     -30.725  -4.903 -17.383  0.00  0.00     0.033 C 
HETATM   10  C           1     -30.122  -5.217 -16.019  0.00  0.00     0.047 C 
ENDBRANCH   3   5
BRANCH   2  11
HETATM   11  C           1     -25.726  -7.026 -17.286  0.00  0.00     0.181 C 
HETATM   12  C           1     -24.834  -6.683 -18.473  0.00  0.00     0.043 C 
BRANCH  11  13
HETATM   13  C           1     -24.866  -7.418 -16.109  0.00  0.00     0.196 C 
HETATM   14  O           1     -25.111  -6.954 -14.974  0.00  0.00    -0.646 OA
HETATM   15  O           1     -23.908  -8.206 -16.269  0.00  0.00    -0.646 OA
ENDBRANCH  11  13
ENDBRANCH   2  11
TORSDOF 3
ENDMDL
MODEL 9
REMARK VINA RESULT:      -4.8      5.972      7.875
REMARK  3 active torsions:
REMARK  status: ('A' for Active; 'I' for Inactive)
REMARK    1  A    between atoms: C_2  and  C_12 
REMARK    2  A    between atoms: N_6  and  C_12 
REMARK       I    between atoms: N_6  and  C_7 
REMARK    3  A    between atoms: C_7  and  C_10 
ROOT
HETATM    1  H           1     -22.533  -9.021  -2.820  0.00  0.00     0.163 HD
HETATM    2  N           1     -21.620  -8.591  -2.755  0.00  0.00    -0.345 N 
HETATM    3  C           1     -20.846  -8.792  -1.643  0.00  0.00     0.251 C 
HETATM    4  O           1     -19.756  -8.279  -1.565  0.00  0.00    -0.271 OA
ENDROOT
BRANCH   3   5
HETATM    5  C           1     -21.357  -9.655  -0.515  0.00  0.00     0.311 C 
HETATM    6  N           1     -21.040  -9.059   0.779  0.00  0.00     0.097 N 
HETATM    7  H           1     -21.132  -9.747   1.526  0.00  0.00     0.317 HD
HETATM    8  C           1     -22.035  -8.005   0.964  0.00  0.00     0.271 C 
HETATM    9  C           1     -23.321  -8.625   0.444  0.00  0.00     0.033 C 
HETATM   10  C           1     -22.875  -9.715  -0.524  0.00  0.00     0.047 C 
ENDBRANCH   3   5
BRANCH   2  11
HETATM   11  C           1     -21.129  -7.762  -3.838  0.00  0.00     0.181 C 
HETATM   12  C           1     -21.256  -8.517  -5.155  0.00  0.00     0.043 C 
BRANCH  11  13
HETATM   13  C           1     -21.942  -6.492  -3.907  0.00  0.00     0.196 C 
HETATM   14  O           1     -22.353  -5.955  -2.855  0.00  0.00    -0.646 OA
HETATM   15  O           1     -22.206  -5.978  -5.016  0.00  0.00    -0.646 OA
ENDBRANCH  11  13
ENDBRANCH   2  11
TORSDOF 3
ENDMDL
