MODEL 1
REMARK VINA RESULT:      -5.9      0.000      0.000
REMARK  9 active torsions:
REMARK  status: ('A' for Active; 'I' for Inactive)
REMARK    1  A    between atoms: C_1  and  O_15 
REMARK    2  A    between atoms: C_1  and  C_2 
REMARK    3  A    between atoms: C_2  and  C_3 
REMARK    4  A    between atoms: C_2  and  N_14 
REMARK       I    between atoms: C_6  and  N_14 
REMARK    5  A    between atoms: C_6  and  C_7 
REMARK    6  A    between atoms: C_7  and  C_8 
REMARK    7  A    between atoms: C_7  and  N_17 
REMARK    8  A    between atoms: C_8  and  C_12 
REMARK    9  A    between atoms: S_11  and  C_12 
ROOT
HETATM    1  C           1     -35.488  -1.070 -12.869  0.00  0.00     0.249 C 
HETATM    2  H           1     -34.037  -0.458 -14.212  0.00  0.00     0.163 HD
HETATM    3  O           1     -36.676  -1.171 -12.671  0.00  0.00    -0.271 OA
HETATM    4  N           1     -35.032  -0.543 -14.047  0.00  0.00    -0.343 N 
ENDROOT
BRANCH   1   5
HETATM    5  C           1     -34.508  -1.526 -11.816  0.00  0.00     0.275 C 
BRANCH   5   6
HETATM    6  C           1     -34.037  -2.938 -12.138  0.00  0.00     0.053 C 
BRANCH   6   7
HETATM    7  C           1     -33.432  -3.569 -10.891  0.00  0.00     0.076 C 
BRANCH   7   8
HETATM    8  S           1     -34.065  -5.259 -10.700  0.00  0.00    -0.173 SA
HETATM    9  C           1     -34.852  -5.362 -12.333  0.00  0.00     0.089 C 
ENDBRANCH   7   8
ENDBRANCH   6   7
ENDBRANCH   5   6
BRANCH   5  10
HETATM   10  N           1     -35.178  -1.517 -10.473  0.00  0.00    -0.066 N 
HETATM   11  H           1     -35.517  -2.479 -10.247  0.00  0.00     0.275 HD
HETATM   12  H           1     -34.495  -1.208  -9.746  0.00  0.00     0.275 HD
HETATM   13  H           1     -35.988  -0.857 -10.494  0.00  0.00     0.275 HD
ENDBRANCH   5  10
ENDBRANCH   1   5
BRANCH   4  14
HETATM   14  C           1     -35.975  -0.105 -15.058  0.00  0.00     0.209 C 
BRANCH  14  15
HETATM   15  C           1     -35.649   1.325 -15.468  0.00  0.00     0.200 C 
BRANCH  15  16
HETATM   16  O           1     -36.754   1.887 -16.123  0.00  0.00    -0.398 OA
HETATM   17  H           1     -36.933   2.710 -15.701  0.00  0.00     0.209 HD
ENDBRANCH  15  16
ENDBRANCH  14  15
BRANCH  14  18
HETATM   18  C           1     -35.876  -1.009 -16.262  0.00  0.00     0.198 C 
HETATM   19  O           1     -36.611  -0.811 -17.254  0.00  0.00    -0.646 OA
HETATM   20  O           1     -35.059  -1.955 -16.267  0.00  0.00    -0.646 OA
ENDBRANCH  14  18
ENDBRANCH   4  14
TORSDOF 9
ENDMDL
MODEL 2
REMARK VINA RESULT:      -5.7     13.255     14.840
REMARK  9 active torsions:
REMARK  status: ('A' for Active; 'I' for Inactive)
REMARK    1  A    between atoms: C_1  and  O_15 
REMARK    2  A    between atoms: C_1  and  C_2 
REMARK    3  A    between atoms: C_2  and  C_3 
REMARK    4  A    between atoms: C_2  and  N_14 
REMARK       I    between atoms: C_6  and  N_14 
REMARK    5  A    between atoms: C_6  and  C_7 
REMARK    6  A    between atoms: C_7  and  C_8 
REMARK    7  A    between atoms: C_7  and  N_17 
REMARK    8  A    between atoms: C_8  and  C_12 
REMARK    9  A    between atoms: S_11  and  C_12 
ROOT
HETATM    1  C           1     -21.658  -4.702  -7.869  0.00  0.00     0.249 C 
HETATM    2  H           1     -22.177  -5.838  -9.520  0.00  0.00     0.163 HD
HETATM    3  O           1     -21.596  -3.583  -7.417  0.00  0.00    -0.271 OA
HETATM    4  N           1     -22.125  -4.901  -9.141  0.00  0.00    -0.343 N 
ENDROOT
BRANCH   1   5
HETATM    5  C           1     -21.221  -5.879  -7.032  0.00  0.00     0.275 C 
BRANCH   5   6
HETATM    6  C           1     -21.347  -5.528  -5.556  0.00  0.00     0.053 C 
BRANCH   6   7
HETATM    7  C           1     -22.194  -6.581  -4.853  0.00  0.00     0.076 C 
BRANCH   7   8
HETATM    8  S           1     -21.275  -7.252  -3.440  0.00  0.00    -0.173 SA
HETATM    9  C           1     -22.067  -6.214  -2.178  0.00  0.00     0.089 C 
ENDBRANCH   7   8
ENDBRANCH   6   7
ENDBRANCH   5   6
BRANCH   5  10
HETATM   10  N           1     -19.792  -6.211  -7.347  0.00  0.00    -0.066 N 
HETATM   11  H           1     -19.439  -5.564  -8.088  0.00  0.00     0.275 HD
HETATM   12  H           1     -19.212  -6.104  -6.486  0.00  0.00     0.275 HD
HETATM   13  H           1     -19.731  -7.197  -7.689  0.00  0.00     0.275 HD
ENDBRANCH   5  10
ENDBRANCH   1   5
BRANCH   4  14
HETATM   14  C           1     -22.545  -3.770  -9.944  0.00  0.00     0.209 C 
BRANCH  14  15
HETATM   15  C           1     -21.766  -3.761 -11.253  0.00  0.00     0.200 C 
BRANCH  15  16
HETATM   16  O           1     -22.520  -4.394 -12.251  0.00  0.00    -0.398 OA
HETATM   17  H           1     -22.923  -3.714 -12.762  0.00  0.00     0.209 HD
ENDBRANCH  15  16
ENDBRANCH  14  15
BRANCH  14  18
HETATM   18  C           1     -24.021  -3.883 -10.238  0.00  0.00     0.198 C 
HETATM   19  O           1     -24.629  -2.924 -10.762  0.00  0.00    -0.646 OA
HETATM   20  O           1     -24.635  -4.935  -9.957  0.00  0.00    -0.646 OA
ENDBRANCH  14  18
ENDBRANCH   4  14
TORSDOF 9
ENDMDL
MODEL 3
REMARK VINA RESULT:      -5.2      3.010      3.614
REMARK  9 active torsions:
REMARK  status: ('A' for Active; 'I' for Inactive)
REMARK    1  A    between atoms: C_1  and  O_15 
REMARK    2  A    between atoms: C_1  and  C_2 
REMARK    3  A    between atoms: C_2  and  C_3 
REMARK    4  A    between atoms: C_2  and  N_14 
REMARK       I    between atoms: C_6  and  N_14 
REMARK    5  A    between atoms: C_6  and  C_7 
REMARK    6  A    between atoms: C_7  and  C_8 
REMARK    7  A    between atoms: C_7  and  N_17 
REMARK    8  A    between atoms: C_8  and  C_12 
REMARK    9  A    between atoms: S_11  and  C_12 
ROOT
HETATM    1  C           1     -36.829  -0.365 -12.749  0.00  0.00     0.249 C 
HETATM    2  H           1     -34.941  -0.103 -13.557  0.00  0.00     0.163 HD
HETATM    3  O           1     -38.016  -0.312 -12.968  0.00  0.00    -0.271 OA
HETATM    4  N           1     -35.935  -0.059 -13.740  0.00  0.00    -0.343 N 
ENDROOT
BRANCH   1   5
HETATM    5  C           1     -36.332  -0.768 -11.382  0.00  0.00     0.275 C 
BRANCH   5   6
HETATM    6  C           1     -36.708   0.304 -10.369  0.00  0.00     0.053 C 
BRANCH   6   7
HETATM    7  C           1     -37.135  -0.356  -9.064  0.00  0.00     0.076 C 
BRANCH   7   8
HETATM    8  S           1     -38.071   0.832  -8.062  0.00  0.00    -0.173 SA
HETATM    9  C           1     -36.987   0.762  -6.607  0.00  0.00     0.089 C 
ENDBRANCH   7   8
ENDBRANCH   6   7
ENDBRANCH   5   6
BRANCH   5  10
HETATM   10  N           1     -34.840  -0.919 -11.419  0.00  0.00    -0.066 N 
HETATM   11  H           1     -34.406  -0.269 -10.725  0.00  0.00     0.275 HD
HETATM   12  H           1     -34.584  -1.903 -11.181  0.00  0.00     0.275 HD
HETATM   13  H           1     -34.490  -0.689 -12.377  0.00  0.00     0.275 HD
ENDBRANCH   5  10
ENDBRANCH   1   5
BRANCH   4  14
HETATM   14  C           1     -36.414   0.327 -15.053  0.00  0.00     0.209 C 
BRANCH  14  15
HETATM   15  C           1     -35.730   1.620 -15.481  0.00  0.00     0.200 C 
BRANCH  15  16
HETATM   16  O           1     -36.562   2.318 -16.367  0.00  0.00    -0.398 OA
HETATM   17  H           1     -36.005   2.690 -17.030  0.00  0.00     0.209 HD
ENDBRANCH  15  16
ENDBRANCH  14  15
BRANCH  14  18
HETATM   18  C           1     -36.094  -0.763 -16.046  0.00  0.00     0.198 C 
HETATM   19  O           1     -36.637  -0.762 -17.172  0.00  0.00    -0.646 OA
HETATM   20  O           1     -35.287  -1.668 -15.741  0.00  0.00    -0.646 OA
ENDBRANCH  14  18
ENDBRANCH   4  14
TORSDOF 9
ENDMDL
MODEL 4
REMARK VINA RESULT:      -5.2     11.473     12.538
REMARK  9 active torsions:
REMARK  status: ('A' for Active; 'I' for Inactive)
REMARK    1  A    between atoms: C_1  and  O_15 
REMARK    2  A    between atoms: C_1  and  C_2 
REMARK    3  A    between atoms: C_2  and  C_3 
REMARK    4  A    between atoms: C_2  and  N_14 
REMARK       I    between atoms: C_6  and  N_14 
REMARK    5  A    between atoms: C_6  and  C_7 
REMARK    6  A    between atoms: C_7  and  C_8 
REMARK    7  A    between atoms: C_7  and  N_17 
REMARK    8  A    between atoms: C_8  and  C_12 
REMARK    9  A    between atoms: S_11  and  C_12 
ROOT
HETATM    1  C           1     -26.373  -6.483 -19.539  0.00  0.00     0.249 C 
HETATM    2  H           1     -26.188  -6.698 -17.489  0.00  0.00     0.163 HD
HETATM    3  O           1     -27.123  -6.196 -20.441  0.00  0.00    -0.271 OA
HETATM    4  N           1     -26.817  -6.457 -18.244  0.00  0.00    -0.343 N 
ENDROOT
BRANCH   1   5
HETATM    5  C           1     -24.945  -6.869 -19.840  0.00  0.00     0.275 C 
BRANCH   5   6
HETATM    6  C           1     -24.921  -7.869 -20.988  0.00  0.00     0.053 C 
BRANCH   6   7
HETATM    7  C           1     -24.118  -7.295 -22.147  0.00  0.00     0.076 C 
BRANCH   7   8
HETATM    8  S           1     -23.054  -8.587 -22.847  0.00  0.00    -0.173 SA
HETATM    9  C           1     -21.941  -8.723 -21.418  0.00  0.00     0.089 C 
ENDBRANCH   7   8
ENDBRANCH   6   7
ENDBRANCH   5   6
BRANCH   5  10
HETATM   10  N           1     -24.330  -7.491 -18.622  0.00  0.00    -0.066 N 
HETATM   11  H           1     -23.648  -8.228 -18.914  0.00  0.00     0.275 HD
HETATM   12  H           1     -23.833  -6.757 -18.070  0.00  0.00     0.275 HD
HETATM   13  H           1     -25.079  -7.922 -18.035  0.00  0.00     0.275 HD
ENDBRANCH   5  10
ENDBRANCH   1   5
BRANCH   4  14
HETATM   14  C           1     -28.189  -6.085 -17.956  0.00  0.00     0.209 C 
BRANCH  14  15
HETATM   15  C           1     -28.747  -7.007 -16.880  0.00  0.00     0.200 C 
BRANCH  15  16
HETATM   16  O           1     -29.507  -6.258 -15.971  0.00  0.00    -0.398 OA
HETATM   17  H           1     -29.300  -6.579 -15.110  0.00  0.00     0.209 HD
ENDBRANCH  15  16
ENDBRANCH  14  15
BRANCH  14  18
HETATM   18  C           1     -28.230  -4.658 -17.468  0.00  0.00     0.198 C 
HETATM   19  O           1     -29.098  -3.873 -17.908  0.00  0.00    -0.646 OA
HETATM   20  O           1     -27.397  -4.262 -16.624  0.00  0.00    -0.646 OA
ENDBRANCH  14  18
ENDBRANCH   4  14
TORSDOF 9
ENDMDL
MODEL 5
REMARK VINA RESULT:      -5.2     13.142     14.758
REMARK  9 active torsions:
REMARK  status: ('A' for Active; 'I' for Inactive)
REMARK    1  A    between atoms: C_1  and  O_15 
REMARK    2  A    between atoms: C_1  and  C_2 
REMARK    3  A    between atoms: C_2  and  C_3 
REMARK    4  A    between atoms: C_2  and  N_14 
REMARK       I    between atoms: C_6  and  N_14 
REMARK    5  A    between atoms: C_6  and  C_7 
REMARK    6  A    between atoms: C_7  and  C_8 
REMARK    7  A    between atoms: C_7  and  N_17 
REMARK    8  A    between atoms: C_8  and  C_12 
REMARK    9  A    between atoms: S_11  and  C_12 
ROOT
HETATM    1  C           1     -21.840  -4.290  -7.480  0.00  0.00     0.249 C 
HETATM    2  H           1     -22.788  -5.711  -8.648  0.00  0.00     0.163 HD
HETATM    3  O           1     -21.441  -3.150  -7.437  0.00  0.00    -0.271 OA
HETATM    4  N           1     -22.454  -4.757  -8.612  0.00  0.00    -0.343 N 
ENDROOT
BRANCH   1   5
HETATM    5  C           1     -21.662  -5.197  -6.288  0.00  0.00     0.275 C 
BRANCH   5   6
HETATM    6  C           1     -20.887  -6.439  -6.706  0.00  0.00     0.053 C 
BRANCH   6   7
HETATM    7  C           1     -20.205  -7.047  -5.487  0.00  0.00     0.076 C 
BRANCH   7   8
HETATM    8  S           1     -21.020  -8.609  -5.053  0.00  0.00    -0.173 SA
HETATM    9  C           1     -21.368  -8.177  -3.324  0.00  0.00     0.089 C 
ENDBRANCH   7   8
ENDBRANCH   6   7
ENDBRANCH   5   6
BRANCH   5  10
HETATM   10  N           1     -23.009  -5.601  -5.763  0.00  0.00    -0.066 N 
HETATM   11  H           1     -23.021  -6.632  -5.592  0.00  0.00     0.275 HD
HETATM   12  H           1     -23.199  -5.098  -4.869  0.00  0.00     0.275 HD
HETATM   13  H           1     -23.743  -5.356  -6.466  0.00  0.00     0.275 HD
ENDBRANCH   5  10
ENDBRANCH   1   5
BRANCH   4  14
HETATM   14  C           1     -22.625  -3.884  -9.757  0.00  0.00     0.209 C 
BRANCH  14  15
HETATM   15  C           1     -21.769  -4.390 -10.911  0.00  0.00     0.200 C 
BRANCH  15  16
HETATM   16  O           1     -22.552  -4.477 -12.071  0.00  0.00    -0.398 OA
HETATM   17  H           1     -23.452  -4.482 -11.794  0.00  0.00     0.209 HD
ENDBRANCH  15  16
ENDBRANCH  14  15
BRANCH  14  18
HETATM   18  C           1     -24.076  -3.877 -10.171  0.00  0.00     0.198 C 
HETATM   19  O           1     -24.806  -4.856  -9.905  0.00  0.00    -0.646 OA
HETATM   20  O           1     -24.547  -2.891 -10.779  0.00  0.00    -0.646 OA
ENDBRANCH  14  18
ENDBRANCH   4  14
TORSDOF 9
ENDMDL
MODEL 6
REMARK VINA RESULT:      -5.1      4.434      6.034
REMARK  9 active torsions:
REMARK  status: ('A' for Active; 'I' for Inactive)
REMARK    1  A    between atoms: C_1  and  O_15 
REMARK    2  A    between atoms: C_1  and  C_2 
REMARK    3  A    between atoms: C_2  and  C_3 
REMARK    4  A    between atoms: C_2  and  N_14 
REMARK       I    between atoms: C_6  and  N_14 
REMARK    5  A    between atoms: C_6  and  C_7 
REMARK    6  A    between atoms: C_7  and  C_8 
REMARK    7  A    between atoms: C_7  and  N_17 
REMARK    8  A    between atoms: C_8  and  C_12 
REMARK    9  A    between atoms: S_11  and  C_12 
ROOT
HETATM    1  C           1     -33.984  -4.514 -15.472  0.00  0.00     0.249 C 
HETATM    2  H           1     -32.518  -3.545 -14.379  0.00  0.00     0.163 HD
HETATM    3  O           1     -35.059  -5.062 -15.419  0.00  0.00    -0.271 OA
HETATM    4  N           1     -33.418  -4.004 -14.334  0.00  0.00    -0.343 N 
ENDROOT
BRANCH   1   5
HETATM    5  C           1     -33.265  -4.391 -16.793  0.00  0.00     0.275 C 
BRANCH   5   6
HETATM    6  C           1     -31.778  -4.645 -16.588  0.00  0.00     0.053 C 
BRANCH   6   7
HETATM    7  C           1     -30.974  -3.723 -17.495  0.00  0.00     0.076 C 
BRANCH   7   8
HETATM    8  S           1     -29.492  -4.591 -18.081  0.00  0.00    -0.173 SA
HETATM    9  C           1     -29.437  -5.815 -16.741  0.00  0.00     0.089 C 
ENDBRANCH   7   8
ENDBRANCH   6   7
ENDBRANCH   5   6
BRANCH   5  10
HETATM   10  N           1     -33.465  -3.009 -17.343  0.00  0.00    -0.066 N 
HETATM   11  H           1     -33.061  -2.956 -18.306  0.00  0.00     0.275 HD
HETATM   12  H           1     -34.486  -2.795 -17.382  0.00  0.00     0.275 HD
HETATM   13  H           1     -32.986  -2.316 -16.725  0.00  0.00     0.275 HD
ENDBRANCH   5  10
ENDBRANCH   1   5
BRANCH   4  14
HETATM   14  C           1     -34.110  -4.123 -13.065  0.00  0.00     0.209 C 
BRANCH  14  15
HETATM   15  C           1     -33.092  -4.334 -11.952  0.00  0.00     0.200 C 
BRANCH  15  16
HETATM   16  O           1     -32.810  -3.106 -11.338  0.00  0.00    -0.398 OA
HETATM   17  H           1     -33.386  -2.468 -11.722  0.00  0.00     0.209 HD
ENDBRANCH  15  16
ENDBRANCH  14  15
BRANCH  14  18
HETATM   18  C           1     -34.892  -2.860 -12.800  0.00  0.00     0.198 C 
HETATM   19  O           1     -35.674  -2.803 -11.825  0.00  0.00    -0.646 OA
HETATM   20  O           1     -34.759  -1.872 -13.554  0.00  0.00    -0.646 OA
ENDBRANCH  14  18
ENDBRANCH   4  14
TORSDOF 9
ENDMDL
MODEL 7
REMARK VINA RESULT:      -5.1     10.113     11.480
REMARK  9 active torsions:
REMARK  status: ('A' for Active; 'I' for Inactive)
REMARK    1  A    between atoms: C_1  and  O_15 
REMARK    2  A    between atoms: C_1  and  C_2 
REMARK    3  A    between atoms: C_2  and  C_3 
REMARK    4  A    between atoms: C_2  and  N_14 
REMARK       I    between atoms: C_6  and  N_14 
REMARK    5  A    between atoms: C_6  and  C_7 
REMARK    6  A    between atoms: C_7  and  C_8 
REMARK    7  A    between atoms: C_7  and  N_17 
REMARK    8  A    between atoms: C_8  and  C_12 
REMARK    9  A    between atoms: S_11  and  C_12 
ROOT
HETATM    1  C           1     -27.126  -5.925 -17.211  0.00  0.00     0.249 C 
HETATM    2  H           1     -26.596  -7.542 -18.390  0.00  0.00     0.163 HD
HETATM    3  O           1     -26.714  -5.049 -16.488  0.00  0.00    -0.271 OA
HETATM    4  N           1     -26.251  -6.808 -17.785  0.00  0.00    -0.343 N 
ENDROOT
BRANCH   1   5
HETATM    5  C           1     -28.606  -6.045 -17.481  0.00  0.00     0.275 C 
BRANCH   5   6
HETATM    6  C           1     -29.373  -5.908 -16.174  0.00  0.00     0.053 C 
BRANCH   6   7
HETATM    7  C           1     -30.466  -4.859 -16.333  0.00  0.00     0.076 C 
BRANCH   7   8
HETATM    8  S           1     -30.207  -3.944 -17.879  0.00  0.00    -0.173 SA
HETATM    9  C           1     -29.205  -2.614 -17.155  0.00  0.00     0.089 C 
ENDBRANCH   7   8
ENDBRANCH   6   7
ENDBRANCH   5   6
BRANCH   5  10
HETATM   10  N           1     -28.893  -7.385 -18.093  0.00  0.00    -0.066 N 
HETATM   11  H           1     -28.037  -7.738 -18.577  0.00  0.00     0.275 HD
HETATM   12  H           1     -29.172  -8.057 -17.344  0.00  0.00     0.275 HD
HETATM   13  H           1     -29.671  -7.291 -18.785  0.00  0.00     0.275 HD
ENDBRANCH   5  10
ENDBRANCH   1   5
BRANCH   4  14
HETATM   14  C           1     -24.829  -6.691 -17.525  0.00  0.00     0.209 C 
BRANCH  14  15
HETATM   15  C           1     -24.439  -7.648 -16.406  0.00  0.00     0.200 C 
BRANCH  15  16
HETATM   16  O           1     -24.832  -7.111 -15.173  0.00  0.00    -0.398 OA
HETATM   17  H           1     -24.373  -6.295 -15.071  0.00  0.00     0.209 HD
ENDBRANCH  15  16
ENDBRANCH  14  15
BRANCH  14  18
HETATM   18  C           1     -24.059  -7.038 -18.776  0.00  0.00     0.198 C 
HETATM   19  O           1     -22.809  -7.047 -18.758  0.00  0.00    -0.646 OA
HETATM   20  O           1     -24.672  -7.316 -19.829  0.00  0.00    -0.646 OA
ENDBRANCH  14  18
ENDBRANCH   4  14
TORSDOF 9
ENDMDL
MODEL 8
REMARK VINA RESULT:      -5.0     13.504     15.068
REMARK  9 active torsions:
REMARK  status: ('A' for Active; 'I' for Inactive)
REMARK    1  A    between atoms: C_1  and  O_15 
REMARK    2  A    between atoms: C_1  and  C_2 
REMARK    3  A    between atoms: C_2  and  C_3 
REMARK    4  A    between atoms: C_2  and  N_14 
REMARK       I    between atoms: C_6  and  N_14 
REMARK    5  A    between atoms: C_6  and  C_7 
REMARK    6  A    between atoms: C_7  and  C_8 
REMARK    7  A    between atoms: C_7  and  N_17 
REMARK    8  A    between atoms: C_8  and  C_12 
REMARK    9  A    between atoms: S_11  and  C_12 
ROOT
HETATM    1  C           1     -21.450  -4.668  -8.239  0.00  0.00     0.249 C 
HETATM    2  H           1     -23.174  -3.716  -8.878  0.00  0.00     0.163 HD
HETATM    3  O           1     -20.495  -5.322  -8.583  0.00  0.00    -0.271 OA
HETATM    4  N           1     -22.373  -4.264  -9.166  0.00  0.00    -0.343 N 
ENDROOT
BRANCH   1   5
HETATM    5  C           1     -21.626  -4.295  -6.787  0.00  0.00     0.275 C 
BRANCH   5   6
HETATM    6  C           1     -20.489  -4.892  -5.969  0.00  0.00     0.053 C 
BRANCH   6   7
HETATM    7  C           1     -21.054  -5.882  -4.958  0.00  0.00     0.076 C 
BRANCH   7   8
HETATM    8  S           1     -20.351  -7.527  -5.264  0.00  0.00    -0.173 SA
HETATM    9  C           1     -21.409  -8.416  -4.086  0.00  0.00     0.089 C 
ENDBRANCH   7   8
ENDBRANCH   6   7
ENDBRANCH   5   6
BRANCH   5  10
HETATM   10  N           1     -22.935  -4.832  -6.290  0.00  0.00    -0.066 N 
HETATM   11  H           1     -22.759  -5.607  -5.611  0.00  0.00     0.275 HD
HETATM   12  H           1     -23.467  -4.068  -5.816  0.00  0.00     0.275 HD
HETATM   13  H           1     -23.491  -5.196  -7.097  0.00  0.00     0.275 HD
ENDBRANCH   5  10
ENDBRANCH   1   5
BRANCH   4  14
HETATM   14  C           1     -22.204  -4.622 -10.561  0.00  0.00     0.209 C 
BRANCH  14  15
HETATM   15  C           1     -23.571  -4.750 -11.220  0.00  0.00     0.200 C 
BRANCH  15  16
HETATM   16  O           1     -23.417  -4.777 -12.614  0.00  0.00    -0.398 OA
HETATM   17  H           1     -22.531  -4.516 -12.797  0.00  0.00     0.209 HD
ENDBRANCH  15  16
ENDBRANCH  14  15
BRANCH  14  18
HETATM   18  C           1     -21.405  -3.551 -11.261  0.00  0.00     0.198 C 
HETATM   19  O           1     -21.964  -2.495 -11.629  0.00  0.00    -0.646 OA
HETATM   20  O           1     -20.184  -3.719 -11.472  0.00  0.00    -0.646 OA
ENDBRANCH  14  18
ENDBRANCH   4  14
TORSDOF 9
ENDMDL
MODEL 9
REMARK VINA RESULT:      -4.9      4.798      6.550
REMARK  9 active torsions:
REMARK  status: ('A' for Active; 'I' for Inactive)
REMARK    1  A    between atoms: C_1  and  O_15 
REMARK    2  A    between atoms: C_1  and  C_2 
REMARK    3  A    between atoms: C_2  and  C_3 
REMARK    4  A    between atoms: C_2  and  N_14 
REMARK       I    between atoms: C_6  and  N_14 
REMARK    5  A    between atoms: C_6  and  C_7 
REMARK    6  A    between atoms: C_7  and  C_8 
REMARK    7  A    between atoms: C_7  and  N_17 
REMARK    8  A    between atoms: C_8  and  C_12 
REMARK    9  A    between atoms: S_11  and  C_12 
ROOT
HETATM    1  C           1     -33.938  -3.800 -15.344  0.00  0.00     0.249 C 
HETATM    2  H           1     -32.819  -5.180 -14.283  0.00  0.00     0.163 HD
HETATM    3  O           1     -34.766  -2.924 -15.263  0.00  0.00    -0.271 OA
HETATM    4  N           1     -33.511  -4.446 -14.215  0.00  0.00    -0.343 N 
ENDROOT
BRANCH   1   5
HETATM    5  C           1     -33.376  -4.184 -16.691  0.00  0.00     0.275 C 
BRANCH   5   6
HETATM    6  C           1     -31.912  -4.574 -16.538  0.00  0.00     0.053 C 
BRANCH   6   7
HETATM    7  C           1     -31.059  -3.725 -17.471  0.00  0.00     0.076 C 
BRANCH   7   8
HETATM    8  S           1     -29.616  -4.684 -18.012  0.00  0.00    -0.173 SA
HETATM    9  C           1     -28.401  -3.813 -16.982  0.00  0.00     0.089 C 
ENDBRANCH   7   8
ENDBRANCH   6   7
ENDBRANCH   5   6
BRANCH   5  10
HETATM   10  N           1     -33.487  -3.017 -17.628  0.00  0.00    -0.066 N 
HETATM   11  H           1     -32.653  -2.995 -18.257  0.00  0.00     0.275 HD
HETATM   12  H           1     -34.353  -3.113 -18.203  0.00  0.00     0.275 HD
HETATM   13  H           1     -33.531  -2.131 -17.076  0.00  0.00     0.275 HD
ENDBRANCH   5  10
ENDBRANCH   1   5
BRANCH   4  14
HETATM   14  C           1     -34.053  -4.077 -12.921  0.00  0.00     0.209 C 
BRANCH  14  15
HETATM   15  C           1     -34.971  -5.185 -12.422  0.00  0.00     0.200 C 
BRANCH  15  16
HETATM   16  O           1     -34.227  -6.106 -11.671  0.00  0.00    -0.398 OA
HETATM   17  H           1     -33.386  -5.714 -11.511  0.00  0.00     0.209 HD
ENDBRANCH  15  16
ENDBRANCH  14  15
BRANCH  14  18
HETATM   18  C           1     -32.922  -3.880 -11.941  0.00  0.00     0.198 C 
HETATM   19  O           1     -33.065  -3.105 -10.970  0.00  0.00    -0.646 OA
HETATM   20  O           1     -31.844  -4.492 -12.100  0.00  0.00    -0.646 OA
ENDBRANCH  14  18
ENDBRANCH   4  14
TORSDOF 9
ENDMDL
