MODEL 1
REMARK VINA RESULT:      -5.5      0.000      0.000
REMARK  8 active torsions:
REMARK  status: ('A' for Active; 'I' for Inactive)
REMARK    1  A    between atoms: C_4  and  C_5 
REMARK    2  A    between atoms: C_5  and  C_15 
REMARK    3  A    between atoms: C_5  and  N_11 
REMARK    4  A    between atoms: C_6  and  C_9 
REMARK    5  A    between atoms: C_9  and  C_16 
REMARK    6  A    between atoms: C_9  and  N_20 
REMARK       I    between atoms: N_11  and  C_16 
REMARK    7  A    between atoms: C_12  and  S_13 
REMARK    8  A    between atoms: C_12  and  C_15 
ROOT
HETATM    1  H           1     -27.234  -7.001 -18.622  0.00  0.00     0.163 HD
HETATM    2  N           1     -26.365  -6.688 -18.208  0.00  0.00    -0.345 N 
HETATM    3  C           1     -25.176  -6.949 -18.836  0.00  0.00     0.249 C 
HETATM    4  O           1     -24.138  -6.577 -18.342  0.00  0.00    -0.271 OA
ENDROOT
BRANCH   2   5
HETATM    5  C           1     -26.378  -5.964 -16.952  0.00  0.00     0.186 C 
BRANCH   5   6
HETATM    6  C           1     -26.368  -6.946 -15.807  0.00  0.00     0.196 C 
HETATM    7  O           1     -27.445  -7.397 -15.361  0.00  0.00    -0.646 OA
HETATM    8  O           1     -25.283  -7.309 -15.303  0.00  0.00    -0.646 OA
ENDBRANCH   5   6
BRANCH   5   9
HETATM    9  C           1     -27.633  -5.106 -16.875  0.00  0.00     0.046 C 
BRANCH   9  10
HETATM   10  C           1     -28.511  -5.380 -18.089  0.00  0.00     0.076 C 
BRANCH  10  11
HETATM   11  S           1     -30.104  -6.059 -17.543  0.00  0.00    -0.173 SA
HETATM   12  C           1     -29.914  -7.678 -18.341  0.00  0.00     0.089 C 
ENDBRANCH  10  11
ENDBRANCH   9  10
ENDBRANCH   5   9
ENDBRANCH   2   5
BRANCH   3  13
HETATM   13  C           1     -25.162  -7.703 -20.143  0.00  0.00     0.278 C 
BRANCH  13  14
HETATM   14  C           1     -24.437  -6.878 -21.198  0.00  0.00     0.017 C 
HETATM   15  C           1     -24.096  -7.763 -22.389  0.00  0.00     0.012 C 
HETATM   16  C           1     -25.336  -5.737 -21.655  0.00  0.00     0.012 C 
ENDBRANCH  13  14
BRANCH  13  17
HETATM   17  N           1     -26.571  -7.957 -20.588  0.00  0.00    -0.066 N 
HETATM   18  H           1     -26.677  -8.962 -20.852  0.00  0.00     0.275 HD
HETATM   19  H           1     -27.229  -7.733 -19.807  0.00  0.00     0.275 HD
HETATM   20  H           1     -26.791  -7.353 -21.412  0.00  0.00     0.275 HD
ENDBRANCH  13  17
ENDBRANCH   3  13
TORSDOF 8
ENDMDL
MODEL 2
REMARK VINA RESULT:      -5.2      2.260      3.107
REMARK  8 active torsions:
REMARK  status: ('A' for Active; 'I' for Inactive)
REMARK    1  A    between atoms: C_4  and  C_5 
REMARK    2  A    between atoms: C_5  and  C_15 
REMARK    3  A    between atoms: C_5  and  N_11 
REMARK    4  A    between atoms: C_6  and  C_9 
REMARK    5  A    between atoms: C_9  and  C_16 
REMARK    6  A    between atoms: C_9  and  N_20 
REMARK       I    between atoms: N_11  and  C_16 
REMARK    7  A    between atoms: C_12  and  S_13 
REMARK    8  A    between atoms: C_12  and  C_15 
ROOT
HETATM    1  H           1     -27.462  -7.174 -19.910  0.00  0.00     0.163 HD
HETATM    2  N           1     -27.469  -6.797 -18.971  0.00  0.00    -0.345 N 
HETATM    3  C           1     -26.290  -6.472 -18.355  0.00  0.00     0.249 C 
HETATM    4  O           1     -26.298  -6.023 -17.234  0.00  0.00    -0.271 OA
ENDROOT
BRANCH   2   5
HETATM    5  C           1     -28.728  -6.601 -18.277  0.00  0.00     0.186 C 
BRANCH   5   6
HETATM    6  C           1     -29.703  -7.674 -18.695  0.00  0.00     0.196 C 
HETATM    7  O           1     -29.302  -8.663 -19.346  0.00  0.00    -0.646 OA
HETATM    8  O           1     -30.910  -7.575 -18.390  0.00  0.00    -0.646 OA
ENDBRANCH   5   6
BRANCH   5   9
HETATM    9  C           1     -29.294  -5.233 -18.632  0.00  0.00     0.046 C 
BRANCH   9  10
HETATM   10  C           1     -29.229  -4.325 -17.411  0.00  0.00     0.076 C 
BRANCH  10  11
HETATM   11  S           1     -30.224  -5.040 -16.072  0.00  0.00    -0.173 SA
HETATM   12  C           1     -31.841  -4.585 -16.758  0.00  0.00     0.089 C 
ENDBRANCH  10  11
ENDBRANCH   9  10
ENDBRANCH   5   9
ENDBRANCH   2   5
BRANCH   3  13
HETATM   13  C           1     -24.981  -6.676 -19.076  0.00  0.00     0.278 C 
BRANCH  13  14
HETATM   14  C           1     -25.249  -7.220 -20.474  0.00  0.00     0.017 C 
HETATM   15  C           1     -25.336  -6.064 -21.461  0.00  0.00     0.012 C 
HETATM   16  C           1     -24.114  -8.150 -20.881  0.00  0.00     0.012 C 
ENDBRANCH  13  14
BRANCH  13  17
HETATM   17  N           1     -24.137  -7.653 -18.312  0.00  0.00    -0.066 N 
HETATM   18  H           1     -23.627  -7.151 -17.550  0.00  0.00     0.275 HD
HETATM   19  H           1     -24.749  -8.389 -17.894  0.00  0.00     0.275 HD
HETATM   20  H           1     -23.448  -8.098 -18.959  0.00  0.00     0.275 HD
ENDBRANCH  13  17
ENDBRANCH   3  13
TORSDOF 8
ENDMDL
MODEL 3
REMARK VINA RESULT:      -4.9      2.009      2.398
REMARK  8 active torsions:
REMARK  status: ('A' for Active; 'I' for Inactive)
REMARK    1  A    between atoms: C_4  and  C_5 
REMARK    2  A    between atoms: C_5  and  C_15 
REMARK    3  A    between atoms: C_5  and  N_11 
REMARK    4  A    between atoms: C_6  and  C_9 
REMARK    5  A    between atoms: C_9  and  C_16 
REMARK    6  A    between atoms: C_9  and  N_20 
REMARK       I    between atoms: N_11  and  C_16 
REMARK    7  A    between atoms: C_12  and  S_13 
REMARK    8  A    between atoms: C_12  and  C_15 
ROOT
HETATM    1  H           1     -25.668  -7.112 -18.308  0.00  0.00     0.163 HD
HETATM    2  N           1     -26.485  -6.523 -18.213  0.00  0.00    -0.345 N 
HETATM    3  C           1     -27.137  -6.072 -19.329  0.00  0.00     0.249 C 
HETATM    4  O           1     -28.112  -5.367 -19.216  0.00  0.00    -0.271 OA
ENDROOT
BRANCH   2   5
HETATM    5  C           1     -26.964  -6.154 -16.895  0.00  0.00     0.186 C 
BRANCH   5   6
HETATM    6  C           1     -25.908  -6.480 -15.867  0.00  0.00     0.196 C 
HETATM    7  O           1     -24.963  -5.686 -15.670  0.00  0.00    -0.646 OA
HETATM    8  O           1     -25.978  -7.543 -15.215  0.00  0.00    -0.646 OA
ENDBRANCH   5   6
BRANCH   5   9
HETATM    9  C           1     -28.236  -6.933 -16.583  0.00  0.00     0.046 C 
BRANCH   9  10
HETATM   10  C           1     -29.295  -5.980 -16.046  0.00  0.00     0.076 C 
BRANCH  10  11
HETATM   11  S           1     -30.786  -6.090 -17.075  0.00  0.00    -0.173 SA
HETATM   12  C           1     -31.140  -4.311 -17.106  0.00  0.00     0.089 C 
ENDBRANCH  10  11
ENDBRANCH   9  10
ENDBRANCH   5   9
ENDBRANCH   2   5
BRANCH   3  13
HETATM   13  C           1     -26.638  -6.454 -20.701  0.00  0.00     0.278 C 
BRANCH  13  14
HETATM   14  C           1     -26.252  -7.927 -20.709  0.00  0.00     0.017 C 
HETATM   15  C           1     -27.401  -8.750 -21.278  0.00  0.00     0.012 C 
HETATM   16  C           1     -25.013  -8.122 -21.572  0.00  0.00     0.012 C 
ENDBRANCH  13  14
BRANCH  13  17
HETATM   17  N           1     -25.439  -5.621 -21.046  0.00  0.00    -0.066 N 
HETATM   18  H           1     -24.611  -5.962 -20.506  0.00  0.00     0.275 HD
HETATM   19  H           1     -25.242  -5.700 -22.069  0.00  0.00     0.275 HD
HETATM   20  H           1     -25.627  -4.622 -20.804  0.00  0.00     0.275 HD
ENDBRANCH  13  17
ENDBRANCH   3  13
TORSDOF 8
ENDMDL
MODEL 4
REMARK VINA RESULT:      -4.9     14.443     17.116
REMARK  8 active torsions:
REMARK  status: ('A' for Active; 'I' for Inactive)
REMARK    1  A    between atoms: C_4  and  C_5 
REMARK    2  A    between atoms: C_5  and  C_15 
REMARK    3  A    between atoms: C_5  and  N_11 
REMARK    4  A    between atoms: C_6  and  C_9 
REMARK    5  A    between atoms: C_9  and  C_16 
REMARK    6  A    between atoms: C_9  and  N_20 
REMARK       I    between atoms: N_11  and  C_16 
REMARK    7  A    between atoms: C_12  and  S_13 
REMARK    8  A    between atoms: C_12  and  C_15 
ROOT
HETATM    1  H           1     -20.489  -6.801  -3.217  0.00  0.00     0.163 HD
HETATM    2  N           1     -20.826  -7.749  -3.326  0.00  0.00    -0.345 N 
HETATM    3  C           1     -21.362  -8.412  -2.255  0.00  0.00     0.249 C 
HETATM    4  O           1     -21.763  -9.544  -2.385  0.00  0.00    -0.271 OA
ENDROOT
BRANCH   2   5
HETATM    5  C           1     -20.741  -8.405  -4.617  0.00  0.00     0.186 C 
BRANCH   5   6
HETATM    6  C           1     -19.305  -8.774  -4.898  0.00  0.00     0.196 C 
HETATM    7  O           1     -18.538  -9.060  -3.953  0.00  0.00    -0.646 OA
HETATM    8  O           1     -18.883  -8.794  -6.074  0.00  0.00    -0.646 OA
ENDBRANCH   5   6
BRANCH   5   9
HETATM    9  C           1     -21.245  -7.460  -5.700  0.00  0.00     0.046 C 
BRANCH   9  10
HETATM   10  C           1     -21.492  -6.083  -5.098  0.00  0.00     0.076 C 
BRANCH  10  11
HETATM   11  S           1     -20.309  -4.896  -5.796  0.00  0.00    -0.173 SA
HETATM   12  C           1     -20.156  -5.697  -7.418  0.00  0.00     0.089 C 
ENDBRANCH  10  11
ENDBRANCH   9  10
ENDBRANCH   5   9
ENDBRANCH   2   5
BRANCH   3  13
HETATM   13  C           1     -21.450  -7.730  -0.912  0.00  0.00     0.278 C 
BRANCH  13  14
HETATM   14  C           1     -22.002  -8.706   0.119  0.00  0.00     0.017 C 
HETATM   15  C           1     -21.043  -8.793   1.300  0.00  0.00     0.012 C 
HETATM   16  C           1     -23.360  -8.218   0.603  0.00  0.00     0.012 C 
ENDBRANCH  13  14
BRANCH  13  17
HETATM   17  N           1     -22.361  -6.543  -1.015  0.00  0.00    -0.066 N 
HETATM   18  H           1     -22.781  -6.345  -0.078  0.00  0.00     0.275 HD
HETATM   19  H           1     -21.815  -5.711  -1.333  0.00  0.00     0.275 HD
HETATM   20  H           1     -23.121  -6.745  -1.703  0.00  0.00     0.275 HD
ENDBRANCH  13  17
ENDBRANCH   3  13
TORSDOF 8
ENDMDL
MODEL 5
REMARK VINA RESULT:      -4.9     11.881     14.405
REMARK  8 active torsions:
REMARK  status: ('A' for Active; 'I' for Inactive)
REMARK    1  A    between atoms: C_4  and  C_5 
REMARK    2  A    between atoms: C_5  and  C_15 
REMARK    3  A    between atoms: C_5  and  N_11 
REMARK    4  A    between atoms: C_6  and  C_9 
REMARK    5  A    between atoms: C_9  and  C_16 
REMARK    6  A    between atoms: C_9  and  N_20 
REMARK       I    between atoms: N_11  and  C_16 
REMARK    7  A    between atoms: C_12  and  S_13 
REMARK    8  A    between atoms: C_12  and  C_15 
ROOT
HETATM    1  H           1     -22.446  -5.524  -4.901  0.00  0.00     0.163 HD
HETATM    2  N           1     -21.853  -6.059  -5.524  0.00  0.00    -0.345 N 
HETATM    3  C           1     -21.430  -7.309  -5.159  0.00  0.00     0.249 C 
HETATM    4  O           1     -20.721  -7.947  -5.902  0.00  0.00    -0.271 OA
ENDROOT
BRANCH   2   5
HETATM    5  C           1     -21.451  -5.500  -6.800  0.00  0.00     0.186 C 
BRANCH   5   6
HETATM    6  C           1     -20.085  -4.875  -6.667  0.00  0.00     0.196 C 
HETATM    7  O           1     -19.314  -4.843  -7.650  0.00  0.00    -0.646 OA
HETATM    8  O           1     -19.723  -4.390  -5.574  0.00  0.00    -0.646 OA
ENDBRANCH   5   6
BRANCH   5   9
HETATM    9  C           1     -22.457  -4.440  -7.228  0.00  0.00     0.046 C 
BRANCH   9  10
HETATM   10  C           1     -22.305  -4.168  -8.719  0.00  0.00     0.076 C 
BRANCH  10  11
HETATM   11  S           1     -23.937  -3.850  -9.446  0.00  0.00    -0.173 SA
HETATM   12  C           1     -23.666  -4.802 -10.968  0.00  0.00     0.089 C 
ENDBRANCH  10  11
ENDBRANCH   9  10
ENDBRANCH   5   9
ENDBRANCH   2   5
BRANCH   3  13
HETATM   13  C           1     -21.847  -7.890  -3.831  0.00  0.00     0.278 C 
BRANCH  13  14
HETATM   14  C           1     -21.146  -7.141  -2.705  0.00  0.00     0.017 C 
HETATM   15  C           1     -22.169  -6.324  -1.926  0.00  0.00     0.012 C 
HETATM   16  C           1     -20.477  -8.140  -1.771  0.00  0.00     0.012 C 
ENDBRANCH  13  14
BRANCH  13  17
HETATM   17  N           1     -21.467  -9.340  -3.779  0.00  0.00    -0.066 N 
HETATM   18  H           1     -20.946  -9.595  -4.649  0.00  0.00     0.275 HD
HETATM   19  H           1     -20.858  -9.511  -2.947  0.00  0.00     0.275 HD
HETATM   20  H           1     -22.330  -9.924  -3.705  0.00  0.00     0.275 HD
ENDBRANCH  13  17
ENDBRANCH   3  13
TORSDOF 8
ENDMDL
MODEL 6
REMARK VINA RESULT:      -4.8     12.652     14.785
REMARK  8 active torsions:
REMARK  status: ('A' for Active; 'I' for Inactive)
REMARK    1  A    between atoms: C_4  and  C_5 
REMARK    2  A    between atoms: C_5  and  C_15 
REMARK    3  A    between atoms: C_5  and  N_11 
REMARK    4  A    between atoms: C_6  and  C_9 
REMARK    5  A    between atoms: C_9  and  C_16 
REMARK    6  A    between atoms: C_9  and  N_20 
REMARK       I    between atoms: N_11  and  C_16 
REMARK    7  A    between atoms: C_12  and  S_13 
REMARK    8  A    between atoms: C_12  and  C_15 
ROOT
HETATM    1  H           1     -19.955  -6.315  -4.980  0.00  0.00     0.163 HD
HETATM    2  N           1     -20.965  -6.378  -4.982  0.00  0.00    -0.345 N 
HETATM    3  C           1     -21.700  -5.556  -5.794  0.00  0.00     0.249 C 
HETATM    4  O           1     -22.906  -5.630  -5.797  0.00  0.00    -0.271 OA
ENDROOT
BRANCH   2   5
HETATM    5  C           1     -21.635  -7.339  -4.127  0.00  0.00     0.186 C 
BRANCH   5   6
HETATM    6  C           1     -21.600  -6.850  -2.700  0.00  0.00     0.196 C 
HETATM    7  O           1     -20.816  -7.374  -1.880  0.00  0.00    -0.646 OA
HETATM    8  O           1     -22.355  -5.923  -2.338  0.00  0.00    -0.646 OA
ENDBRANCH   5   6
BRANCH   5   9
HETATM    9  C           1     -20.925  -8.683  -4.222  0.00  0.00     0.046 C 
BRANCH   9  10
HETATM   10  C           1     -19.642  -8.524  -5.027  0.00  0.00     0.076 C 
BRANCH  10  11
HETATM   11  S           1     -18.354  -9.597  -4.332  0.00  0.00    -0.173 SA
HETATM   12  C           1     -17.601 -10.057  -5.918  0.00  0.00     0.089 C 
ENDBRANCH  10  11
ENDBRANCH   9  10
ENDBRANCH   5   9
ENDBRANCH   2   5
BRANCH   3  13
HETATM   13  C           1     -21.004  -4.556  -6.684  0.00  0.00     0.278 C 
BRANCH  13  14
HETATM   14  C           1     -21.374  -4.824  -8.137  0.00  0.00     0.017 C 
HETATM   15  C           1     -22.364  -3.769  -8.612  0.00  0.00     0.012 C 
HETATM   16  C           1     -20.119  -4.767  -8.998  0.00  0.00     0.012 C 
ENDBRANCH  13  14
BRANCH  13  17
HETATM   17  N           1     -19.519  -4.685  -6.514  0.00  0.00    -0.066 N 
HETATM   18  H           1     -19.076  -3.742  -6.603  0.00  0.00     0.275 HD
HETATM   19  H           1     -19.310  -5.079  -5.569  0.00  0.00     0.275 HD
HETATM   20  H           1     -19.138  -5.321  -7.249  0.00  0.00     0.275 HD
ENDBRANCH  13  17
ENDBRANCH   3  13
TORSDOF 8
ENDMDL
MODEL 7
REMARK VINA RESULT:      -4.7      2.998      5.328
REMARK  8 active torsions:
REMARK  status: ('A' for Active; 'I' for Inactive)
REMARK    1  A    between atoms: C_4  and  C_5 
REMARK    2  A    between atoms: C_5  and  C_15 
REMARK    3  A    between atoms: C_5  and  N_11 
REMARK    4  A    between atoms: C_6  and  C_9 
REMARK    5  A    between atoms: C_9  and  C_16 
REMARK    6  A    between atoms: C_9  and  N_20 
REMARK       I    between atoms: N_11  and  C_16 
REMARK    7  A    between atoms: C_12  and  S_13 
REMARK    8  A    between atoms: C_12  and  C_15 
ROOT
HETATM    1  H           1     -26.668  -7.774 -18.549  0.00  0.00     0.163 HD
HETATM    2  N           1     -26.648  -7.083 -19.287  0.00  0.00    -0.345 N 
HETATM    3  C           1     -27.663  -6.170 -19.397  0.00  0.00     0.249 C 
HETATM    4  O           1     -27.640  -5.344 -20.278  0.00  0.00    -0.271 OA
ENDROOT
BRANCH   2   5
HETATM    5  C           1     -25.547  -7.058 -20.230  0.00  0.00     0.186 C 
BRANCH   5   6
HETATM    6  C           1     -25.790  -8.080 -21.313  0.00  0.00     0.196 C 
HETATM    7  O           1     -24.914  -8.291 -22.180  0.00  0.00    -0.646 OA
HETATM    8  O           1     -26.865  -8.715 -21.344  0.00  0.00    -0.646 OA
ENDBRANCH   5   6
BRANCH   5   9
HETATM    9  C           1     -24.250  -7.386 -19.502  0.00  0.00     0.046 C 
BRANCH   9  10
HETATM   10  C           1     -24.173  -6.579 -18.213  0.00  0.00     0.076 C 
BRANCH  10  11
HETATM   11  S           1     -24.192  -7.706 -16.790  0.00  0.00    -0.173 SA
HETATM   12  C           1     -25.464  -6.817 -15.848  0.00  0.00     0.089 C 
ENDBRANCH  10  11
ENDBRANCH   9  10
ENDBRANCH   5   9
ENDBRANCH   2   5
BRANCH   3  13
HETATM   13  C           1     -28.810  -6.195 -18.416  0.00  0.00     0.278 C 
BRANCH  13  14
HETATM   14  C           1     -28.766  -4.943 -17.550  0.00  0.00     0.017 C 
HETATM   15  C           1     -29.936  -4.036 -17.909  0.00  0.00     0.012 C 
HETATM   16  C           1     -28.863  -5.338 -16.083  0.00  0.00     0.012 C 
ENDBRANCH  13  14
BRANCH  13  17
HETATM   17  N           1     -28.695  -7.410 -17.545  0.00  0.00    -0.066 N 
HETATM   18  H           1     -29.043  -8.247 -18.067  0.00  0.00     0.275 HD
HETATM   19  H           1     -27.694  -7.557 -17.282  0.00  0.00     0.275 HD
HETATM   20  H           1     -29.266  -7.275 -16.681  0.00  0.00     0.275 HD
ENDBRANCH  13  17
ENDBRANCH   3  13
TORSDOF 8
ENDMDL
MODEL 8
REMARK VINA RESULT:      -4.7     12.658     14.760
REMARK  8 active torsions:
REMARK  status: ('A' for Active; 'I' for Inactive)
REMARK    1  A    between atoms: C_4  and  C_5 
REMARK    2  A    between atoms: C_5  and  C_15 
REMARK    3  A    between atoms: C_5  and  N_11 
REMARK    4  A    between atoms: C_6  and  C_9 
REMARK    5  A    between atoms: C_9  and  C_16 
REMARK    6  A    between atoms: C_9  and  N_20 
REMARK       I    between atoms: N_11  and  C_16 
REMARK    7  A    between atoms: C_12  and  S_13 
REMARK    8  A    between atoms: C_12  and  C_15 
ROOT
HETATM    1  H           1     -20.546  -7.935  -6.892  0.00  0.00     0.163 HD
HETATM    2  N           1     -20.627  -7.416  -6.028  0.00  0.00    -0.345 N 
HETATM    3  C           1     -21.006  -6.100  -6.053  0.00  0.00     0.249 C 
HETATM    4  O           1     -21.103  -5.479  -5.021  0.00  0.00    -0.271 OA
ENDROOT
BRANCH   2   5
HETATM    5  C           1     -20.342  -8.063  -4.762  0.00  0.00     0.186 C 
BRANCH   5   6
HETATM    6  C           1     -19.161  -8.988  -4.926  0.00  0.00     0.196 C 
HETATM    7  O           1     -18.329  -9.108  -4.001  0.00  0.00    -0.646 OA
HETATM    8  O           1     -19.013  -9.631  -5.986  0.00  0.00    -0.646 OA
ENDBRANCH   5   6
BRANCH   5   9
HETATM    9  C           1     -21.558  -8.865  -4.318  0.00  0.00     0.046 C 
BRANCH   9  10
HETATM   10  C           1     -21.554  -8.996  -2.801  0.00  0.00     0.076 C 
BRANCH  10  11
HETATM   11  S           1     -21.080  -7.410  -2.058  0.00  0.00    -0.173 SA
HETATM   12  C           1     -22.323  -7.428  -0.736  0.00  0.00     0.089 C 
ENDBRANCH  10  11
ENDBRANCH   9  10
ENDBRANCH   5   9
ENDBRANCH   2   5
BRANCH   3  13
HETATM   13  C           1     -21.303  -5.425  -7.370  0.00  0.00     0.278 C 
BRANCH  13  14
HETATM   14  C           1     -20.015  -5.283  -8.170  0.00  0.00     0.017 C 
HETATM   15  C           1     -20.315  -4.598  -9.497  0.00  0.00     0.012 C 
HETATM   16  C           1     -19.018  -4.444  -7.381  0.00  0.00     0.012 C 
ENDBRANCH  13  14
BRANCH  13  17
HETATM   17  N           1     -21.886  -4.067  -7.115  0.00  0.00    -0.066 N 
HETATM   18  H           1     -22.615  -3.861  -7.835  0.00  0.00     0.275 HD
HETATM   19  H           1     -22.321  -4.048  -6.165  0.00  0.00     0.275 HD
HETATM   20  H           1     -21.130  -3.348  -7.166  0.00  0.00     0.275 HD
ENDBRANCH  13  17
ENDBRANCH   3  13
TORSDOF 8
ENDMDL
MODEL 9
REMARK VINA RESULT:      -4.6      3.281      5.813
REMARK  8 active torsions:
REMARK  status: ('A' for Active; 'I' for Inactive)
REMARK    1  A    between atoms: C_4  and  C_5 
REMARK    2  A    between atoms: C_5  and  C_15 
REMARK    3  A    between atoms: C_5  and  N_11 
REMARK    4  A    between atoms: C_6  and  C_9 
REMARK    5  A    between atoms: C_9  and  C_16 
REMARK    6  A    between atoms: C_9  and  N_20 
REMARK       I    between atoms: N_11  and  C_16 
REMARK    7  A    between atoms: C_12  and  S_13 
REMARK    8  A    between atoms: C_12  and  C_15 
ROOT
HETATM    1  H           1     -26.519  -7.291 -18.409  0.00  0.00     0.163 HD
HETATM    2  N           1     -27.118  -6.730 -19.001  0.00  0.00    -0.345 N 
HETATM    3  C           1     -27.992  -5.837 -18.441  0.00  0.00     0.249 C 
HETATM    4  O           1     -28.707  -5.167 -19.149  0.00  0.00    -0.271 OA
ENDROOT
BRANCH   2   5
HETATM    5  C           1     -27.050  -6.871 -20.443  0.00  0.00     0.186 C 
BRANCH   5   6
HETATM    6  C           1     -27.520  -8.251 -20.834  0.00  0.00     0.196 C 
HETATM    7  O           1     -26.874  -8.916 -21.673  0.00  0.00    -0.646 OA
HETATM    8  O           1     -28.554  -8.728 -20.322  0.00  0.00    -0.646 OA
ENDBRANCH   5   6
BRANCH   5   9
HETATM    9  C           1     -25.612  -6.674 -20.904  0.00  0.00     0.046 C 
BRANCH   9  10
HETATM   10  C           1     -24.668  -7.381 -19.940  0.00  0.00     0.076 C 
BRANCH  10  11
HETATM   11  S           1     -23.351  -8.205 -20.879  0.00  0.00    -0.173 SA
HETATM   12  C           1     -23.928  -7.697 -22.523  0.00  0.00     0.089 C 
ENDBRANCH  10  11
ENDBRANCH   9  10
ENDBRANCH   5   9
ENDBRANCH   2   5
BRANCH   3  13
HETATM   13  C           1     -28.064  -5.690 -16.941  0.00  0.00     0.278 C 
BRANCH  13  14
HETATM   14  C           1     -29.356  -6.312 -16.430  0.00  0.00     0.017 C 
HETATM   15  C           1     -30.477  -5.284 -16.500  0.00  0.00     0.012 C 
HETATM   16  C           1     -29.716  -7.514 -17.293  0.00  0.00     0.012 C 
ENDBRANCH  13  14
BRANCH  13  17
HETATM   17  N           1     -28.033  -4.234 -16.581  0.00  0.00    -0.066 N 
HETATM   18  H           1     -27.875  -4.133 -15.553  0.00  0.00     0.275 HD
HETATM   19  H           1     -27.258  -3.763 -17.100  0.00  0.00     0.275 HD
HETATM   20  H           1     -28.944  -3.792 -16.840  0.00  0.00     0.275 HD
ENDBRANCH  13  17
ENDBRANCH   3  13
TORSDOF 8
ENDMDL
