MODEL 1
REMARK VINA RESULT:      -5.9      0.000      0.000
REMARK  10 active torsions:
REMARK  status: ('A' for Active; 'I' for Inactive)
REMARK    1  A    between atoms: C_1  and  C_6 
REMARK    2  A    between atoms: N_5  and  C_20 
REMARK       I    between atoms: N_5  and  C_24 
REMARK    3  A    between atoms: C_6  and  C_12 
REMARK    4  A    between atoms: C_7  and  C_16 
REMARK    5  A    between atoms: C_7  and  C_20 
REMARK    6  A    between atoms: C_8  and  N_15 
REMARK    7  A    between atoms: C_8  and  C_16 
REMARK    8  A    between atoms: C_12  and  C_24 
REMARK    9  A    between atoms: C_12  and  N_17 
REMARK   10  A    between atoms: C_14  and  C_20 
ROOT
HETATM    1  N           1     -27.490  -6.465 -18.686  0.00  0.00    -0.345 N 
HETATM    2  O           1     -26.131  -6.020 -16.971  0.00  0.00    -0.271 OA
HETATM    3  H           1     -27.587  -6.703 -19.665  0.00  0.00     0.163 HD
HETATM    4  C           1     -26.245  -6.304 -18.140  0.00  0.00     0.249 C 
ENDROOT
BRANCH   1   5
HETATM    5  C           1     -28.672  -6.295 -17.862  0.00  0.00     0.185 C 
BRANCH   5   6
HETATM    6  C           1     -29.479  -5.109 -18.374  0.00  0.00     0.038 C 
BRANCH   6   7
HETATM    7  C           1     -29.922  -4.250 -17.197  0.00  0.00     0.030 C 
BRANCH   7   8
HETATM    8  C           1     -31.421  -4.415 -16.982  0.00  0.00     0.230 C 
BRANCH   8   9
HETATM    9  N           1     -32.136  -3.203 -17.500  0.00  0.00    -0.079 N 
HETATM   10  H           1     -33.017  -3.497 -17.980  0.00  0.00     0.274 HD
HETATM   11  H           1     -31.522  -2.698 -18.179  0.00  0.00     0.274 HD
HETATM   12  H           1     -32.369  -2.568 -16.703  0.00  0.00     0.274 HD
ENDBRANCH   8   9
ENDBRANCH   7   8
ENDBRANCH   6   7
ENDBRANCH   5   6
BRANCH   5  13
HETATM   13  C           1     -29.515  -7.544 -17.929  0.00  0.00     0.196 C 
HETATM   14  O           1     -29.492  -8.364 -16.985  0.00  0.00    -0.646 OA
HETATM   15  O           1     -30.236  -7.758 -18.926  0.00  0.00    -0.646 OA
ENDBRANCH   5  13
ENDBRANCH   1   5
BRANCH   4  16
HETATM   16  C           1     -25.016  -6.482 -18.998  0.00  0.00     0.275 C 
BRANCH  16  17
HETATM   17  C           1     -25.424  -6.532 -20.465  0.00  0.00     0.046 C 
BRANCH  17  18
HETATM   18  C           1     -25.212  -7.941 -21.002  0.00  0.00    -0.020 C 
HETATM   19  C           1     -26.552  -8.531 -21.424  0.00  0.00     0.009 C 
HETATM   20  C           1     -24.280  -7.890 -22.205  0.00  0.00     0.009 C 
ENDBRANCH  17  18
ENDBRANCH  16  17
BRANCH  16  21
HETATM   21  N           1     -24.329  -7.761 -18.626  0.00  0.00    -0.066 N 
HETATM   22  H           1     -25.043  -8.502 -18.445  0.00  0.00     0.275 HD
HETATM   23  H           1     -23.706  -8.062 -19.408  0.00  0.00     0.275 HD
HETATM   24  H           1     -23.759  -7.612 -17.762  0.00  0.00     0.275 HD
ENDBRANCH  16  21
ENDBRANCH   4  16
TORSDOF 10
ENDMDL
MODEL 2
REMARK VINA RESULT:      -5.9      2.373      3.028
REMARK  10 active torsions:
REMARK  status: ('A' for Active; 'I' for Inactive)
REMARK    1  A    between atoms: C_1  and  C_6 
REMARK    2  A    between atoms: N_5  and  C_20 
REMARK       I    between atoms: N_5  and  C_24 
REMARK    3  A    between atoms: C_6  and  C_12 
REMARK    4  A    between atoms: C_7  and  C_16 
REMARK    5  A    between atoms: C_7  and  C_20 
REMARK    6  A    between atoms: C_8  and  N_15 
REMARK    7  A    between atoms: C_8  and  C_16 
REMARK    8  A    between atoms: C_12  and  C_24 
REMARK    9  A    between atoms: C_12  and  N_17 
REMARK   10  A    between atoms: C_14  and  C_20 
ROOT
HETATM    1  N           1     -26.354  -6.670 -18.146  0.00  0.00    -0.345 N 
HETATM    2  O           1     -24.129  -6.575 -17.982  0.00  0.00    -0.271 OA
HETATM    3  H           1     -27.163  -6.975 -18.672  0.00  0.00     0.163 HD
HETATM    4  C           1     -25.095  -6.939 -18.610  0.00  0.00     0.249 C 
ENDROOT
BRANCH   1   5
HETATM    5  C           1     -26.530  -5.949 -16.900  0.00  0.00     0.185 C 
BRANCH   5   6
HETATM    6  C           1     -27.880  -5.244 -16.909  0.00  0.00     0.038 C 
BRANCH   6   7
HETATM    7  C           1     -28.681  -5.696 -18.122  0.00  0.00     0.030 C 
BRANCH   7   8
HETATM    8  C           1     -29.913  -6.465 -17.661  0.00  0.00     0.230 C 
BRANCH   8   9
HETATM    9  N           1     -29.604  -7.932 -17.628  0.00  0.00    -0.079 N 
HETATM   10  H           1     -29.681  -8.326 -18.593  0.00  0.00     0.274 HD
HETATM   11  H           1     -30.282  -8.418 -16.999  0.00  0.00     0.274 HD
HETATM   12  H           1     -28.633  -8.075 -17.269  0.00  0.00     0.274 HD
ENDBRANCH   8   9
ENDBRANCH   7   8
ENDBRANCH   6   7
ENDBRANCH   5   6
BRANCH   5  13
HETATM   13  C           1     -26.476  -6.919 -15.746  0.00  0.00     0.196 C 
HETATM   14  O           1     -25.375  -7.221 -15.235  0.00  0.00    -0.646 OA
HETATM   15  O           1     -27.530  -7.419 -15.301  0.00  0.00    -0.646 OA
ENDBRANCH   5  13
ENDBRANCH   1   5
BRANCH   4  16
HETATM   16  C           1     -24.913  -7.690 -19.906  0.00  0.00     0.275 C 
BRANCH  16  17
HETATM   17  C           1     -23.518  -7.423 -20.457  0.00  0.00     0.046 C 
BRANCH  17  18
HETATM   18  C           1     -23.176  -8.471 -21.506  0.00  0.00    -0.020 C 
HETATM   19  C           1     -23.422  -7.897 -22.896  0.00  0.00     0.009 C 
HETATM   20  C           1     -21.711  -8.864 -21.373  0.00  0.00     0.009 C 
ENDBRANCH  17  18
ENDBRANCH  16  17
BRANCH  16  21
HETATM   21  N           1     -25.939  -7.230 -20.898  0.00  0.00    -0.066 N 
HETATM   22  H           1     -26.105  -6.205 -20.778  0.00  0.00     0.275 HD
HETATM   23  H           1     -25.594  -7.414 -21.867  0.00  0.00     0.275 HD
HETATM   24  H           1     -26.833  -7.748 -20.741  0.00  0.00     0.275 HD
ENDBRANCH  16  21
ENDBRANCH   4  16
TORSDOF 10
ENDMDL
MODEL 3
REMARK VINA RESULT:      -5.9     11.182     12.996
REMARK  10 active torsions:
REMARK  status: ('A' for Active; 'I' for Inactive)
REMARK    1  A    between atoms: C_1  and  C_6 
REMARK    2  A    between atoms: N_5  and  C_20 
REMARK       I    between atoms: N_5  and  C_24 
REMARK    3  A    between atoms: C_6  and  C_12 
REMARK    4  A    between atoms: C_7  and  C_16 
REMARK    5  A    between atoms: C_7  and  C_20 
REMARK    6  A    between atoms: C_8  and  N_15 
REMARK    7  A    between atoms: C_8  and  C_16 
REMARK    8  A    between atoms: C_12  and  C_24 
REMARK    9  A    between atoms: C_12  and  N_17 
REMARK   10  A    between atoms: C_14  and  C_20 
ROOT
HETATM    1  N           1     -22.633  -4.719  -8.665  0.00  0.00    -0.345 N 
HETATM    2  O           1     -21.591  -3.431  -7.168  0.00  0.00    -0.271 OA
HETATM    3  H           1     -22.815  -5.651  -9.016  0.00  0.00     0.163 HD
HETATM    4  C           1     -21.807  -4.543  -7.588  0.00  0.00     0.249 C 
ENDROOT
BRANCH   1   5
HETATM    5  C           1     -23.249  -3.571  -9.303  0.00  0.00     0.185 C 
BRANCH   5   6
HETATM    6  C           1     -22.487  -3.232 -10.577  0.00  0.00     0.038 C 
BRANCH   6   7
HETATM    7  C           1     -21.828  -4.490 -11.126  0.00  0.00     0.030 C 
BRANCH   7   8
HETATM    8  C           1     -20.346  -4.227 -11.359  0.00  0.00     0.230 C 
BRANCH   8   9
HETATM    9  N           1     -20.107  -2.749 -11.448  0.00  0.00    -0.079 N 
HETATM   10  H           1     -20.842  -2.314 -12.052  0.00  0.00     0.274 HD
HETATM   11  H           1     -19.165  -2.572 -11.865  0.00  0.00     0.274 HD
HETATM   12  H           1     -20.150  -2.331 -10.492  0.00  0.00     0.274 HD
ENDBRANCH   8   9
ENDBRANCH   7   8
ENDBRANCH   6   7
ENDBRANCH   5   6
BRANCH   5  13
HETATM   13  C           1     -24.682  -3.895  -9.644  0.00  0.00     0.196 C 
HETATM   14  O           1     -25.512  -2.973  -9.795  0.00  0.00    -0.646 OA
HETATM   15  O           1     -25.039  -5.085  -9.777  0.00  0.00    -0.646 OA
ENDBRANCH   5  13
ENDBRANCH   1   5
BRANCH   4  16
HETATM   16  C           1     -21.167  -5.737  -6.924  0.00  0.00     0.275 C 
BRANCH  16  17
HETATM   17  C           1     -20.935  -5.435  -5.449  0.00  0.00     0.046 C 
BRANCH  17  18
HETATM   18  C           1     -21.802  -6.355  -4.600  0.00  0.00    -0.020 C 
HETATM   19  C           1     -21.575  -7.801  -5.024  0.00  0.00     0.009 C 
HETATM   20  C           1     -21.428  -6.193  -3.133  0.00  0.00     0.009 C 
ENDBRANCH  17  18
ENDBRANCH  16  17
BRANCH  16  21
HETATM   21  N           1     -19.854  -6.032  -7.586  0.00  0.00    -0.066 N 
HETATM   22  H           1     -20.017  -6.294  -8.584  0.00  0.00     0.275 HD
HETATM   23  H           1     -19.245  -5.185  -7.544  0.00  0.00     0.275 HD
HETATM   24  H           1     -19.385  -6.826  -7.092  0.00  0.00     0.275 HD
ENDBRANCH  16  21
ENDBRANCH   4  16
TORSDOF 10
ENDMDL
MODEL 4
REMARK VINA RESULT:      -5.9      2.114      2.805
REMARK  10 active torsions:
REMARK  status: ('A' for Active; 'I' for Inactive)
REMARK    1  A    between atoms: C_1  and  C_6 
REMARK    2  A    between atoms: N_5  and  C_20 
REMARK       I    between atoms: N_5  and  C_24 
REMARK    3  A    between atoms: C_6  and  C_12 
REMARK    4  A    between atoms: C_7  and  C_16 
REMARK    5  A    between atoms: C_7  and  C_20 
REMARK    6  A    between atoms: C_8  and  N_15 
REMARK    7  A    between atoms: C_8  and  C_16 
REMARK    8  A    between atoms: C_12  and  C_24 
REMARK    9  A    between atoms: C_12  and  N_17 
REMARK   10  A    between atoms: C_14  and  C_20 
ROOT
HETATM    1  N           1     -26.727  -6.305 -18.213  0.00  0.00    -0.345 N 
HETATM    2  O           1     -26.819  -6.482 -20.438  0.00  0.00    -0.271 OA
HETATM    3  H           1     -26.173  -6.376 -17.369  0.00  0.00     0.163 HD
HETATM    4  C           1     -26.158  -6.567 -19.430  0.00  0.00     0.249 C 
ENDROOT
BRANCH   1   5
HETATM    5  C           1     -28.125  -5.927 -18.133  0.00  0.00     0.185 C 
BRANCH   5   6
HETATM    6  C           1     -28.897  -6.999 -17.373  0.00  0.00     0.038 C 
BRANCH   6   7
HETATM    7  C           1     -30.046  -7.503 -18.235  0.00  0.00     0.030 C 
BRANCH   7   8
HETATM    8  C           1     -31.370  -7.213 -17.539  0.00  0.00     0.230 C 
BRANCH   8   9
HETATM    9  N           1     -31.254  -5.939 -16.756  0.00  0.00    -0.079 N 
HETATM   10  H           1     -31.215  -6.161 -15.735  0.00  0.00     0.274 HD
HETATM   11  H           1     -32.084  -5.334 -16.949  0.00  0.00     0.274 HD
HETATM   12  H           1     -30.383  -5.436 -17.036  0.00  0.00     0.274 HD
ENDBRANCH   8   9
ENDBRANCH   7   8
ENDBRANCH   6   7
ENDBRANCH   5   6
BRANCH   5  13
HETATM   13  C           1     -28.248  -4.609 -17.408  0.00  0.00     0.196 C 
HETATM   14  O           1     -29.129  -3.790 -17.747  0.00  0.00    -0.646 OA
HETATM   15  O           1     -27.471  -4.339 -16.469  0.00  0.00    -0.646 OA
ENDBRANCH   5  13
ENDBRANCH   1   5
BRANCH   4  16
HETATM   16  C           1     -24.703  -6.960 -19.514  0.00  0.00     0.275 C 
BRANCH  16  17
HETATM   17  C           1     -24.535  -8.068 -20.545  0.00  0.00     0.046 C 
BRANCH  17  18
HETATM   18  C           1     -23.350  -7.749 -21.446  0.00  0.00    -0.020 C 
HETATM   19  C           1     -22.268  -8.805 -21.256  0.00  0.00     0.009 C 
HETATM   20  C           1     -23.804  -7.745 -22.899  0.00  0.00     0.009 C 
ENDBRANCH  17  18
ENDBRANCH  16  17
BRANCH  16  21
HETATM   21  N           1     -24.241  -7.449 -18.174  0.00  0.00    -0.066 N 
HETATM   22  H           1     -23.205  -7.585 -18.190  0.00  0.00     0.275 HD
HETATM   23  H           1     -24.488  -6.746 -17.442  0.00  0.00     0.275 HD
HETATM   24  H           1     -24.707  -8.359 -17.955  0.00  0.00     0.275 HD
ENDBRANCH  16  21
ENDBRANCH   4  16
TORSDOF 10
ENDMDL
MODEL 5
REMARK VINA RESULT:      -5.7      2.398      3.017
REMARK  10 active torsions:
REMARK  status: ('A' for Active; 'I' for Inactive)
REMARK    1  A    between atoms: C_1  and  C_6 
REMARK    2  A    between atoms: N_5  and  C_20 
REMARK       I    between atoms: N_5  and  C_24 
REMARK    3  A    between atoms: C_6  and  C_12 
REMARK    4  A    between atoms: C_7  and  C_16 
REMARK    5  A    between atoms: C_7  and  C_20 
REMARK    6  A    between atoms: C_8  and  N_15 
REMARK    7  A    between atoms: C_8  and  C_16 
REMARK    8  A    between atoms: C_12  and  C_24 
REMARK    9  A    between atoms: C_12  and  N_17 
REMARK   10  A    between atoms: C_14  and  C_20 
ROOT
HETATM    1  N           1     -26.786  -6.325 -17.969  0.00  0.00    -0.345 N 
HETATM    2  O           1     -27.386  -6.288 -20.120  0.00  0.00    -0.271 OA
HETATM    3  H           1     -26.061  -6.497 -17.284  0.00  0.00     0.163 HD
HETATM    4  C           1     -26.521  -6.493 -19.302  0.00  0.00     0.249 C 
ENDROOT
BRANCH   1   5
HETATM    5  C           1     -28.105  -5.903 -17.539  0.00  0.00     0.185 C 
BRANCH   5   6
HETATM    6  C           1     -28.843  -7.089 -16.930  0.00  0.00     0.038 C 
BRANCH   6   7
HETATM    7  C           1     -30.309  -7.037 -17.337  0.00  0.00     0.030 C 
BRANCH   7   8
HETATM    8  C           1     -30.477  -7.668 -18.714  0.00  0.00     0.230 C 
BRANCH   8   9
HETATM    9  N           1     -29.384  -8.668 -18.943  0.00  0.00    -0.079 N 
HETATM   10  H           1     -29.610  -9.554 -18.435  0.00  0.00     0.274 HD
HETATM   11  H           1     -28.479  -8.285 -18.586  0.00  0.00     0.274 HD
HETATM   12  H           1     -29.300  -8.864 -19.966  0.00  0.00     0.274 HD
ENDBRANCH   8   9
ENDBRANCH   7   8
ENDBRANCH   6   7
ENDBRANCH   5   6
BRANCH   5  13
HETATM   13  C           1     -27.971  -4.810 -16.508  0.00  0.00     0.196 C 
HETATM   14  O           1     -27.918  -5.100 -15.293  0.00  0.00    -0.646 OA
HETATM   15  O           1     -27.912  -3.615 -16.869  0.00  0.00    -0.646 OA
ENDBRANCH   5  13
ENDBRANCH   1   5
BRANCH   4  16
HETATM   16  C           1     -25.148  -6.932 -19.749  0.00  0.00     0.275 C 
BRANCH  16  17
HETATM   17  C           1     -25.278  -8.112 -20.704  0.00  0.00     0.046 C 
BRANCH  17  18
HETATM   18  C           1     -24.445  -7.850 -21.951  0.00  0.00    -0.020 C 
HETATM   19  C           1     -24.385  -6.350 -22.216  0.00  0.00     0.009 C 
HETATM   20  C           1     -23.035  -8.384 -21.742  0.00  0.00     0.009 C 
ENDBRANCH  17  18
ENDBRANCH  16  17
BRANCH  16  21
HETATM   21  N           1     -24.341  -7.343 -18.553  0.00  0.00    -0.066 N 
HETATM   22  H           1     -24.261  -6.538 -17.893  0.00  0.00     0.275 HD
HETATM   23  H           1     -24.814  -8.141 -18.073  0.00  0.00     0.275 HD
HETATM   24  H           1     -23.386  -7.636 -18.861  0.00  0.00     0.275 HD
ENDBRANCH  16  21
ENDBRANCH   4  16
TORSDOF 10
ENDMDL
MODEL 6
REMARK VINA RESULT:      -5.6     13.250     14.722
REMARK  10 active torsions:
REMARK  status: ('A' for Active; 'I' for Inactive)
REMARK    1  A    between atoms: C_1  and  C_6 
REMARK    2  A    between atoms: N_5  and  C_20 
REMARK       I    between atoms: N_5  and  C_24 
REMARK    3  A    between atoms: C_6  and  C_12 
REMARK    4  A    between atoms: C_7  and  C_16 
REMARK    5  A    between atoms: C_7  and  C_20 
REMARK    6  A    between atoms: C_8  and  N_15 
REMARK    7  A    between atoms: C_8  and  C_16 
REMARK    8  A    between atoms: C_12  and  C_24 
REMARK    9  A    between atoms: C_12  and  N_17 
REMARK   10  A    between atoms: C_14  and  C_20 
ROOT
HETATM    1  N           1     -21.904  -6.116  -5.978  0.00  0.00    -0.345 N 
HETATM    2  O           1     -20.731  -4.252  -6.349  0.00  0.00    -0.271 OA
HETATM    3  H           1     -22.633  -6.747  -6.287  0.00  0.00     0.163 HD
HETATM    4  C           1     -21.601  -5.005  -6.718  0.00  0.00     0.249 C 
ENDROOT
BRANCH   1   5
HETATM    5  C           1     -21.181  -6.389  -4.750  0.00  0.00     0.185 C 
BRANCH   5   6
HETATM    6  C           1     -22.173  -6.714  -3.640  0.00  0.00     0.038 C 
BRANCH   6   7
HETATM    7  C           1     -21.730  -6.035  -2.351  0.00  0.00     0.030 C 
BRANCH   7   8
HETATM    8  C           1     -22.159  -6.881  -1.158  0.00  0.00     0.230 C 
BRANCH   8   9
HETATM    9  N           1     -21.667  -8.286  -1.339  0.00  0.00    -0.079 N 
HETATM   10  H           1     -20.625  -8.283  -1.417  0.00  0.00     0.274 HD
HETATM   11  H           1     -22.079  -8.691  -2.210  0.00  0.00     0.274 HD
HETATM   12  H           1     -21.954  -8.864  -0.517  0.00  0.00     0.274 HD
ENDBRANCH   8   9
ENDBRANCH   7   8
ENDBRANCH   6   7
ENDBRANCH   5   6
BRANCH   5  13
HETATM   13  C           1     -20.260  -7.565  -4.962  0.00  0.00     0.196 C 
HETATM   14  O           1     -19.603  -7.662  -6.021  0.00  0.00    -0.646 OA
HETATM   15  O           1     -20.152  -8.441  -4.078  0.00  0.00    -0.646 OA
ENDBRANCH   5  13
ENDBRANCH   1   5
BRANCH   4  16
HETATM   16  C           1     -22.353  -4.721  -7.995  0.00  0.00     0.275 C 
BRANCH  16  17
HETATM   17  C           1     -21.558  -3.740  -8.846  0.00  0.00     0.046 C 
BRANCH  17  18
HETATM   18  C           1     -21.337  -4.331 -10.231  0.00  0.00    -0.020 C 
HETATM   19  C           1     -22.682  -4.527 -10.920  0.00  0.00     0.009 C 
HETATM   20  C           1     -20.479  -3.382 -11.057  0.00  0.00     0.009 C 
ENDBRANCH  17  18
ENDBRANCH  16  17
BRANCH  16  21
HETATM   21  N           1     -23.690  -4.128  -7.666  0.00  0.00    -0.066 N 
HETATM   22  H           1     -24.375  -4.893  -7.473  0.00  0.00     0.275 HD
HETATM   23  H           1     -23.602  -3.519  -6.821  0.00  0.00     0.275 HD
HETATM   24  H           1     -24.027  -3.557  -8.474  0.00  0.00     0.275 HD
ENDBRANCH  16  21
ENDBRANCH   4  16
TORSDOF 10
ENDMDL
MODEL 7
REMARK VINA RESULT:      -5.6     14.756     16.406
REMARK  10 active torsions:
REMARK  status: ('A' for Active; 'I' for Inactive)
REMARK    1  A    between atoms: C_1  and  C_6 
REMARK    2  A    between atoms: N_5  and  C_20 
REMARK       I    between atoms: N_5  and  C_24 
REMARK    3  A    between atoms: C_6  and  C_12 
REMARK    4  A    between atoms: C_7  and  C_16 
REMARK    5  A    between atoms: C_7  and  C_20 
REMARK    6  A    between atoms: C_8  and  N_15 
REMARK    7  A    between atoms: C_8  and  C_16 
REMARK    8  A    between atoms: C_12  and  C_24 
REMARK    9  A    between atoms: C_12  and  N_17 
REMARK   10  A    between atoms: C_14  and  C_20 
ROOT
HETATM    1  N           1     -21.466  -5.844  -4.589  0.00  0.00    -0.345 N 
HETATM    2  O           1     -21.282  -8.052  -4.306  0.00  0.00    -0.271 OA
HETATM    3  H           1     -21.552  -4.929  -4.165  0.00  0.00     0.163 HD
HETATM    4  C           1     -21.385  -6.960  -3.800  0.00  0.00     0.249 C 
ENDROOT
BRANCH   1   5
HETATM    5  C           1     -21.431  -5.973  -6.033  0.00  0.00     0.185 C 
BRANCH   5   6
HETATM    6  C           1     -22.293  -4.884  -6.660  0.00  0.00     0.038 C 
BRANCH   6   7
HETATM    7  C           1     -22.142  -4.927  -8.174  0.00  0.00     0.030 C 
BRANCH   7   8
HETATM    8  C           1     -22.705  -3.647  -8.778  0.00  0.00     0.230 C 
BRANCH   8   9
HETATM    9  N           1     -24.202  -3.666  -8.683  0.00  0.00    -0.079 N 
HETATM   10  H           1     -24.593  -2.827  -9.169  0.00  0.00     0.274 HD
HETATM   11  H           1     -24.488  -3.649  -7.678  0.00  0.00     0.274 HD
HETATM   12  H           1     -24.569  -4.533  -9.135  0.00  0.00     0.274 HD
ENDBRANCH   8   9
ENDBRANCH   7   8
ENDBRANCH   6   7
ENDBRANCH   5   6
BRANCH   5  13
HETATM   13  C           1     -20.009  -5.829  -6.515  0.00  0.00     0.196 C 
HETATM   14  O           1     -19.395  -4.754  -6.339  0.00  0.00    -0.646 OA
HETATM   15  O           1     -19.444  -6.784  -7.089  0.00  0.00    -0.646 OA
ENDBRANCH   5  13
ENDBRANCH   1   5
BRANCH   4  16
HETATM   16  C           1     -21.421  -6.825  -2.297  0.00  0.00     0.275 C 
BRANCH  16  17
HETATM   17  C           1     -21.907  -8.131  -1.682  0.00  0.00     0.046 C 
BRANCH  17  18
HETATM   18  C           1     -21.779  -8.058  -0.166  0.00  0.00    -0.020 C 
HETATM   19  C           1     -23.166  -8.094   0.463  0.00  0.00     0.009 C 
HETATM   20  C           1     -20.965  -9.244   0.332  0.00  0.00     0.009 C 
ENDBRANCH  17  18
ENDBRANCH  16  17
BRANCH  16  21
HETATM   21  N           1     -22.356  -5.716  -1.917  0.00  0.00    -0.066 N 
HETATM   22  H           1     -22.569  -5.772  -0.896  0.00  0.00     0.275 HD
HETATM   23  H           1     -21.910  -4.796  -2.129  0.00  0.00     0.275 HD
HETATM   24  H           1     -23.244  -5.807  -2.462  0.00  0.00     0.275 HD
ENDBRANCH  16  21
ENDBRANCH   4  16
TORSDOF 10
ENDMDL
MODEL 8
REMARK VINA RESULT:      -5.6      2.341      5.889
REMARK  10 active torsions:
REMARK  status: ('A' for Active; 'I' for Inactive)
REMARK    1  A    between atoms: C_1  and  C_6 
REMARK    2  A    between atoms: N_5  and  C_20 
REMARK       I    between atoms: N_5  and  C_24 
REMARK    3  A    between atoms: C_6  and  C_12 
REMARK    4  A    between atoms: C_7  and  C_16 
REMARK    5  A    between atoms: C_7  and  C_20 
REMARK    6  A    between atoms: C_8  and  N_15 
REMARK    7  A    between atoms: C_8  and  C_16 
REMARK    8  A    between atoms: C_12  and  C_24 
REMARK    9  A    between atoms: C_12  and  N_17 
REMARK   10  A    between atoms: C_14  and  C_20 
ROOT
HETATM    1  N           1     -27.482  -7.195 -19.179  0.00  0.00    -0.345 N 
HETATM    2  O           1     -28.440  -5.178 -19.224  0.00  0.00    -0.271 OA
HETATM    3  H           1     -27.391  -8.091 -18.718  0.00  0.00     0.163 HD
HETATM    4  C           1     -28.331  -6.248 -18.673  0.00  0.00     0.249 C 
ENDROOT
BRANCH   1   5
HETATM    5  C           1     -26.712  -6.914 -20.376  0.00  0.00     0.185 C 
BRANCH   5   6
HETATM    6  C           1     -25.301  -6.496 -19.983  0.00  0.00     0.038 C 
BRANCH   6   7
HETATM    7  C           1     -25.095  -6.739 -18.494  0.00  0.00     0.030 C 
BRANCH   7   8
HETATM    8  C           1     -23.679  -7.245 -18.252  0.00  0.00     0.230 C 
BRANCH   8   9
HETATM    9  N           1     -23.589  -7.842 -16.879  0.00  0.00    -0.079 N 
HETATM   10  H           1     -22.615  -7.735 -16.516  0.00  0.00     0.274 HD
HETATM   11  H           1     -23.834  -8.857 -16.924  0.00  0.00     0.274 HD
HETATM   12  H           1     -24.256  -7.351 -16.241  0.00  0.00     0.274 HD
ENDBRANCH   8   9
ENDBRANCH   7   8
ENDBRANCH   6   7
ENDBRANCH   5   6
BRANCH   5  13
HETATM   13  C           1     -26.649  -8.153 -21.235  0.00  0.00     0.196 C 
HETATM   14  O           1     -25.560  -8.515 -21.730  0.00  0.00    -0.646 OA
HETATM   15  O           1     -27.685  -8.817 -21.450  0.00  0.00    -0.646 OA
ENDBRANCH   5  13
ENDBRANCH   1   5
BRANCH   4  16
HETATM   16  C           1     -29.133  -6.540 -17.429  0.00  0.00     0.275 C 
BRANCH  16  17
HETATM   17  C           1     -29.389  -5.243 -16.673  0.00  0.00     0.046 C 
BRANCH  17  18
HETATM   18  C           1     -30.882  -4.946 -16.664  0.00  0.00    -0.020 C 
HETATM   19  C           1     -31.159  -3.710 -17.510  0.00  0.00     0.009 C 
HETATM   20  C           1     -31.638  -6.135 -17.241  0.00  0.00     0.009 C 
ENDBRANCH  17  18
ENDBRANCH  16  17
BRANCH  16  21
HETATM   21  N           1     -28.367  -7.486 -16.553  0.00  0.00    -0.066 N 
HETATM   22  H           1     -27.949  -8.244 -17.138  0.00  0.00     0.275 HD
HETATM   23  H           1     -27.605  -6.967 -16.061  0.00  0.00     0.275 HD
HETATM   24  H           1     -29.013  -7.909 -15.848  0.00  0.00     0.275 HD
ENDBRANCH  16  21
ENDBRANCH   4  16
TORSDOF 10
ENDMDL
MODEL 9
REMARK VINA RESULT:      -5.5     10.973     12.666
REMARK  10 active torsions:
REMARK  status: ('A' for Active; 'I' for Inactive)
REMARK    1  A    between atoms: C_1  and  C_6 
REMARK    2  A    between atoms: N_5  and  C_20 
REMARK       I    between atoms: N_5  and  C_24 
REMARK    3  A    between atoms: C_6  and  C_12 
REMARK    4  A    between atoms: C_7  and  C_16 
REMARK    5  A    between atoms: C_7  and  C_20 
REMARK    6  A    between atoms: C_8  and  N_15 
REMARK    7  A    between atoms: C_8  and  C_16 
REMARK    8  A    between atoms: C_12  and  C_24 
REMARK    9  A    between atoms: C_12  and  N_17 
REMARK   10  A    between atoms: C_14  and  C_20 
ROOT
HETATM    1  N           1     -21.999  -4.206  -9.178  0.00  0.00    -0.345 N 
HETATM    2  O           1     -20.170  -5.335  -8.570  0.00  0.00    -0.271 OA
HETATM    3  H           1     -22.805  -3.663  -8.896  0.00  0.00     0.163 HD
HETATM    4  C           1     -21.132  -4.686  -8.233  0.00  0.00     0.249 C 
ENDROOT
BRANCH   1   5
HETATM    5  C           1     -21.763  -4.476 -10.583  0.00  0.00     0.185 C 
BRANCH   5   6
HETATM    6  C           1     -23.089  -4.773 -11.271  0.00  0.00     0.038 C 
BRANCH   6   7
HETATM    7  C           1     -24.210  -4.758 -10.241  0.00  0.00     0.030 C 
BRANCH   7   8
HETATM    8  C           1     -24.753  -3.342 -10.099  0.00  0.00     0.230 C 
BRANCH   8   9
HETATM    9  N           1     -26.153  -3.394  -9.564  0.00  0.00    -0.079 N 
HETATM   10  H           1     -26.210  -2.830  -8.685  0.00  0.00     0.274 HD
HETATM   11  H           1     -26.411  -4.385  -9.358  0.00  0.00     0.274 HD
HETATM   12  H           1     -26.812  -3.002 -10.273  0.00  0.00     0.274 HD
ENDBRANCH   8   9
ENDBRANCH   7   8
ENDBRANCH   6   7
ENDBRANCH   5   6
BRANCH   5  13
HETATM   13  C           1     -21.122  -3.270 -11.225  0.00  0.00     0.196 C 
HETATM   14  O           1     -19.878  -3.141 -11.208  0.00  0.00    -0.646 OA
HETATM   15  O           1     -21.833  -2.403 -11.775  0.00  0.00    -0.646 OA
ENDBRANCH   5  13
ENDBRANCH   1   5
BRANCH   4  16
HETATM   16  C           1     -21.378  -4.405  -6.771  0.00  0.00     0.275 C 
BRANCH  16  17
HETATM   17  C           1     -20.609  -5.411  -5.924  0.00  0.00     0.046 C 
BRANCH  17  18
HETATM   18  C           1     -21.592  -6.307  -5.183  0.00  0.00    -0.020 C 
HETATM   19  C           1     -21.352  -7.759  -5.577  0.00  0.00     0.009 C 
HETATM   20  C           1     -21.390  -6.150  -3.682  0.00  0.00     0.009 C 
ENDBRANCH  17  18
ENDBRANCH  16  17
BRANCH  16  21
HETATM   21  N           1     -22.844  -4.523  -6.480  0.00  0.00    -0.066 N 
HETATM   22  H           1     -23.160  -5.500  -6.670  0.00  0.00     0.275 HD
HETATM   23  H           1     -23.020  -4.290  -5.477  0.00  0.00     0.275 HD
HETATM   24  H           1     -23.375  -3.861  -7.091  0.00  0.00     0.275 HD
ENDBRANCH  16  21
ENDBRANCH   4  16
TORSDOF 10
ENDMDL
