MODEL 1
REMARK VINA RESULT:      -5.8      0.000      0.000
REMARK  8 active torsions:
REMARK  status: ('A' for Active; 'I' for Inactive)
REMARK    1  A    between atoms: C_1  and  C_5 
REMARK    2  A    between atoms: C_5  and  C_12 
REMARK    3  A    between atoms: C_5  and  N_14 
REMARK    4  A    between atoms: O_6  and  C_12 
REMARK       I    between atoms: C_7  and  N_14 
REMARK    5  A    between atoms: C_7  and  C_10 
REMARK    6  A    between atoms: N_9  and  C_10 
REMARK    7  A    between atoms: C_10  and  C_11 
REMARK    8  A    between atoms: C_11  and  O_16 
ROOT
HETATM    1  C           1     -21.752  -4.734  -7.887  0.00  0.00     0.251 C 
HETATM    2  O           1     -21.920  -3.683  -7.315  0.00  0.00    -0.271 OA
HETATM    3  N           1     -22.058  -4.847  -9.217  0.00  0.00    -0.342 N 
HETATM    4  H           1     -21.917  -5.727  -9.696  0.00  0.00     0.163 HD
ENDROOT
BRANCH   1   5
HETATM    5  C           1     -21.203  -5.922  -7.136  0.00  0.00     0.297 C 
BRANCH   5   6
HETATM    6  N           1     -19.748  -6.089  -7.459  0.00  0.00    -0.064 N 
HETATM    7  H           1     -19.246  -6.465  -6.622  0.00  0.00     0.275 HD
HETATM    8  H           1     -19.641  -6.757  -8.256  0.00  0.00     0.275 HD
HETATM    9  H           1     -19.342  -5.164  -7.723  0.00  0.00     0.275 HD
ENDBRANCH   5   6
BRANCH   5  10
HETATM   10  C           1     -21.367  -5.697  -5.638  0.00  0.00     0.206 C 
BRANCH  10  11
HETATM   11  O           1     -22.700  -5.933  -5.274  0.00  0.00    -0.398 OA
HETATM   12  H           1     -23.021  -6.618  -5.837  0.00  0.00     0.209 HD
ENDBRANCH  10  11
ENDBRANCH   5  10
ENDBRANCH   1   5
BRANCH   3  13
HETATM   13  C           1     -22.584  -3.705  -9.939  0.00  0.00     0.214 C 
BRANCH  13  14
HETATM   14  C           1     -24.062  -3.901 -10.178  0.00  0.00     0.199 C 
HETATM   15  O           1     -24.575  -5.030 -10.026  0.00  0.00    -0.646 OA
HETATM   16  O           1     -24.772  -2.933 -10.526  0.00  0.00    -0.646 OA
ENDBRANCH  13  14
BRANCH  13  17
HETATM   17  C           1     -21.866  -3.574 -11.275  0.00  0.00     0.147 C 
HETATM   18  C           1     -20.429  -4.056 -11.127  0.00  0.00     0.042 C 
BRANCH  17  19
HETATM   19  O           1     -22.524  -4.354 -12.237  0.00  0.00    -0.393 OA
HETATM   20  H           1     -22.035  -4.271 -13.038  0.00  0.00     0.210 HD
ENDBRANCH  17  19
ENDBRANCH  13  17
ENDBRANCH   3  13
TORSDOF 8
ENDMDL
MODEL 2
REMARK VINA RESULT:      -5.6     10.066     11.904
REMARK  8 active torsions:
REMARK  status: ('A' for Active; 'I' for Inactive)
REMARK    1  A    between atoms: C_1  and  C_5 
REMARK    2  A    between atoms: C_5  and  C_12 
REMARK    3  A    between atoms: C_5  and  N_14 
REMARK    4  A    between atoms: O_6  and  C_12 
REMARK       I    between atoms: C_7  and  N_14 
REMARK    5  A    between atoms: C_7  and  C_10 
REMARK    6  A    between atoms: N_9  and  C_10 
REMARK    7  A    between atoms: C_10  and  C_11 
REMARK    8  A    between atoms: C_11  and  O_16 
ROOT
HETATM    1  C           1     -26.564  -6.345 -19.863  0.00  0.00     0.251 C 
HETATM    2  O           1     -27.162  -5.628 -20.630  0.00  0.00    -0.271 OA
HETATM    3  N           1     -27.037  -6.533 -18.592  0.00  0.00    -0.342 N 
HETATM    4  H           1     -26.536  -7.133 -17.949  0.00  0.00     0.163 HD
ENDROOT
BRANCH   1   5
HETATM    5  C           1     -25.297  -7.034 -20.306  0.00  0.00     0.297 C 
BRANCH   5   6
HETATM    6  N           1     -24.536  -7.503 -19.102  0.00  0.00    -0.064 N 
HETATM    7  H           1     -24.517  -6.744 -18.384  0.00  0.00     0.275 HD
HETATM    8  H           1     -25.003  -8.349 -18.701  0.00  0.00     0.275 HD
HETATM    9  H           1     -23.558  -7.745 -19.381  0.00  0.00     0.275 HD
ENDBRANCH   5   6
BRANCH   5  10
HETATM   10  C           1     -25.648  -8.230 -21.182  0.00  0.00     0.206 C 
BRANCH  10  11
HETATM   11  O           1     -27.001  -8.551 -21.014  0.00  0.00    -0.398 OA
HETATM   12  H           1     -27.115  -8.791 -20.109  0.00  0.00     0.209 HD
ENDBRANCH  10  11
ENDBRANCH   5  10
ENDBRANCH   1   5
BRANCH   3  13
HETATM   13  C           1     -28.255  -5.872 -18.166  0.00  0.00     0.214 C 
BRANCH  13  14
HETATM   14  C           1     -27.912  -4.750 -17.216  0.00  0.00     0.199 C 
HETATM   15  O           1     -26.921  -4.853 -16.460  0.00  0.00    -0.646 OA
HETATM   16  O           1     -28.616  -3.719 -17.187  0.00  0.00    -0.646 OA
ENDBRANCH  13  14
BRANCH  13  17
HETATM   17  C           1     -29.158  -6.876 -17.462  0.00  0.00     0.147 C 
HETATM   18  C           1     -29.825  -7.771 -18.498  0.00  0.00     0.042 C 
BRANCH  17  19
HETATM   19  O           1     -28.391  -7.661 -16.589  0.00  0.00    -0.393 OA
HETATM   20  H           1     -28.114  -8.419 -17.075  0.00  0.00     0.210 HD
ENDBRANCH  17  19
ENDBRANCH  13  17
ENDBRANCH   3  13
TORSDOF 8
ENDMDL
MODEL 3
REMARK VINA RESULT:      -5.1      8.792     10.530
REMARK  8 active torsions:
REMARK  status: ('A' for Active; 'I' for Inactive)
REMARK    1  A    between atoms: C_1  and  C_5 
REMARK    2  A    between atoms: C_5  and  C_12 
REMARK    3  A    between atoms: C_5  and  N_14 
REMARK    4  A    between atoms: O_6  and  C_12 
REMARK       I    between atoms: C_7  and  N_14 
REMARK    5  A    between atoms: C_7  and  C_10 
REMARK    6  A    between atoms: N_9  and  C_10 
REMARK    7  A    between atoms: C_10  and  C_11 
REMARK    8  A    between atoms: C_11  and  O_16 
ROOT
HETATM    1  C           1     -28.062  -6.115 -17.548  0.00  0.00     0.251 C 
HETATM    2  O           1     -28.397  -6.994 -16.790  0.00  0.00    -0.271 OA
HETATM    3  N           1     -26.782  -6.080 -18.033  0.00  0.00    -0.342 N 
HETATM    4  H           1     -26.501  -5.344 -18.668  0.00  0.00     0.163 HD
ENDROOT
BRANCH   1   5
HETATM    5  C           1     -29.054  -5.057 -17.962  0.00  0.00     0.297 C 
BRANCH   5   6
HETATM    6  N           1     -30.437  -5.487 -17.571  0.00  0.00    -0.064 N 
HETATM    7  H           1     -30.909  -4.712 -17.051  0.00  0.00     0.275 HD
HETATM    8  H           1     -30.988  -5.715 -18.430  0.00  0.00     0.275 HD
HETATM    9  H           1     -30.378  -6.332 -16.960  0.00  0.00     0.275 HD
ENDBRANCH   5   6
BRANCH   5  10
HETATM   10  C           1     -28.716  -3.743 -17.268  0.00  0.00     0.206 C 
BRANCH  10  11
HETATM   11  O           1     -27.780  -3.980 -16.252  0.00  0.00    -0.398 OA
HETATM   12  H           1     -27.093  -3.343 -16.359  0.00  0.00     0.209 HD
ENDBRANCH  10  11
ENDBRANCH   5  10
ENDBRANCH   1   5
BRANCH   3  13
HETATM   13  C           1     -25.828  -7.098 -17.636  0.00  0.00     0.214 C 
BRANCH  13  14
HETATM   14  C           1     -25.254  -6.747 -16.285  0.00  0.00     0.199 C 
HETATM   15  O           1     -25.147  -5.549 -15.944  0.00  0.00    -0.646 OA
HETATM   16  O           1     -24.887  -7.654 -15.508  0.00  0.00    -0.646 OA
ENDBRANCH  13  14
BRANCH  13  17
HETATM   17  C           1     -24.706  -7.169 -18.663  0.00  0.00     0.147 C 
HETATM   18  C           1     -25.150  -6.482 -19.948  0.00  0.00     0.042 C 
BRANCH  17  19
HETATM   19  O           1     -23.568  -6.523 -18.156  0.00  0.00    -0.393 OA
HETATM   20  H           1     -22.823  -6.904 -18.589  0.00  0.00     0.210 HD
ENDBRANCH  17  19
ENDBRANCH  13  17
ENDBRANCH   3  13
TORSDOF 8
ENDMDL
MODEL 4
REMARK VINA RESULT:      -5.0     17.163     18.773
REMARK  8 active torsions:
REMARK  status: ('A' for Active; 'I' for Inactive)
REMARK    1  A    between atoms: C_1  and  C_5 
REMARK    2  A    between atoms: C_5  and  C_12 
REMARK    3  A    between atoms: C_5  and  N_14 
REMARK    4  A    between atoms: O_6  and  C_12 
REMARK       I    between atoms: C_7  and  N_14 
REMARK    5  A    between atoms: C_7  and  C_10 
REMARK    6  A    between atoms: N_9  and  C_10 
REMARK    7  A    between atoms: C_10  and  C_11 
REMARK    8  A    between atoms: C_11  and  O_16 
ROOT
HETATM    1  C           1     -11.565   6.641 -20.711  0.00  0.00     0.251 C 
HETATM    2  O           1     -12.041   7.411 -21.512  0.00  0.00    -0.271 OA
HETATM    3  N           1     -12.023   5.352 -20.645  0.00  0.00    -0.342 N 
HETATM    4  H           1     -11.625   4.708 -19.975  0.00  0.00     0.163 HD
ENDROOT
BRANCH   1   5
HETATM    5  C           1     -10.466   7.100 -19.786  0.00  0.00     0.297 C 
BRANCH   5   6
HETATM    6  N           1      -9.136   6.899 -20.450  0.00  0.00    -0.064 N 
HETATM    7  H           1      -8.972   5.878 -20.601  0.00  0.00     0.275 HD
HETATM    8  H           1      -9.129   7.392 -21.372  0.00  0.00     0.275 HD
HETATM    9  H           1      -8.381   7.288 -19.841  0.00  0.00     0.275 HD
ENDBRANCH   5   6
BRANCH   5  10
HETATM   10  C           1     -10.655   8.576 -19.464  0.00  0.00     0.206 C 
BRANCH  10  11
HETATM   11  O           1     -10.227   8.827 -18.152  0.00  0.00    -0.398 OA
HETATM   12  H           1      -9.923   8.007 -17.802  0.00  0.00     0.209 HD
ENDBRANCH  10  11
ENDBRANCH   5  10
ENDBRANCH   1   5
BRANCH   3  13
HETATM   13  C           1     -13.079   4.912 -21.535  0.00  0.00     0.214 C 
BRANCH  13  14
HETATM   14  C           1     -14.399   4.944 -20.803  0.00  0.00     0.199 C 
HETATM   15  O           1     -15.437   5.301 -21.402  0.00  0.00    -0.646 OA
HETATM   16  O           1     -14.454   4.612 -19.600  0.00  0.00    -0.646 OA
ENDBRANCH  13  14
BRANCH  13  17
HETATM   17  C           1     -12.791   3.491 -22.000  0.00  0.00     0.147 C 
HETATM   18  C           1     -11.861   2.810 -21.004  0.00  0.00     0.042 C 
BRANCH  17  19
HETATM   19  O           1     -13.993   2.774 -22.084  0.00  0.00    -0.393 OA
HETATM   20  H           1     -14.521   3.201 -22.736  0.00  0.00     0.210 HD
ENDBRANCH  17  19
ENDBRANCH  13  17
ENDBRANCH   3  13
TORSDOF 8
ENDMDL
MODEL 5
REMARK VINA RESULT:      -4.9      8.230     10.148
REMARK  8 active torsions:
REMARK  status: ('A' for Active; 'I' for Inactive)
REMARK    1  A    between atoms: C_1  and  C_5 
REMARK    2  A    between atoms: C_5  and  C_12 
REMARK    3  A    between atoms: C_5  and  N_14 
REMARK    4  A    between atoms: O_6  and  C_12 
REMARK       I    between atoms: C_7  and  N_14 
REMARK    5  A    between atoms: C_7  and  C_10 
REMARK    6  A    between atoms: N_9  and  C_10 
REMARK    7  A    between atoms: C_10  and  C_11 
REMARK    8  A    between atoms: C_11  and  O_16 
ROOT
HETATM    1  C           1     -25.850  -6.652 -17.891  0.00  0.00     0.251 C 
HETATM    2  O           1     -25.652  -6.222 -19.003  0.00  0.00    -0.271 OA
HETATM    3  N           1     -27.032  -6.384 -17.255  0.00  0.00    -0.342 N 
HETATM    4  H           1     -27.198  -6.744 -16.324  0.00  0.00     0.163 HD
ENDROOT
BRANCH   1   5
HETATM    5  C           1     -24.795  -7.485 -17.205  0.00  0.00     0.297 C 
BRANCH   5   6
HETATM    6  N           1     -23.461  -7.221 -17.837  0.00  0.00    -0.064 N 
HETATM    7  H           1     -23.029  -8.128 -18.130  0.00  0.00     0.275 HD
HETATM    8  H           1     -23.586  -6.610 -18.676  0.00  0.00     0.275 HD
HETATM    9  H           1     -22.838  -6.745 -17.147  0.00  0.00     0.275 HD
ENDBRANCH   5   6
BRANCH   5  10
HETATM   10  C           1     -24.739  -7.117 -15.728  0.00  0.00     0.206 C 
BRANCH  10  11
HETATM   11  O           1     -24.639  -5.725 -15.597  0.00  0.00    -0.398 OA
HETATM   12  H           1     -24.356  -5.391 -16.431  0.00  0.00     0.209 HD
ENDBRANCH  10  11
ENDBRANCH   5  10
ENDBRANCH   1   5
BRANCH   3  13
HETATM   13  C           1     -28.046  -5.584 -17.914  0.00  0.00     0.214 C 
BRANCH  13  14
HETATM   14  C           1     -28.326  -4.350 -17.091  0.00  0.00     0.199 C 
HETATM   15  O           1     -28.002  -4.318 -15.884  0.00  0.00    -0.646 OA
HETATM   16  O           1     -28.878  -3.361 -17.617  0.00  0.00    -0.646 OA
ENDBRANCH  13  14
BRANCH  13  17
HETATM   17  C           1     -29.323  -6.401 -18.056  0.00  0.00     0.147 C 
HETATM   18  C           1     -29.281  -7.579 -17.092  0.00  0.00     0.042 C 
BRANCH  17  19
HETATM   19  O           1     -30.430  -5.592 -17.759  0.00  0.00    -0.393 OA
HETATM   20  H           1     -30.843  -5.382 -18.579  0.00  0.00     0.210 HD
ENDBRANCH  17  19
ENDBRANCH  13  17
ENDBRANCH   3  13
TORSDOF 8
ENDMDL
MODEL 6
REMARK VINA RESULT:      -4.9      9.717     12.106
REMARK  8 active torsions:
REMARK  status: ('A' for Active; 'I' for Inactive)
REMARK    1  A    between atoms: C_1  and  C_5 
REMARK    2  A    between atoms: C_5  and  C_12 
REMARK    3  A    between atoms: C_5  and  N_14 
REMARK    4  A    between atoms: O_6  and  C_12 
REMARK       I    between atoms: C_7  and  N_14 
REMARK    5  A    between atoms: C_7  and  C_10 
REMARK    6  A    between atoms: N_9  and  C_10 
REMARK    7  A    between atoms: C_10  and  C_11 
REMARK    8  A    between atoms: C_11  and  O_16 
ROOT
HETATM    1  C           1     -31.586  -5.854 -16.952  0.00  0.00     0.251 C 
HETATM    2  O           1     -31.863  -6.952 -17.375  0.00  0.00    -0.271 OA
HETATM    3  N           1     -30.288  -5.550 -16.636  0.00  0.00    -0.342 N 
HETATM    4  H           1     -30.056  -4.632 -16.281  0.00  0.00     0.163 HD
ENDROOT
BRANCH   1   5
HETATM    5  C           1     -32.668  -4.819 -16.772  0.00  0.00     0.297 C 
BRANCH   5   6
HETATM    6  N           1     -32.770  -4.448 -15.323  0.00  0.00    -0.064 N 
HETATM    7  H           1     -33.631  -4.879 -14.913  0.00  0.00     0.275 HD
HETATM    8  H           1     -31.929  -4.800 -14.812  0.00  0.00     0.275 HD
HETATM    9  H           1     -32.823  -3.409 -15.233  0.00  0.00     0.275 HD
ENDBRANCH   5   6
BRANCH   5  10
HETATM   10  C           1     -32.328  -3.580 -17.590  0.00  0.00     0.206 C 
BRANCH  10  11
HETATM   11  O           1     -33.465  -2.769 -17.705  0.00  0.00    -0.398 OA
HETATM   12  H           1     -34.208  -3.346 -17.765  0.00  0.00     0.209 HD
ENDBRANCH  10  11
ENDBRANCH   5  10
ENDBRANCH   1   5
BRANCH   3  13
HETATM   13  C           1     -29.248  -6.545 -16.809  0.00  0.00     0.214 C 
BRANCH  13  14
HETATM   14  C           1     -28.243  -6.421 -15.689  0.00  0.00     0.199 C 
HETATM   15  O           1     -27.822  -5.293 -15.350  0.00  0.00    -0.646 OA
HETATM   16  O           1     -27.835  -7.444 -15.100  0.00  0.00    -0.646 OA
ENDBRANCH  13  14
BRANCH  13  17
HETATM   17  C           1     -28.550  -6.322 -18.144  0.00  0.00     0.147 C 
HETATM   18  C           1     -28.844  -4.912 -18.640  0.00  0.00     0.042 C 
BRANCH  17  19
HETATM   19  O           1     -27.167  -6.483 -17.980  0.00  0.00    -0.393 OA
HETATM   20  H           1     -26.882  -5.810 -17.385  0.00  0.00     0.210 HD
ENDBRANCH  17  19
ENDBRANCH  13  17
ENDBRANCH   3  13
TORSDOF 8
ENDMDL
MODEL 7
REMARK VINA RESULT:      -4.8     17.160     18.873
REMARK  8 active torsions:
REMARK  status: ('A' for Active; 'I' for Inactive)
REMARK    1  A    between atoms: C_1  and  C_5 
REMARK    2  A    between atoms: C_5  and  C_12 
REMARK    3  A    between atoms: C_5  and  N_14 
REMARK    4  A    between atoms: O_6  and  C_12 
REMARK       I    between atoms: C_7  and  N_14 
REMARK    5  A    between atoms: C_7  and  C_10 
REMARK    6  A    between atoms: N_9  and  C_10 
REMARK    7  A    between atoms: C_10  and  C_11 
REMARK    8  A    between atoms: C_11  and  O_16 
ROOT
HETATM    1  C           1     -11.983   7.880 -20.448  0.00  0.00     0.251 C 
HETATM    2  O           1     -11.489   7.679 -21.532  0.00  0.00    -0.271 OA
HETATM    3  N           1     -12.783   6.927 -19.874  0.00  0.00    -0.342 N 
HETATM    4  H           1     -13.197   7.094 -18.967  0.00  0.00     0.163 HD
ENDROOT
BRANCH   1   5
HETATM    5  C           1     -11.720   9.178 -19.727  0.00  0.00     0.297 C 
BRANCH   5   6
HETATM    6  N           1     -12.879   9.495 -18.829  0.00  0.00    -0.064 N 
HETATM    7  H           1     -13.368   8.609 -18.565  0.00  0.00     0.275 HD
HETATM    8  H           1     -12.532   9.971 -17.965  0.00  0.00     0.275 HD
HETATM    9  H           1     -13.545  10.125 -19.330  0.00  0.00     0.275 HD
ENDBRANCH   5   6
BRANCH   5  10
HETATM   10  C           1     -10.453   9.047 -18.892  0.00  0.00     0.206 C 
BRANCH  10  11
HETATM   11  O           1     -10.209   7.694 -18.620  0.00  0.00    -0.398 OA
HETATM   12  H           1      -9.795   7.331 -19.385  0.00  0.00     0.209 HD
ENDBRANCH  10  11
ENDBRANCH   5  10
ENDBRANCH   1   5
BRANCH   3  13
HETATM   13  C           1     -13.035   5.679 -20.568  0.00  0.00     0.214 C 
BRANCH  13  14
HETATM   14  C           1     -14.516   5.386 -20.550  0.00  0.00     0.199 C 
HETATM   15  O           1     -15.102   5.195 -19.463  0.00  0.00    -0.646 OA
HETATM   16  O           1     -15.155   5.336 -21.622  0.00  0.00    -0.646 OA
ENDBRANCH  13  14
BRANCH  13  17
HETATM   17  C           1     -12.286   4.551 -19.871  0.00  0.00     0.147 C 
HETATM   18  C           1     -11.307   3.913 -20.848  0.00  0.00     0.042 C 
BRANCH  17  19
HETATM   19  O           1     -11.582   5.067 -18.773  0.00  0.00    -0.393 OA
HETATM   20  H           1     -12.216   5.482 -18.213  0.00  0.00     0.210 HD
ENDBRANCH  17  19
ENDBRANCH  13  17
ENDBRANCH   3  13
TORSDOF 8
ENDMDL
MODEL 8
REMARK VINA RESULT:      -4.7      8.895     11.075
REMARK  8 active torsions:
REMARK  status: ('A' for Active; 'I' for Inactive)
REMARK    1  A    between atoms: C_1  and  C_5 
REMARK    2  A    between atoms: C_5  and  C_12 
REMARK    3  A    between atoms: C_5  and  N_14 
REMARK    4  A    between atoms: O_6  and  C_12 
REMARK       I    between atoms: C_7  and  N_14 
REMARK    5  A    between atoms: C_7  and  C_10 
REMARK    6  A    between atoms: N_9  and  C_10 
REMARK    7  A    between atoms: C_10  and  C_11 
REMARK    8  A    between atoms: C_11  and  O_16 
ROOT
HETATM    1  C           1     -29.177  -6.095 -17.596  0.00  0.00     0.251 C 
HETATM    2  O           1     -29.389  -7.176 -18.092  0.00  0.00    -0.271 OA
HETATM    3  N           1     -27.908  -5.759 -17.206  0.00  0.00    -0.342 N 
HETATM    4  H           1     -27.730  -4.854 -16.790  0.00  0.00     0.163 HD
ENDROOT
BRANCH   1   5
HETATM    5  C           1     -30.308  -5.115 -17.408  0.00  0.00     0.297 C 
BRANCH   5   6
HETATM    6  N           1     -30.918  -5.310 -16.052  0.00  0.00    -0.064 N 
HETATM    7  H           1     -30.759  -6.294 -15.736  0.00  0.00     0.275 HD
HETATM    8  H           1     -30.476  -4.651 -15.372  0.00  0.00     0.275 HD
HETATM    9  H           1     -31.945  -5.122 -16.102  0.00  0.00     0.275 HD
ENDBRANCH   5   6
BRANCH   5  10
HETATM   10  C           1     -29.774  -3.693 -17.524  0.00  0.00     0.206 C 
BRANCH  10  11
HETATM   11  O           1     -30.846  -2.802 -17.667  0.00  0.00    -0.398 OA
HETATM   12  H           1     -31.492  -3.045 -17.025  0.00  0.00     0.209 HD
ENDBRANCH  10  11
ENDBRANCH   5  10
ENDBRANCH   1   5
BRANCH   3  13
HETATM   13  C           1     -26.820  -6.701 -17.387  0.00  0.00     0.214 C 
BRANCH  13  14
HETATM   14  C           1     -25.876  -6.609 -16.213  0.00  0.00     0.199 C 
HETATM   15  O           1     -25.737  -7.586 -15.445  0.00  0.00    -0.646 OA
HETATM   16  O           1     -25.232  -5.558 -16.009  0.00  0.00    -0.646 OA
ENDBRANCH  13  14
BRANCH  13  17
HETATM   17  C           1     -26.070  -6.367 -18.669  0.00  0.00     0.147 C 
HETATM   18  C           1     -24.704  -7.042 -18.647  0.00  0.00     0.042 C 
BRANCH  17  19
HETATM   19  O           1     -26.802  -6.830 -19.772  0.00  0.00    -0.393 OA
HETATM   20  H           1     -27.459  -6.180 -19.956  0.00  0.00     0.210 HD
ENDBRANCH  17  19
ENDBRANCH  13  17
ENDBRANCH   3  13
TORSDOF 8
ENDMDL
MODEL 9
REMARK VINA RESULT:      -4.5      1.860      5.410
REMARK  8 active torsions:
REMARK  status: ('A' for Active; 'I' for Inactive)
REMARK    1  A    between atoms: C_1  and  C_5 
REMARK    2  A    between atoms: C_5  and  C_12 
REMARK    3  A    between atoms: C_5  and  N_14 
REMARK    4  A    between atoms: O_6  and  C_12 
REMARK       I    between atoms: C_7  and  N_14 
REMARK    5  A    between atoms: C_7  and  C_10 
REMARK    6  A    between atoms: N_9  and  C_10 
REMARK    7  A    between atoms: C_10  and  C_11 
REMARK    8  A    between atoms: C_11  and  O_16 
ROOT
HETATM    1  C           1     -22.548  -4.238  -8.157  0.00  0.00     0.251 C 
HETATM    2  O           1     -21.981  -3.193  -7.946  0.00  0.00    -0.271 OA
HETATM    3  N           1     -22.283  -5.331  -7.376  0.00  0.00    -0.342 N 
HETATM    4  H           1     -22.758  -6.206  -7.553  0.00  0.00     0.163 HD
ENDROOT
BRANCH   1   5
HETATM    5  C           1     -23.549  -4.339  -9.281  0.00  0.00     0.297 C 
BRANCH   5   6
HETATM    6  N           1     -24.530  -3.209  -9.181  0.00  0.00    -0.064 N 
HETATM    7  H           1     -25.362  -3.415  -9.780  0.00  0.00     0.275 HD
HETATM    8  H           1     -24.837  -3.099  -8.187  0.00  0.00     0.275 HD
HETATM    9  H           1     -24.077  -2.325  -9.505  0.00  0.00     0.275 HD
ENDBRANCH   5   6
BRANCH   5  10
HETATM   10  C           1     -22.823  -4.263 -10.618  0.00  0.00     0.206 C 
BRANCH  10  11
HETATM   11  O           1     -22.600  -2.920 -10.952  0.00  0.00    -0.398 OA
HETATM   12  H           1     -23.284  -2.418 -10.542  0.00  0.00     0.209 HD
ENDBRANCH  10  11
ENDBRANCH   5  10
ENDBRANCH   1   5
BRANCH   3  13
HETATM   13  C           1     -21.321  -5.234  -6.295  0.00  0.00     0.214 C 
BRANCH  13  14
HETATM   14  C           1     -19.947  -5.579  -6.814  0.00  0.00     0.199 C 
HETATM   15  O           1     -19.642  -6.772  -7.031  0.00  0.00    -0.646 OA
HETATM   16  O           1     -19.114  -4.673  -7.030  0.00  0.00    -0.646 OA
ENDBRANCH  13  14
BRANCH  13  17
HETATM   17  C           1     -21.705  -6.204  -5.187  0.00  0.00     0.147 C 
HETATM   18  C           1     -21.028  -5.784  -3.888  0.00  0.00     0.042 C 
BRANCH  17  19
HETATM   19  O           1     -23.096  -6.191  -5.015  0.00  0.00    -0.393 OA
HETATM   20  H           1     -23.469  -6.623  -5.764  0.00  0.00     0.210 HD
ENDBRANCH  17  19
ENDBRANCH  13  17
ENDBRANCH   3  13
TORSDOF 8
ENDMDL
