MODEL 1
REMARK VINA RESULT:      -8.0      0.000      0.000
REMARK  8 active torsions:
REMARK  status: ('A' for Active; 'I' for Inactive)
REMARK    1  A    between atoms: C_2  and  C_26 
REMARK    2  A    between atoms: C_2  and  C_3 
REMARK    3  A    between atoms: C_2  and  N_14 
REMARK    4  A    between atoms: C_3  and  C_24 
REMARK       I    between atoms: N_14  and  C_22 
REMARK    5  A    between atoms: C_21  and  C_22 
REMARK    6  A    between atoms: C_21  and  C_27 
REMARK    7  A    between atoms: C_21  and  N_23 
REMARK    8  A    between atoms: C_27  and  C_28 
ROOT
HETATM    1  N           1     -19.782  -7.044  -6.396  0.00  0.00    -0.344 N 
HETATM    2  O           1     -19.541  -4.853  -6.037  0.00  0.00    -0.271 OA
HETATM    3  C           1     -20.259  -5.762  -6.384  0.00  0.00     0.249 C 
HETATM    4  H           1     -19.341  -7.412  -7.230  0.00  0.00     0.163 HD
ENDROOT
BRANCH   1   5
HETATM    5  C           1     -19.910  -7.877  -5.216  0.00  0.00     0.190 C 
BRANCH   5   6
HETATM    6  C           1     -18.798  -8.897  -5.200  0.00  0.00     0.197 C 
HETATM    7  O           1     -18.237  -9.194  -4.123  0.00  0.00    -0.646 OA
HETATM    8  O           1     -18.439  -9.448  -6.264  0.00  0.00    -0.646 OA
ENDBRANCH   5   6
BRANCH   5   9
HETATM    9  C           1     -21.254  -8.592  -5.243  0.00  0.00     0.077 C 
BRANCH   9  10
HETATM   10  C           1     -21.551  -9.146  -3.884  0.00  0.00    -0.028 A 
HETATM   11  C           1     -21.616 -10.480  -3.549  0.00  0.00     0.096 A 
HETATM   12  N           1     -21.912 -10.561  -2.213  0.00  0.00    -0.365 N 
HETATM   13  C           1     -22.039  -9.300  -1.676  0.00  0.00     0.042 A 
HETATM   14  H           1     -22.025 -11.456  -1.677  0.00  0.00     0.165 HD
HETATM   15  C           1     -22.331  -8.899  -0.367  0.00  0.00     0.030 A 
HETATM   16  C           1     -21.816  -8.389  -2.709  0.00  0.00    -0.002 A 
HETATM   17  C           1     -22.396  -7.526  -0.109  0.00  0.00     0.002 A 
HETATM   18  C           1     -22.178  -6.594  -1.122  0.00  0.00     0.001 A 
HETATM   19  C           1     -21.888  -7.011  -2.427  0.00  0.00     0.014 A 
ENDBRANCH   9  10
ENDBRANCH   5   9
ENDBRANCH   1   5
BRANCH   3  20
HETATM   20  C           1     -21.682  -5.481  -6.803  0.00  0.00     0.280 C 
BRANCH  20  21
HETATM   21  C           1     -21.762  -4.096  -7.432  0.00  0.00     0.101 C 
BRANCH  21  22
HETATM   22  C           1     -22.728  -4.122  -8.576  0.00  0.00     0.028 A 
HETATM   23  N           1     -24.044  -3.748  -8.492  0.00  0.00    -0.355 N 
HETATM   24  C           1     -24.530  -3.918  -9.700  0.00  0.00     0.180 A 
ATOM     25  HN          1     -24.540  -3.410  -7.667  1.00  0.00     0.166 HD
HETATM   26  N           1     -23.578  -4.389 -10.560  0.00  0.00    -0.360 N 
HETATM   27  H           1     -23.714  -4.606 -11.578  0.00  0.00     0.166 HD
HETATM   28  C           1     -22.417  -4.524  -9.852  0.00  0.00     0.114 A 
ENDBRANCH  21  22
ENDBRANCH  20  21
BRANCH  20  29
HETATM   29  N           1     -22.576  -5.536  -5.600  0.00  0.00    -0.066 N 
HETATM   30  H           1     -23.544  -5.249  -5.872  0.00  0.00     0.275 HD
HETATM   31  H           1     -22.595  -6.511  -5.225  0.00  0.00     0.275 HD
HETATM   32  H           1     -22.213  -4.886  -4.866  0.00  0.00     0.275 HD
ENDBRANCH  20  29
ENDBRANCH   3  20
TORSDOF 8
ENDMDL
MODEL 2
REMARK VINA RESULT:      -7.9      1.495      2.143
REMARK  8 active torsions:
REMARK  status: ('A' for Active; 'I' for Inactive)
REMARK    1  A    between atoms: C_2  and  C_26 
REMARK    2  A    between atoms: C_2  and  C_3 
REMARK    3  A    between atoms: C_2  and  N_14 
REMARK    4  A    between atoms: C_3  and  C_24 
REMARK       I    between atoms: N_14  and  C_22 
REMARK    5  A    between atoms: C_21  and  C_22 
REMARK    6  A    between atoms: C_21  and  C_27 
REMARK    7  A    between atoms: C_21  and  N_23 
REMARK    8  A    between atoms: C_27  and  C_28 
ROOT
HETATM    1  N           1     -20.858  -7.516  -6.015  0.00  0.00    -0.344 N 
HETATM    2  O           1     -19.356  -6.499  -7.317  0.00  0.00    -0.271 OA
HETATM    3  C           1     -20.298  -6.397  -6.568  0.00  0.00     0.249 C 
HETATM    4  H           1     -21.614  -7.992  -6.493  0.00  0.00     0.163 HD
ENDROOT
BRANCH   1   5
HETATM    5  C           1     -20.370  -8.020  -4.747  0.00  0.00     0.190 C 
BRANCH   5   6
HETATM    6  C           1     -19.264  -9.016  -4.995  0.00  0.00     0.197 C 
HETATM    7  O           1     -18.336  -9.140  -4.166  0.00  0.00    -0.646 OA
HETATM    8  O           1     -19.276  -9.719  -6.029  0.00  0.00    -0.646 OA
ENDBRANCH   5   6
BRANCH   5   9
HETATM    9  C           1     -21.509  -8.702  -4.000  0.00  0.00     0.077 C 
BRANCH   9  10
HETATM   10  C           1     -21.710  -8.032  -2.676  0.00  0.00    -0.028 A 
HETATM   11  C           1     -22.164  -6.748  -2.477  0.00  0.00     0.096 A 
HETATM   12  N           1     -22.204  -6.523  -1.126  0.00  0.00    -0.365 N 
HETATM   13  C           1     -21.783  -7.642  -0.444  0.00  0.00     0.042 A 
HETATM   14  H           1     -22.512  -5.626  -0.676  0.00  0.00     0.165 HD
HETATM   15  C           1     -21.661  -7.871   0.931  0.00  0.00     0.030 A 
HETATM   16  C           1     -21.465  -8.609  -1.399  0.00  0.00    -0.002 A 
HETATM   17  C           1     -21.201  -9.126   1.341  0.00  0.00     0.002 A 
HETATM   18  C           1     -20.875 -10.111   0.409  0.00  0.00     0.001 A 
HETATM   19  C           1     -21.003  -9.866  -0.963  0.00  0.00     0.014 A 
ENDBRANCH   9  10
ENDBRANCH   5   9
ENDBRANCH   1   5
BRANCH   3  20
HETATM   20  C           1     -20.859  -5.033  -6.242  0.00  0.00     0.280 C 
BRANCH  20  21
HETATM   21  C           1     -20.718  -4.123  -7.455  0.00  0.00     0.101 C 
BRANCH  21  22
HETATM   22  C           1     -22.041  -3.998  -8.143  0.00  0.00     0.028 A 
HETATM   23  N           1     -22.207  -3.610  -9.447  0.00  0.00    -0.355 N 
HETATM   24  C           1     -23.504  -3.631  -9.653  0.00  0.00     0.180 A 
ATOM     25  HN          1     -21.478  -3.359 -10.116  1.00  0.00     0.166 HD
HETATM   26  N           1     -24.182  -4.016  -8.531  0.00  0.00    -0.360 N 
HETATM   27  H           1     -25.223  -4.111  -8.437  0.00  0.00     0.166 HD
HETATM   28  C           1     -23.256  -4.255  -7.554  0.00  0.00     0.114 A 
ENDBRANCH  21  22
ENDBRANCH  20  21
BRANCH  20  29
HETATM   29  N           1     -20.103  -4.447  -5.087  0.00  0.00    -0.066 N 
HETATM   30  H           1     -19.302  -5.072  -4.841  0.00  0.00     0.275 HD
HETATM   31  H           1     -19.738  -3.504  -5.352  0.00  0.00     0.275 HD
HETATM   32  H           1     -20.740  -4.357  -4.264  0.00  0.00     0.275 HD
ENDBRANCH  20  29
ENDBRANCH   3  20
TORSDOF 8
ENDMDL
MODEL 3
REMARK VINA RESULT:      -7.7      1.820      2.229
REMARK  8 active torsions:
REMARK  status: ('A' for Active; 'I' for Inactive)
REMARK    1  A    between atoms: C_2  and  C_26 
REMARK    2  A    between atoms: C_2  and  C_3 
REMARK    3  A    between atoms: C_2  and  N_14 
REMARK    4  A    between atoms: C_3  and  C_24 
REMARK       I    between atoms: N_14  and  C_22 
REMARK    5  A    between atoms: C_21  and  C_22 
REMARK    6  A    between atoms: C_21  and  C_27 
REMARK    7  A    between atoms: C_21  and  N_23 
REMARK    8  A    between atoms: C_27  and  C_28 
ROOT
HETATM    1  N           1     -20.392  -6.817  -6.672  0.00  0.00    -0.344 N 
HETATM    2  O           1     -19.517  -4.796  -6.301  0.00  0.00    -0.271 OA
HETATM    3  C           1     -20.356  -5.462  -6.861  0.00  0.00     0.249 C 
HETATM    4  H           1     -19.864  -7.427  -7.283  0.00  0.00     0.163 HD
ENDROOT
BRANCH   1   5
HETATM    5  C           1     -21.188  -7.378  -5.598  0.00  0.00     0.190 C 
BRANCH   5   6
HETATM    6  C           1     -21.935  -6.270  -4.896  0.00  0.00     0.197 C 
HETATM    7  O           1     -21.381  -5.627  -3.978  0.00  0.00    -0.646 OA
HETATM    8  O           1     -23.107  -5.995  -5.234  0.00  0.00    -0.646 OA
ENDBRANCH   5   6
BRANCH   5   9
HETATM    9  C           1     -20.273  -8.083  -4.605  0.00  0.00     0.077 C 
BRANCH   9  10
HETATM   10  C           1     -21.079  -9.028  -3.768  0.00  0.00    -0.028 A 
HETATM   11  C           1     -21.617 -10.224  -4.185  0.00  0.00     0.096 A 
HETATM   12  N           1     -22.278 -10.779  -3.121  0.00  0.00    -0.365 N 
HETATM   13  C           1     -22.177  -9.961  -2.018  0.00  0.00     0.042 A 
HETATM   14  H           1     -22.787 -11.697  -3.143  0.00  0.00     0.165 HD
HETATM   15  C           1     -22.688 -10.119  -0.725  0.00  0.00     0.030 A 
HETATM   16  C           1     -21.426  -8.849  -2.400  0.00  0.00    -0.002 A 
HETATM   17  C           1     -22.422  -9.109   0.204  0.00  0.00     0.002 A 
HETATM   18  C           1     -21.674  -7.986  -0.149  0.00  0.00     0.001 A 
HETATM   19  C           1     -21.170  -7.844  -1.448  0.00  0.00     0.014 A 
ENDBRANCH   9  10
ENDBRANCH   5   9
ENDBRANCH   1   5
BRANCH   3  20
HETATM   20  C           1     -21.363  -4.798  -7.770  0.00  0.00     0.280 C 
BRANCH  20  21
HETATM   21  C           1     -20.684  -4.397  -9.072  0.00  0.00     0.101 C 
BRANCH  21  22
HETATM   22  C           1     -21.657  -4.526 -10.203  0.00  0.00     0.028 A 
HETATM   23  N           1     -22.987  -4.825 -10.056  0.00  0.00    -0.355 N 
HETATM   24  C           1     -23.476  -4.842 -11.274  0.00  0.00     0.180 A 
ATOM     25  HN          1     -23.490  -4.997  -9.185  1.00  0.00     0.166 HD
HETATM   26  N           1     -22.512  -4.569 -12.203  0.00  0.00    -0.360 N 
HETATM   27  H           1     -22.647  -4.524 -13.243  0.00  0.00     0.166 HD
HETATM   28  C           1     -21.340  -4.363 -11.530  0.00  0.00     0.114 A 
ENDBRANCH  21  22
ENDBRANCH  20  21
BRANCH  20  29
HETATM   29  N           1     -21.913  -3.577  -7.096  0.00  0.00    -0.066 N 
HETATM   30  H           1     -22.958  -3.599  -7.133  0.00  0.00     0.275 HD
HETATM   31  H           1     -21.602  -3.560  -6.098  0.00  0.00     0.275 HD
HETATM   32  H           1     -21.565  -2.722  -7.585  0.00  0.00     0.275 HD
ENDBRANCH  20  29
ENDBRANCH   3  20
TORSDOF 8
ENDMDL
MODEL 4
REMARK VINA RESULT:      -7.6      1.967      2.854
REMARK  8 active torsions:
REMARK  status: ('A' for Active; 'I' for Inactive)
REMARK    1  A    between atoms: C_2  and  C_26 
REMARK    2  A    between atoms: C_2  and  C_3 
REMARK    3  A    between atoms: C_2  and  N_14 
REMARK    4  A    between atoms: C_3  and  C_24 
REMARK       I    between atoms: N_14  and  C_22 
REMARK    5  A    between atoms: C_21  and  C_22 
REMARK    6  A    between atoms: C_21  and  C_27 
REMARK    7  A    between atoms: C_21  and  N_23 
REMARK    8  A    between atoms: C_27  and  C_28 
ROOT
HETATM    1  N           1     -21.564  -4.534  -5.930  0.00  0.00    -0.344 N 
HETATM    2  O           1     -23.691  -5.212  -5.977  0.00  0.00    -0.271 OA
HETATM    3  C           1     -22.742  -4.777  -6.584  0.00  0.00     0.249 C 
HETATM    4  H           1     -21.393  -3.627  -5.516  0.00  0.00     0.163 HD
ENDROOT
BRANCH   1   5
HETATM    5  C           1     -20.562  -5.577  -5.831  0.00  0.00     0.190 C 
BRANCH   5   6
HETATM    6  C           1     -19.622  -5.483  -7.009  0.00  0.00     0.197 C 
HETATM    7  O           1     -18.840  -4.513  -7.108  0.00  0.00    -0.646 OA
HETATM    8  O           1     -19.625  -6.377  -7.884  0.00  0.00    -0.646 OA
ENDBRANCH   5   6
BRANCH   5   9
HETATM    9  C           1     -21.244  -6.939  -5.834  0.00  0.00     0.077 C 
BRANCH   9  10
HETATM   10  C           1     -20.817  -7.713  -4.625  0.00  0.00    -0.028 A 
HETATM   11  C           1     -19.943  -8.777  -4.611  0.00  0.00     0.096 A 
HETATM   12  N           1     -19.821  -9.200  -3.313  0.00  0.00    -0.365 N 
HETATM   13  C           1     -20.602  -8.426  -2.484  0.00  0.00     0.042 A 
HETATM   14  H           1     -19.219  -9.999  -2.996  0.00  0.00     0.165 HD
HETATM   15  C           1     -20.790  -8.490  -1.099  0.00  0.00     0.030 A 
HETATM   16  C           1     -21.241  -7.481  -3.287  0.00  0.00    -0.002 A 
HETATM   17  C           1     -21.657  -7.558  -0.519  0.00  0.00     0.002 A 
HETATM   18  C           1     -22.309  -6.602  -1.297  0.00  0.00     0.001 A 
HETATM   19  C           1     -22.110  -6.552  -2.682  0.00  0.00     0.014 A 
ENDBRANCH   9  10
ENDBRANCH   5   9
ENDBRANCH   1   5
BRANCH   3  20
HETATM   20  C           1     -22.854  -4.501  -8.064  0.00  0.00     0.280 C 
BRANCH  20  21
HETATM   21  C           1     -21.854  -3.422  -8.457  0.00  0.00     0.101 C 
BRANCH  21  22
HETATM   22  C           1     -21.360  -3.680  -9.846  0.00  0.00     0.028 A 
HETATM   23  N           1     -20.217  -4.373 -10.150  0.00  0.00    -0.355 N 
HETATM   24  C           1     -20.149  -4.372 -11.461  0.00  0.00     0.180 A 
ATOM     25  HN          1     -19.559  -4.798  -9.497  1.00  0.00     0.166 HD
HETATM   26  N           1     -21.204  -3.704 -12.016  0.00  0.00    -0.360 N 
HETATM   27  H           1     -21.379  -3.562 -13.041  0.00  0.00     0.166 HD
HETATM   28  C           1     -21.989  -3.254 -10.991  0.00  0.00     0.114 A 
ENDBRANCH  21  22
ENDBRANCH  20  21
BRANCH  20  29
HETATM   29  N           1     -24.244  -4.033  -8.379  0.00  0.00    -0.066 N 
HETATM   30  H           1     -24.930  -4.780  -8.125  0.00  0.00     0.275 HD
HETATM   31  H           1     -24.453  -3.169  -7.830  0.00  0.00     0.275 HD
HETATM   32  H           1     -24.318  -3.825  -9.400  0.00  0.00     0.275 HD
ENDBRANCH  20  29
ENDBRANCH   3  20
TORSDOF 8
ENDMDL
MODEL 5
REMARK VINA RESULT:      -7.5      2.830      4.817
REMARK  8 active torsions:
REMARK  status: ('A' for Active; 'I' for Inactive)
REMARK    1  A    between atoms: C_2  and  C_26 
REMARK    2  A    between atoms: C_2  and  C_3 
REMARK    3  A    between atoms: C_2  and  N_14 
REMARK    4  A    between atoms: C_3  and  C_24 
REMARK       I    between atoms: N_14  and  C_22 
REMARK    5  A    between atoms: C_21  and  C_22 
REMARK    6  A    between atoms: C_21  and  C_27 
REMARK    7  A    between atoms: C_21  and  N_23 
REMARK    8  A    between atoms: C_27  and  C_28 
ROOT
HETATM    1  N           1     -20.876  -7.403  -2.235  0.00  0.00    -0.344 N 
HETATM    2  O           1     -22.402  -5.777  -2.359  0.00  0.00    -0.271 OA
HETATM    3  C           1     -21.615  -6.489  -2.936  0.00  0.00     0.249 C 
HETATM    4  H           1     -19.974  -7.141  -1.858  0.00  0.00     0.163 HD
ENDROOT
BRANCH   1   5
HETATM    5  C           1     -21.384  -8.745  -2.033  0.00  0.00     0.190 C 
BRANCH   5   6
HETATM    6  C           1     -22.085  -8.821  -0.698  0.00  0.00     0.197 C 
HETATM    7  O           1     -23.040  -9.611  -0.537  0.00  0.00    -0.646 OA
HETATM    8  O           1     -21.707  -8.095   0.247  0.00  0.00    -0.646 OA
ENDBRANCH   5   6
BRANCH   5   9
HETATM    9  C           1     -20.227  -9.735  -2.057  0.00  0.00     0.077 C 
BRANCH   9  10
HETATM   10  C           1     -19.659  -9.806  -3.441  0.00  0.00    -0.028 A 
HETATM   11  C           1     -20.380  -9.921  -4.608  0.00  0.00     0.096 A 
HETATM   12  N           1     -19.488  -9.953  -5.648  0.00  0.00    -0.365 N 
HETATM   13  C           1     -18.199  -9.860  -5.173  0.00  0.00     0.042 A 
HETATM   14  H           1     -19.750 -10.037  -6.661  0.00  0.00     0.165 HD
HETATM   15  C           1     -16.980  -9.852  -5.861  0.00  0.00     0.030 A 
HETATM   16  C           1     -18.279  -9.767  -3.784  0.00  0.00    -0.002 A 
HETATM   17  C           1     -15.810  -9.744  -5.104  0.00  0.00     0.002 A 
HETATM   18  C           1     -15.860  -9.649  -3.714  0.00  0.00     0.001 A 
HETATM   19  C           1     -17.088  -9.659  -3.041  0.00  0.00     0.014 A 
ENDBRANCH   9  10
ENDBRANCH   5   9
ENDBRANCH   1   5
BRANCH   3  20
HETATM   20  C           1     -21.447  -6.370  -4.432  0.00  0.00     0.280 C 
BRANCH  20  21
HETATM   21  C           1     -20.556  -5.177  -4.750  0.00  0.00     0.101 C 
BRANCH  21  22
HETATM   22  C           1     -20.506  -4.970  -6.232  0.00  0.00     0.028 A 
HETATM   23  N           1     -21.036  -3.888  -6.885  0.00  0.00    -0.355 N 
HETATM   24  C           1     -20.781  -4.092  -8.157  0.00  0.00     0.180 A 
ATOM     25  HN          1     -21.525  -3.094  -6.472  1.00  0.00     0.166 HD
HETATM   26  N           1     -20.107  -5.265  -8.350  0.00  0.00    -0.360 N 
HETATM   27  H           1     -19.788  -5.654  -9.271  0.00  0.00     0.166 HD
HETATM   28  C           1     -19.923  -5.839  -7.123  0.00  0.00     0.114 A 
ENDBRANCH  21  22
ENDBRANCH  20  21
BRANCH  20  29
HETATM   29  N           1     -22.790  -6.175  -5.070  0.00  0.00    -0.066 N 
HETATM   30  H           1     -23.539  -6.290  -4.349  0.00  0.00     0.275 HD
HETATM   31  H           1     -22.846  -5.214  -5.477  0.00  0.00     0.275 HD
HETATM   32  H           1     -22.923  -6.883  -5.827  0.00  0.00     0.275 HD
ENDBRANCH  20  29
ENDBRANCH   3  20
TORSDOF 8
ENDMDL
MODEL 6
REMARK VINA RESULT:      -7.0      1.664      2.044
REMARK  8 active torsions:
REMARK  status: ('A' for Active; 'I' for Inactive)
REMARK    1  A    between atoms: C_2  and  C_26 
REMARK    2  A    between atoms: C_2  and  C_3 
REMARK    3  A    between atoms: C_2  and  N_14 
REMARK    4  A    between atoms: C_3  and  C_24 
REMARK       I    between atoms: N_14  and  C_22 
REMARK    5  A    between atoms: C_21  and  C_22 
REMARK    6  A    between atoms: C_21  and  C_27 
REMARK    7  A    between atoms: C_21  and  N_23 
REMARK    8  A    between atoms: C_27  and  C_28 
ROOT
HETATM    1  N           1     -19.758  -7.004  -6.254  0.00  0.00    -0.344 N 
HETATM    2  O           1     -19.689  -4.843  -5.695  0.00  0.00    -0.271 OA
HETATM    3  C           1     -20.312  -5.754  -6.187  0.00  0.00     0.249 C 
HETATM    4  H           1     -19.214  -7.273  -7.065  0.00  0.00     0.163 HD
ENDROOT
BRANCH   1   5
HETATM    5  C           1     -19.950  -7.942  -5.166  0.00  0.00     0.190 C 
BRANCH   5   6
HETATM    6  C           1     -21.156  -8.802  -5.452  0.00  0.00     0.197 C 
HETATM    7  O           1     -21.024  -9.880  -6.070  0.00  0.00    -0.646 OA
HETATM    8  O           1     -22.289  -8.437  -5.068  0.00  0.00    -0.646 OA
ENDBRANCH   5   6
BRANCH   5   9
HETATM    9  C           1     -20.168  -7.175  -3.868  0.00  0.00     0.077 C 
BRANCH   9  10
HETATM   10  C           1     -20.255  -8.140  -2.727  0.00  0.00    -0.028 A 
HETATM   11  C           1     -19.499  -9.280  -2.569  0.00  0.00     0.096 A 
HETATM   12  N           1     -19.886  -9.879  -1.398  0.00  0.00    -0.365 N 
HETATM   13  C           1     -20.881  -9.145  -0.794  0.00  0.00     0.042 A 
HETATM   14  H           1     -19.481 -10.770  -1.018  0.00  0.00     0.165 HD
HETATM   15  C           1     -21.571  -9.371   0.403  0.00  0.00     0.030 A 
HETATM   16  C           1     -21.133  -8.044  -1.611  0.00  0.00    -0.002 A 
HETATM   17  C           1     -22.547  -8.440   0.773  0.00  0.00     0.002 A 
HETATM   18  C           1     -22.820  -7.330  -0.024  0.00  0.00     0.001 A 
HETATM   19  C           1     -22.120  -7.119  -1.219  0.00  0.00     0.014 A 
ENDBRANCH   9  10
ENDBRANCH   5   9
ENDBRANCH   1   5
BRANCH   3  20
HETATM   20  C           1     -21.701  -5.514  -6.727  0.00  0.00     0.280 C 
BRANCH  20  21
HETATM   21  C           1     -21.767  -4.131  -7.361  0.00  0.00     0.101 C 
BRANCH  21  22
HETATM   22  C           1     -21.525  -4.244  -8.834  0.00  0.00     0.028 A 
HETATM   23  N           1     -20.286  -4.284  -9.418  0.00  0.00    -0.355 N 
HETATM   24  C           1     -20.513  -4.385 -10.708  0.00  0.00     0.180 A 
ATOM     25  HN          1     -19.379  -4.243  -8.952  1.00  0.00     0.166 HD
HETATM   26  N           1     -21.852  -4.410 -10.978  0.00  0.00    -0.360 N 
HETATM   27  H           1     -22.293  -4.485 -11.928  0.00  0.00     0.166 HD
HETATM   28  C           1     -22.513  -4.321  -9.785  0.00  0.00     0.114 A 
ENDBRANCH  21  22
ENDBRANCH  20  21
BRANCH  20  29
HETATM   29  N           1     -22.693  -5.598  -5.606  0.00  0.00    -0.066 N 
HETATM   30  H           1     -23.160  -6.534  -5.623  0.00  0.00     0.275 HD
HETATM   31  H           1     -22.199  -5.473  -4.694  0.00  0.00     0.275 HD
HETATM   32  H           1     -23.412  -4.848  -5.720  0.00  0.00     0.275 HD
ENDBRANCH  20  29
ENDBRANCH   3  20
TORSDOF 8
ENDMDL
MODEL 7
REMARK VINA RESULT:      -7.0      4.023      6.401
REMARK  8 active torsions:
REMARK  status: ('A' for Active; 'I' for Inactive)
REMARK    1  A    between atoms: C_2  and  C_26 
REMARK    2  A    between atoms: C_2  and  C_3 
REMARK    3  A    between atoms: C_2  and  N_14 
REMARK    4  A    between atoms: C_3  and  C_24 
REMARK       I    between atoms: N_14  and  C_22 
REMARK    5  A    between atoms: C_21  and  C_22 
REMARK    6  A    between atoms: C_21  and  C_27 
REMARK    7  A    between atoms: C_21  and  N_23 
REMARK    8  A    between atoms: C_27  and  C_28 
ROOT
HETATM    1  N           1     -20.329  -7.818  -3.952  0.00  0.00    -0.344 N 
HETATM    2  O           1     -21.149  -8.491  -5.917  0.00  0.00    -0.271 OA
HETATM    3  C           1     -20.400  -8.703  -4.993  0.00  0.00     0.249 C 
HETATM    4  H           1     -19.665  -7.054  -3.983  0.00  0.00     0.163 HD
ENDROOT
BRANCH   1   5
HETATM    5  C           1     -21.202  -7.974  -2.806  0.00  0.00     0.190 C 
BRANCH   5   6
HETATM    6  C           1     -21.963  -6.691  -2.576  0.00  0.00     0.197 C 
HETATM    7  O           1     -22.299  -6.363  -1.418  0.00  0.00    -0.646 OA
HETATM    8  O           1     -22.256  -5.956  -3.544  0.00  0.00    -0.646 OA
ENDBRANCH   5   6
BRANCH   5   9
HETATM    9  C           1     -20.368  -8.298  -1.573  0.00  0.00     0.077 C 
BRANCH   9  10
HETATM   10  C           1     -20.551  -9.739  -1.211  0.00  0.00    -0.028 A 
HETATM   11  C           1     -19.591 -10.722  -1.284  0.00  0.00     0.096 A 
HETATM   12  N           1     -20.161 -11.896  -0.864  0.00  0.00    -0.365 N 
HETATM   13  C           1     -21.478 -11.689  -0.519  0.00  0.00     0.042 A 
HETATM   14  H           1     -19.665 -12.819  -0.813  0.00  0.00     0.165 HD
HETATM   15  C           1     -22.440 -12.587  -0.043  0.00  0.00     0.030 A 
HETATM   16  C           1     -21.749 -10.337  -0.729  0.00  0.00    -0.002 A 
HETATM   17  C           1     -23.716 -12.085   0.228  0.00  0.00     0.002 A 
HETATM   18  C           1     -24.016 -10.738   0.028  0.00  0.00     0.001 A 
HETATM   19  C           1     -23.042  -9.853  -0.450  0.00  0.00     0.014 A 
ENDBRANCH   9  10
ENDBRANCH   5   9
ENDBRANCH   1   5
BRANCH   3  20
HETATM   20  C           1     -19.543  -9.946  -4.987  0.00  0.00     0.280 C 
BRANCH  20  21
HETATM   21  C           1     -18.081  -9.556  -5.153  0.00  0.00     0.101 C 
BRANCH  21  22
HETATM   22  C           1     -17.263 -10.211  -4.084  0.00  0.00     0.028 A 
HETATM   23  N           1     -17.150 -11.567  -3.912  0.00  0.00    -0.355 N 
HETATM   24  C           1     -16.353 -11.720  -2.879  0.00  0.00     0.180 A 
ATOM     25  HN          1     -17.591 -12.300  -4.467  1.00  0.00     0.166 HD
HETATM   26  N           1     -15.950 -10.515  -2.377  0.00  0.00    -0.360 N 
HETATM   27  H           1     -15.313 -10.366  -1.555  0.00  0.00     0.166 HD
HETATM   28  C           1     -16.526  -9.538  -3.141  0.00  0.00     0.114 A 
ENDBRANCH  21  22
ENDBRANCH  20  21
BRANCH  20  29
HETATM   29  N           1     -19.953 -10.840  -6.120  0.00  0.00    -0.066 N 
HETATM   30  H           1     -20.822 -10.463  -6.564  0.00  0.00     0.275 HD
HETATM   31  H           1     -19.188 -10.876  -6.830  0.00  0.00     0.275 HD
HETATM   32  H           1     -20.138 -11.802  -5.755  0.00  0.00     0.275 HD
ENDBRANCH  20  29
ENDBRANCH   3  20
TORSDOF 8
ENDMDL
MODEL 8
REMARK VINA RESULT:      -6.8      2.041      3.488
REMARK  8 active torsions:
REMARK  status: ('A' for Active; 'I' for Inactive)
REMARK    1  A    between atoms: C_2  and  C_26 
REMARK    2  A    between atoms: C_2  and  C_3 
REMARK    3  A    between atoms: C_2  and  N_14 
REMARK    4  A    between atoms: C_3  and  C_24 
REMARK       I    between atoms: N_14  and  C_22 
REMARK    5  A    between atoms: C_21  and  C_22 
REMARK    6  A    between atoms: C_21  and  C_27 
REMARK    7  A    between atoms: C_21  and  N_23 
REMARK    8  A    between atoms: C_27  and  C_28 
ROOT
HETATM    1  N           1     -20.805  -6.805  -6.827  0.00  0.00    -0.344 N 
HETATM    2  O           1     -19.589  -5.003  -6.320  0.00  0.00    -0.271 OA
HETATM    3  C           1     -20.601  -5.452  -6.803  0.00  0.00     0.249 C 
HETATM    4  H           1     -20.488  -7.350  -7.619  0.00  0.00     0.163 HD
ENDROOT
BRANCH   1   5
HETATM    5  C           1     -21.476  -7.458  -5.720  0.00  0.00     0.190 C 
BRANCH   5   6
HETATM    6  C           1     -22.178  -6.421  -4.878  0.00  0.00     0.197 C 
HETATM    7  O           1     -21.582  -5.888  -3.917  0.00  0.00    -0.646 OA
HETATM    8  O           1     -23.356  -6.093  -5.143  0.00  0.00    -0.646 OA
ENDBRANCH   5   6
BRANCH   5   9
HETATM    9  C           1     -20.450  -8.194  -4.869  0.00  0.00     0.077 C 
BRANCH   9  10
HETATM   10  C           1     -21.097  -9.382  -4.225  0.00  0.00    -0.028 A 
HETATM   11  C           1     -21.482  -9.481  -2.907  0.00  0.00     0.096 A 
HETATM   12  N           1     -22.030 -10.724  -2.724  0.00  0.00    -0.365 N 
HETATM   13  C           1     -22.006 -11.433  -3.903  0.00  0.00     0.042 A 
HETATM   14  H           1     -22.412 -11.083  -1.815  0.00  0.00     0.165 HD
HETATM   15  C           1     -22.453 -12.728  -4.189  0.00  0.00     0.030 A 
HETATM   16  C           1     -21.423 -10.609  -4.866  0.00  0.00    -0.002 A 
HETATM   17  C           1     -22.298 -13.193  -5.498  0.00  0.00     0.002 A 
HETATM   18  C           1     -21.718 -12.392  -6.481  0.00  0.00     0.001 A 
HETATM   19  C           1     -21.276 -11.098  -6.179  0.00  0.00     0.014 A 
ENDBRANCH   9  10
ENDBRANCH   5   9
ENDBRANCH   1   5
BRANCH   3  20
HETATM   20  C           1     -21.641  -4.521  -7.378  0.00  0.00     0.280 C 
BRANCH  20  21
HETATM   21  C           1     -21.514  -4.494  -8.895  0.00  0.00     0.101 C 
BRANCH  21  22
HETATM   22  C           1     -22.851  -4.207  -9.504  0.00  0.00     0.028 A 
HETATM   23  N           1     -23.791  -3.371  -8.960  0.00  0.00    -0.355 N 
HETATM   24  C           1     -24.804  -3.398  -9.794  0.00  0.00     0.180 A 
ATOM     25  HN          1     -23.719  -2.841  -8.091  1.00  0.00     0.166 HD
HETATM   26  N           1     -24.555  -4.221 -10.856  0.00  0.00    -0.360 N 
HETATM   27  H           1     -25.205  -4.414 -11.658  0.00  0.00     0.166 HD
HETATM   28  C           1     -23.305  -4.747 -10.683  0.00  0.00     0.114 A 
ENDBRANCH  21  22
ENDBRANCH  20  21
BRANCH  20  29
HETATM   29  N           1     -21.429  -3.140  -6.833  0.00  0.00    -0.066 N 
HETATM   30  H           1     -21.264  -3.193  -5.802  0.00  0.00     0.275 HD
HETATM   31  H           1     -20.598  -2.707  -7.296  0.00  0.00     0.275 HD
HETATM   32  H           1     -22.276  -2.558  -7.021  0.00  0.00     0.275 HD
ENDBRANCH  20  29
ENDBRANCH   3  20
TORSDOF 8
ENDMDL
MODEL 9
REMARK VINA RESULT:      -6.8      4.984      7.731
REMARK  8 active torsions:
REMARK  status: ('A' for Active; 'I' for Inactive)
REMARK    1  A    between atoms: C_2  and  C_26 
REMARK    2  A    between atoms: C_2  and  C_3 
REMARK    3  A    between atoms: C_2  and  N_14 
REMARK    4  A    between atoms: C_3  and  C_24 
REMARK       I    between atoms: N_14  and  C_22 
REMARK    5  A    between atoms: C_21  and  C_22 
REMARK    6  A    between atoms: C_21  and  C_27 
REMARK    7  A    between atoms: C_21  and  N_23 
REMARK    8  A    between atoms: C_27  and  C_28 
ROOT
HETATM    1  N           1     -17.129 -10.034  -4.133  0.00  0.00    -0.344 N 
HETATM    2  O           1     -16.141 -11.492  -5.507  0.00  0.00    -0.271 OA
HETATM    3  C           1     -16.382 -11.156  -4.371  0.00  0.00     0.249 C 
HETATM    4  H           1     -16.674  -9.135  -4.032  0.00  0.00     0.163 HD
ENDROOT
BRANCH   1   5
HETATM    5  C           1     -18.571 -10.133  -4.024  0.00  0.00     0.190 C 
BRANCH   5   6
HETATM    6  C           1     -19.202  -9.734  -5.335  0.00  0.00     0.197 C 
HETATM    7  O           1     -19.672 -10.608  -6.095  0.00  0.00    -0.646 OA
HETATM    8  O           1     -19.257  -8.528  -5.661  0.00  0.00    -0.646 OA
ENDBRANCH   5   6
BRANCH   5   9
HETATM    9  C           1     -19.061  -9.204  -2.921  0.00  0.00     0.077 C 
BRANCH   9  10
HETATM   10  C           1     -20.256  -9.810  -2.251  0.00  0.00    -0.028 A 
HETATM   11  C           1     -20.665 -11.120  -2.355  0.00  0.00     0.096 A 
HETATM   12  N           1     -21.795 -11.266  -1.592  0.00  0.00    -0.365 N 
HETATM   13  C           1     -22.124 -10.071  -0.994  0.00  0.00     0.042 A 
HETATM   14  H           1     -22.331 -12.161  -1.480  0.00  0.00     0.165 HD
HETATM   15  C           1     -23.184  -9.749  -0.139  0.00  0.00     0.030 A 
HETATM   16  C           1     -21.169  -9.136  -1.394  0.00  0.00    -0.002 A 
HETATM   17  C           1     -23.267  -8.431   0.321  0.00  0.00     0.002 A 
HETATM   18  C           1     -22.327  -7.475  -0.062  0.00  0.00     0.001 A 
HETATM   19  C           1     -21.273  -7.814  -0.919  0.00  0.00     0.014 A 
ENDBRANCH   9  10
ENDBRANCH   5   9
ENDBRANCH   1   5
BRANCH   3  20
HETATM   20  C           1     -15.859 -11.974  -3.216  0.00  0.00     0.280 C 
BRANCH  20  21
HETATM   21  C           1     -15.586 -11.061  -2.029  0.00  0.00     0.101 C 
BRANCH  21  22
HETATM   22  C           1     -16.288 -11.591  -0.817  0.00  0.00     0.028 A 
HETATM   23  N           1     -17.634 -11.842  -0.745  0.00  0.00    -0.355 N 
HETATM   24  C           1     -17.838 -12.291   0.472  0.00  0.00     0.180 A 
ATOM     25  HN          1     -18.329 -11.708  -1.480  1.00  0.00     0.166 HD
HETATM   26  N           1     -16.676 -12.338   1.188  0.00  0.00    -0.360 N 
HETATM   27  H           1     -16.572 -12.659   2.183  0.00  0.00     0.166 HD
HETATM   28  C           1     -15.673 -11.892   0.373  0.00  0.00     0.114 A 
ENDBRANCH  21  22
ENDBRANCH  20  21
BRANCH  20  29
HETATM   29  N           1     -14.588 -12.657  -3.624  0.00  0.00    -0.066 N 
HETATM   30  H           1     -14.048 -12.034  -4.266  0.00  0.00     0.275 HD
HETATM   31  H           1     -14.014 -12.861  -2.775  0.00  0.00     0.275 HD
HETATM   32  H           1     -14.815 -13.551  -4.115  0.00  0.00     0.275 HD
ENDBRANCH  20  29
ENDBRANCH   3  20
TORSDOF 8
ENDMDL
