MODEL 1
REMARK VINA RESULT:      -5.9      0.000      0.000
REMARK  7 active torsions:
REMARK  status: ('A' for Active; 'I' for Inactive)
REMARK       I    between atoms: C_1  and  N_17 
REMARK    1  A    between atoms: C_1  and  C_2 
REMARK       I    between atoms: N_3  and  C_15 
REMARK    2  A    between atoms: C_8  and  N_9 
REMARK    3  A    between atoms: C_8  and  C_10 
REMARK       I    between atoms: N_9  and  C_15 
REMARK    4  A    between atoms: C_10  and  C_11 
REMARK    5  A    between atoms: C_11  and  C_20 
REMARK    6  A    between atoms: N_17  and  C_20 
REMARK    7  A    between atoms: C_20  and  C_21 
ROOT
HETATM    1  C           1     -20.517  -6.784  -5.372  0.00  0.00     0.185 C 
ENDROOT
BRANCH   1   2
HETATM    2  C           1     -20.304  -6.099  -6.715  0.00  0.00     0.038 C 
BRANCH   2   3
HETATM    3  C           1     -19.972  -4.630  -6.488  0.00  0.00     0.023 C 
BRANCH   3   4
HETATM    4  C           1     -20.563  -3.795  -7.618  0.00  0.00     0.138 C 
BRANCH   4   5
HETATM    5  N           1     -22.021  -3.709  -7.452  0.00  0.00    -0.227 N 
HETATM    6  C           1     -22.787  -4.048  -8.403  0.00  0.00     0.665 C 
HETATM    7  N           1     -24.075  -3.971  -8.256  0.00  0.00    -0.235 N 
HETATM    8  N           1     -22.296  -4.460  -9.494  0.00  0.00    -0.235 N 
HETATM    9  H           1     -24.481  -3.631  -7.356  0.00  0.00     0.174 HD
HETATM   10  H           1     -24.707  -4.251  -9.041  0.00  0.00     0.174 HD
HETATM   11  H           1     -21.254  -4.522  -9.612  0.00  0.00     0.174 HD
HETATM   12  H           1     -22.931  -4.741 -10.282  0.00  0.00     0.174 HD
HETATM   13  H           1     -22.427  -3.366  -6.547  0.00  0.00     0.177 HD
ENDBRANCH   4   5
ENDBRANCH   3   4
ENDBRANCH   2   3
ENDBRANCH   1   2
BRANCH   1  14
HETATM   14  N           1     -20.687  -8.210  -5.576  0.00  0.00    -0.345 N 
HETATM   15  C           1     -20.127  -9.098  -4.697  0.00  0.00     0.251 C 
HETATM   16  O           1     -19.491  -8.694  -3.753  0.00  0.00    -0.271 OA
HETATM   17  H           1     -21.219  -8.547  -6.367  0.00  0.00     0.163 HD
BRANCH  15  18
HETATM   18  C           1     -20.304 -10.581  -4.910  0.00  0.00     0.311 C 
HETATM   19  N           1     -19.868 -10.969  -6.249  0.00  0.00     0.097 N 
HETATM   20  H           1     -20.229 -11.891  -6.494  0.00  0.00     0.317 HD
HETATM   21  C           1     -18.410 -11.024  -6.171  0.00  0.00     0.271 C 
HETATM   22  C           1     -18.143 -11.658  -4.817  0.00  0.00     0.033 C 
HETATM   23  C           1     -19.390 -11.372  -3.990  0.00  0.00     0.047 C 
ENDBRANCH  15  18
ENDBRANCH   1  14
BRANCH   1  24
HETATM   24  C           1     -21.750  -6.220  -4.710  0.00  0.00     0.196 C 
HETATM   25  O           1     -22.778  -6.001  -5.387  0.00  0.00    -0.646 OA
HETATM   26  O           1     -21.744  -5.972  -3.485  0.00  0.00    -0.646 OA
ENDBRANCH   1  24
TORSDOF 7
ENDMDL
MODEL 2
REMARK VINA RESULT:      -5.7      2.988      6.651
REMARK  7 active torsions:
REMARK  status: ('A' for Active; 'I' for Inactive)
REMARK       I    between atoms: C_1  and  N_17 
REMARK    1  A    between atoms: C_1  and  C_2 
REMARK       I    between atoms: N_3  and  C_15 
REMARK    2  A    between atoms: C_8  and  N_9 
REMARK    3  A    between atoms: C_8  and  C_10 
REMARK       I    between atoms: N_9  and  C_15 
REMARK    4  A    between atoms: C_10  and  C_11 
REMARK    5  A    between atoms: C_11  and  C_20 
REMARK    6  A    between atoms: N_17  and  C_20 
REMARK    7  A    between atoms: C_20  and  C_21 
ROOT
HETATM    1  C           1     -21.311  -6.443  -4.417  0.00  0.00     0.185 C 
ENDROOT
BRANCH   1   2
HETATM    2  C           1     -22.425  -6.480  -3.379  0.00  0.00     0.038 C 
BRANCH   2   3
HETATM    3  C           1     -21.871  -6.056  -2.025  0.00  0.00     0.023 C 
BRANCH   3   4
HETATM    4  C           1     -22.255  -7.088  -0.973  0.00  0.00     0.138 C 
BRANCH   4   5
HETATM    5  N           1     -21.838  -8.425  -1.421  0.00  0.00    -0.227 N 
HETATM    6  C           1     -22.347  -9.457  -0.893  0.00  0.00     0.665 C 
HETATM    7  N           1     -21.977 -10.638  -1.290  0.00  0.00    -0.235 N 
HETATM    8  N           1     -23.214  -9.338   0.022  0.00  0.00    -0.235 N 
HETATM    9  H           1     -21.262 -10.737  -2.045  0.00  0.00     0.174 HD
HETATM   10  H           1     -22.398 -11.490  -0.853  0.00  0.00     0.174 HD
HETATM   11  H           1     -23.512  -8.383   0.343  0.00  0.00     0.174 HD
HETATM   12  H           1     -23.635 -10.194   0.460  0.00  0.00     0.174 HD
HETATM   13  H           1     -21.119  -8.522  -2.180  0.00  0.00     0.177 HD
ENDBRANCH   4   5
ENDBRANCH   3   4
ENDBRANCH   2   3
ENDBRANCH   1   2
BRANCH   1  14
HETATM   14  N           1     -21.672  -5.530  -5.484  0.00  0.00    -0.345 N 
HETATM   15  C           1     -20.754  -4.629  -5.952  0.00  0.00     0.251 C 
HETATM   16  O           1     -19.644  -4.595  -5.477  0.00  0.00    -0.271 OA
HETATM   17  H           1     -22.602  -5.558  -5.881  0.00  0.00     0.163 HD
BRANCH  15  18
HETATM   18  C           1     -21.129  -3.678  -7.062  0.00  0.00     0.311 C 
HETATM   19  N           1     -20.109  -3.670  -8.106  0.00  0.00     0.097 N 
HETATM   20  H           1     -20.213  -2.852  -8.707  0.00  0.00     0.317 HD
HETATM   21  C           1     -20.356  -4.880  -8.886  0.00  0.00     0.271 C 
HETATM   22  C           1     -21.870  -4.949  -8.978  0.00  0.00     0.033 C 
HETATM   23  C           1     -22.379  -4.154  -7.782  0.00  0.00     0.047 C 
ENDBRANCH  15  18
ENDBRANCH   1  14
BRANCH   1  24
HETATM   24  C           1     -21.110  -7.826  -4.987  0.00  0.00     0.196 C 
HETATM   25  O           1     -20.350  -7.995  -5.964  0.00  0.00    -0.646 OA
HETATM   26  O           1     -21.703  -8.803  -4.480  0.00  0.00    -0.646 OA
ENDBRANCH   1  24
TORSDOF 7
ENDMDL
MODEL 3
REMARK VINA RESULT:      -5.6      2.486      3.177
REMARK  7 active torsions:
REMARK  status: ('A' for Active; 'I' for Inactive)
REMARK       I    between atoms: C_1  and  N_17 
REMARK    1  A    between atoms: C_1  and  C_2 
REMARK       I    between atoms: N_3  and  C_15 
REMARK    2  A    between atoms: C_8  and  N_9 
REMARK    3  A    between atoms: C_8  and  C_10 
REMARK       I    between atoms: N_9  and  C_15 
REMARK    4  A    between atoms: C_10  and  C_11 
REMARK    5  A    between atoms: C_11  and  C_20 
REMARK    6  A    between atoms: N_17  and  C_20 
REMARK    7  A    between atoms: C_20  and  C_21 
ROOT
HETATM    1  C           1     -21.113  -7.360  -4.192  0.00  0.00     0.185 C 
ENDROOT
BRANCH   1   2
HETATM    2  C           1     -21.019  -7.401  -5.711  0.00  0.00     0.038 C 
BRANCH   2   3
HETATM    3  C           1     -19.785  -6.631  -6.164  0.00  0.00     0.023 C 
BRANCH   3   4
HETATM    4  C           1     -20.207  -5.493  -7.086  0.00  0.00     0.138 C 
BRANCH   4   5
HETATM    5  N           1     -21.673  -5.461  -7.186  0.00  0.00    -0.227 N 
HETATM    6  C           1     -22.275  -4.352  -7.297  0.00  0.00     0.665 C 
HETATM    7  N           1     -23.571  -4.324  -7.385  0.00  0.00    -0.235 N 
HETATM    8  N           1     -21.614  -3.273  -7.323  0.00  0.00    -0.235 N 
HETATM    9  H           1     -24.117  -5.215  -7.364  0.00  0.00     0.174 HD
HETATM   10  H           1     -24.068  -3.409  -7.477  0.00  0.00     0.174 HD
HETATM   11  H           1     -20.567  -3.296  -7.252  0.00  0.00     0.174 HD
HETATM   12  H           1     -22.114  -2.354  -7.416  0.00  0.00     0.174 HD
HETATM   13  H           1     -22.220  -6.356  -7.163  0.00  0.00     0.177 HD
ENDBRANCH   4   5
ENDBRANCH   3   4
ENDBRANCH   2   3
ENDBRANCH   1   2
BRANCH   1  14
HETATM   14  N           1     -21.351  -8.697  -3.683  0.00  0.00    -0.345 N 
HETATM   15  C           1     -20.677  -9.135  -2.575  0.00  0.00     0.251 C 
HETATM   16  O           1     -19.887  -8.410  -2.021  0.00  0.00    -0.271 OA
HETATM   17  H           1     -22.012  -9.304  -4.147  0.00  0.00     0.163 HD
BRANCH  15  18
HETATM   18  C           1     -20.923 -10.527  -2.046  0.00  0.00     0.311 C 
HETATM   19  N           1     -21.082 -10.510  -0.594  0.00  0.00     0.097 N 
HETATM   20  H           1     -20.976 -11.448  -0.209  0.00  0.00     0.317 HD
HETATM   21  C           1     -22.447 -10.044  -0.369  0.00  0.00     0.271 C 
HETATM   22  C           1     -23.254 -10.747  -1.447  0.00  0.00     0.033 C 
HETATM   23  C           1     -22.251 -11.069  -2.548  0.00  0.00     0.047 C 
ENDBRANCH  15  18
ENDBRANCH   1  14
BRANCH   1  24
HETATM   24  C           1     -22.253  -6.458  -3.784  0.00  0.00     0.196 C 
HETATM   25  O           1     -22.328  -6.037  -2.610  0.00  0.00    -0.646 OA
HETATM   26  O           1     -23.122  -6.132  -4.622  0.00  0.00    -0.646 OA
ENDBRANCH   1  24
TORSDOF 7
ENDMDL
MODEL 4
REMARK VINA RESULT:      -5.6      3.025      4.313
REMARK  7 active torsions:
REMARK  status: ('A' for Active; 'I' for Inactive)
REMARK       I    between atoms: C_1  and  N_17 
REMARK    1  A    between atoms: C_1  and  C_2 
REMARK       I    between atoms: N_3  and  C_15 
REMARK    2  A    between atoms: C_8  and  N_9 
REMARK    3  A    between atoms: C_8  and  C_10 
REMARK       I    between atoms: N_9  and  C_15 
REMARK    4  A    between atoms: C_10  and  C_11 
REMARK    5  A    between atoms: C_11  and  C_20 
REMARK    6  A    between atoms: N_17  and  C_20 
REMARK    7  A    between atoms: C_20  and  C_21 
ROOT
HETATM    1  C           1     -21.254  -9.219  -4.674  0.00  0.00     0.185 C 
ENDROOT
BRANCH   1   2
HETATM    2  C           1     -21.488  -7.911  -5.419  0.00  0.00     0.038 C 
BRANCH   2   3
HETATM    3  C           1     -20.954  -6.751  -4.588  0.00  0.00     0.023 C 
BRANCH   3   4
HETATM    4  C           1     -20.923  -5.488  -5.439  0.00  0.00     0.138 C 
BRANCH   4   5
HETATM    5  N           1     -22.244  -5.275  -6.048  0.00  0.00    -0.227 N 
HETATM    6  C           1     -22.376  -4.455  -7.003  0.00  0.00     0.665 C 
HETATM    7  N           1     -23.544  -4.265  -7.540  0.00  0.00    -0.235 N 
HETATM    8  N           1     -21.369  -3.819  -7.435  0.00  0.00    -0.235 N 
HETATM    9  H           1     -24.374  -4.790  -7.185  0.00  0.00     0.174 HD
HETATM   10  H           1     -23.652  -3.588  -8.330  0.00  0.00     0.174 HD
HETATM   11  H           1     -20.425  -3.972  -7.001  0.00  0.00     0.174 HD
HETATM   12  H           1     -21.479  -3.139  -8.228  0.00  0.00     0.174 HD
HETATM   13  H           1     -23.078  -5.802  -5.689  0.00  0.00     0.177 HD
ENDBRANCH   4   5
ENDBRANCH   3   4
ENDBRANCH   2   3
ENDBRANCH   1   2
BRANCH   1  14
HETATM   14  N           1     -20.936  -8.938  -3.288  0.00  0.00    -0.345 N 
HETATM   15  C           1     -21.575  -9.621  -2.288  0.00  0.00     0.251 C 
HETATM   16  O           1     -22.402 -10.457  -2.561  0.00  0.00    -0.271 OA
HETATM   17  H           1     -20.243  -8.237  -3.060  0.00  0.00     0.163 HD
BRANCH  15  18
HETATM   18  C           1     -21.245  -9.328  -0.845  0.00  0.00     0.311 C 
HETATM   19  N           1     -21.026  -7.898  -0.643  0.00  0.00     0.097 N 
HETATM   20  H           1     -20.546  -7.728   0.241  0.00  0.00     0.317 HD
HETATM   21  C           1     -22.364  -7.315  -0.589  0.00  0.00     0.271 C 
HETATM   22  C           1     -23.166  -8.321   0.219  0.00  0.00     0.033 C 
HETATM   23  C           1     -22.428  -9.643   0.055  0.00  0.00     0.047 C 
ENDBRANCH  15  18
ENDBRANCH   1  14
BRANCH   1  24
HETATM   24  C           1     -20.105  -9.961  -5.312  0.00  0.00     0.196 C 
HETATM   25  O           1     -20.329 -10.836  -6.176  0.00  0.00    -0.646 OA
HETATM   26  O           1     -18.929  -9.701  -4.975  0.00  0.00    -0.646 OA
ENDBRANCH   1  24
TORSDOF 7
ENDMDL
MODEL 5
REMARK VINA RESULT:      -5.5      2.761      6.620
REMARK  7 active torsions:
REMARK  status: ('A' for Active; 'I' for Inactive)
REMARK       I    between atoms: C_1  and  N_17 
REMARK    1  A    between atoms: C_1  and  C_2 
REMARK       I    between atoms: N_3  and  C_15 
REMARK    2  A    between atoms: C_8  and  N_9 
REMARK    3  A    between atoms: C_8  and  C_10 
REMARK       I    between atoms: N_9  and  C_15 
REMARK    4  A    between atoms: C_10  and  C_11 
REMARK    5  A    between atoms: C_11  and  C_20 
REMARK    6  A    between atoms: N_17  and  C_20 
REMARK    7  A    between atoms: C_20  and  C_21 
ROOT
HETATM    1  C           1     -21.445  -7.080  -4.255  0.00  0.00     0.185 C 
ENDROOT
BRANCH   1   2
HETATM    2  C           1     -20.611  -8.349  -4.364  0.00  0.00     0.038 C 
BRANCH   2   3
HETATM    3  C           1     -21.531  -9.563  -4.381  0.00  0.00     0.023 C 
BRANCH   3   4
HETATM    4  C           1     -21.246 -10.435  -3.165  0.00  0.00     0.138 C 
BRANCH   4   5
HETATM    5  N           1     -22.432 -10.469  -2.297  0.00  0.00    -0.227 N 
HETATM    6  C           1     -22.339 -10.115  -1.085  0.00  0.00     0.665 C 
HETATM    7  N           1     -23.388 -10.146  -0.318  0.00  0.00    -0.235 N 
HETATM    8  N           1     -21.226  -9.730  -0.621  0.00  0.00    -0.235 N 
HETATM    9  H           1     -24.307 -10.463  -0.701  0.00  0.00     0.174 HD
HETATM   10  H           1     -23.311  -9.853   0.683  0.00  0.00     0.174 HD
HETATM   11  H           1     -20.379  -9.705  -1.241  0.00  0.00     0.174 HD
HETATM   12  H           1     -21.150  -9.436   0.385  0.00  0.00     0.174 HD
HETATM   13  H           1     -23.354 -10.789  -2.682  0.00  0.00     0.177 HD
ENDBRANCH   4   5
ENDBRANCH   3   4
ENDBRANCH   2   3
ENDBRANCH   1   2
BRANCH   1  14
HETATM   14  N           1     -20.797  -6.009  -4.985  0.00  0.00    -0.345 N 
HETATM   15  C           1     -21.525  -5.230  -5.845  0.00  0.00     0.251 C 
HETATM   16  O           1     -22.705  -5.435  -5.995  0.00  0.00    -0.271 OA
HETATM   17  H           1     -19.809  -5.837  -4.860  0.00  0.00     0.163 HD
BRANCH  15  18
HETATM   18  C           1     -20.850  -4.115  -6.606  0.00  0.00     0.311 C 
HETATM   19  N           1     -19.625  -4.590  -7.245  0.00  0.00     0.097 N 
HETATM   20  H           1     -19.035  -3.806  -7.522  0.00  0.00     0.317 HD
HETATM   21  C           1     -20.074  -5.306  -8.437  0.00  0.00     0.271 C 
HETATM   22  C           1     -21.204  -4.444  -8.973  0.00  0.00     0.033 C 
HETATM   23  C           1     -21.711  -3.658  -7.772  0.00  0.00     0.047 C 
ENDBRANCH  15  18
ENDBRANCH   1  14
BRANCH   1  24
HETATM   24  C           1     -21.579  -6.689  -2.803  0.00  0.00     0.196 C 
HETATM   25  O           1     -22.508  -5.936  -2.442  0.00  0.00    -0.646 OA
HETATM   26  O           1     -20.759  -7.120  -1.963  0.00  0.00    -0.646 OA
ENDBRANCH   1  24
TORSDOF 7
ENDMDL
MODEL 6
REMARK VINA RESULT:      -5.5      3.728      4.737
REMARK  7 active torsions:
REMARK  status: ('A' for Active; 'I' for Inactive)
REMARK       I    between atoms: C_1  and  N_17 
REMARK    1  A    between atoms: C_1  and  C_2 
REMARK       I    between atoms: N_3  and  C_15 
REMARK    2  A    between atoms: C_8  and  N_9 
REMARK    3  A    between atoms: C_8  and  C_10 
REMARK       I    between atoms: N_9  and  C_15 
REMARK    4  A    between atoms: C_10  and  C_11 
REMARK    5  A    between atoms: C_11  and  C_20 
REMARK    6  A    between atoms: N_17  and  C_20 
REMARK    7  A    between atoms: C_20  and  C_21 
ROOT
HETATM    1  C           1     -21.143  -7.871  -1.623  0.00  0.00     0.185 C 
ENDROOT
BRANCH   1   2
HETATM    2  C           1     -20.497  -7.407  -2.921  0.00  0.00     0.038 C 
BRANCH   2   3
HETATM    3  C           1     -20.946  -8.312  -4.063  0.00  0.00     0.023 C 
BRANCH   3   4
HETATM    4  C           1     -21.822  -7.519  -5.025  0.00  0.00     0.138 C 
BRANCH   4   5
HETATM    5  N           1     -21.387  -6.115  -5.041  0.00  0.00    -0.227 N 
HETATM    6  C           1     -20.880  -5.622  -6.091  0.00  0.00     0.665 C 
HETATM    7  N           1     -20.496  -4.381  -6.105  0.00  0.00    -0.235 N 
HETATM    8  N           1     -20.749  -6.338  -7.127  0.00  0.00    -0.235 N 
HETATM    9  H           1     -20.605  -3.789  -5.251  0.00  0.00     0.174 HD
HETATM   10  H           1     -20.078  -3.974  -6.973  0.00  0.00     0.174 HD
HETATM   11  H           1     -21.059  -7.341  -7.115  0.00  0.00     0.174 HD
HETATM   12  H           1     -20.328  -5.928  -7.998  0.00  0.00     0.174 HD
HETATM   13  H           1     -21.496  -5.522  -4.182  0.00  0.00     0.177 HD
ENDBRANCH   4   5
ENDBRANCH   3   4
ENDBRANCH   2   3
ENDBRANCH   1   2
BRANCH   1  14
HETATM   14  N           1     -21.639  -9.224  -1.784  0.00  0.00    -0.345 N 
HETATM   15  C           1     -21.307 -10.187  -0.869  0.00  0.00     0.251 C 
HETATM   16  O           1     -20.601  -9.910   0.071  0.00  0.00    -0.271 OA
HETATM   17  H           1     -22.230  -9.456  -2.571  0.00  0.00     0.163 HD
BRANCH  15  18
HETATM   18  C           1     -21.823 -11.595  -1.037  0.00  0.00     0.311 C 
HETATM   19  N           1     -22.399 -12.089   0.211  0.00  0.00     0.097 N 
HETATM   20  H           1     -22.496 -13.104   0.187  0.00  0.00     0.317 HD
HETATM   21  C           1     -23.722 -11.476   0.286  0.00  0.00     0.271 C 
HETATM   22  C           1     -24.236 -11.548  -1.142  0.00  0.00     0.033 C 
HETATM   23  C           1     -22.988 -11.632  -2.011  0.00  0.00     0.047 C 
ENDBRANCH  15  18
ENDBRANCH   1  14
BRANCH   1  24
HETATM   24  C           1     -22.290  -6.953  -1.276  0.00  0.00     0.196 C 
HETATM   25  O           1     -22.993  -7.185  -0.270  0.00  0.00    -0.646 OA
HETATM   26  O           1     -22.536  -5.962  -1.997  0.00  0.00    -0.646 OA
ENDBRANCH   1  24
TORSDOF 7
ENDMDL
MODEL 7
REMARK VINA RESULT:      -5.5      3.262      4.283
REMARK  7 active torsions:
REMARK  status: ('A' for Active; 'I' for Inactive)
REMARK       I    between atoms: C_1  and  N_17 
REMARK    1  A    between atoms: C_1  and  C_2 
REMARK       I    between atoms: N_3  and  C_15 
REMARK    2  A    between atoms: C_8  and  N_9 
REMARK    3  A    between atoms: C_8  and  C_10 
REMARK       I    between atoms: N_9  and  C_15 
REMARK    4  A    between atoms: C_10  and  C_11 
REMARK    5  A    between atoms: C_11  and  C_20 
REMARK    6  A    between atoms: N_17  and  C_20 
REMARK    7  A    between atoms: C_20  and  C_21 
ROOT
HETATM    1  C           1     -20.992  -9.056  -4.017  0.00  0.00     0.185 C 
ENDROOT
BRANCH   1   2
HETATM    2  C           1     -21.472  -7.974  -4.975  0.00  0.00     0.038 C 
BRANCH   2   3
HETATM    3  C           1     -21.310  -6.608  -4.320  0.00  0.00     0.023 C 
BRANCH   3   4
HETATM    4  C           1     -21.130  -5.546  -5.397  0.00  0.00     0.138 C 
BRANCH   4   5
HETATM    5  N           1     -22.390  -5.377  -6.135  0.00  0.00    -0.227 N 
HETATM    6  C           1     -22.521  -4.419  -6.952  0.00  0.00     0.665 C 
HETATM    7  N           1     -23.635  -4.270  -7.604  0.00  0.00    -0.235 N 
HETATM    8  N           1     -21.567  -3.607  -7.134  0.00  0.00    -0.235 N 
HETATM    9  H           1     -24.423  -4.940  -7.455  0.00  0.00     0.174 HD
HETATM   10  H           1     -23.743  -3.478  -8.279  0.00  0.00     0.174 HD
HETATM   11  H           1     -20.667  -3.727  -6.607  0.00  0.00     0.174 HD
HETATM   12  H           1     -21.676  -2.812  -7.812  0.00  0.00     0.174 HD
HETATM   13  H           1     -23.180  -6.051  -5.984  0.00  0.00     0.177 HD
ENDBRANCH   4   5
ENDBRANCH   3   4
ENDBRANCH   2   3
ENDBRANCH   1   2
BRANCH   1  14
HETATM   14  N           1     -21.626  -8.877  -2.725  0.00  0.00    -0.345 N 
HETATM   15  C           1     -22.119  -9.961  -2.050  0.00  0.00     0.251 C 
HETATM   16  O           1     -22.027 -11.065  -2.530  0.00  0.00    -0.271 OA
HETATM   17  H           1     -21.703  -7.952  -2.324  0.00  0.00     0.163 HD
BRANCH  15  18
HETATM   18  C           1     -22.780  -9.775  -0.706  0.00  0.00     0.311 C 
HETATM   19  N           1     -22.214 -10.690   0.281  0.00  0.00     0.097 N 
HETATM   20  H           1     -22.823 -10.764   1.096  0.00  0.00     0.317 HD
HETATM   21  C           1     -20.945 -10.084   0.676  0.00  0.00     0.271 C 
HETATM   22  C           1     -21.264  -8.601   0.765  0.00  0.00     0.033 C 
HETATM   23  C           1     -22.473  -8.399  -0.139  0.00  0.00     0.047 C 
ENDBRANCH  15  18
ENDBRANCH   1  14
BRANCH   1  24
HETATM   24  C           1     -19.494  -8.959  -3.860  0.00  0.00     0.196 C 
HETATM   25  O           1     -18.759  -8.954  -4.870  0.00  0.00    -0.646 OA
HETATM   26  O           1     -18.990  -8.885  -2.718  0.00  0.00    -0.646 OA
ENDBRANCH   1  24
TORSDOF 7
ENDMDL
MODEL 8
REMARK VINA RESULT:      -5.5      3.266      4.400
REMARK  7 active torsions:
REMARK  status: ('A' for Active; 'I' for Inactive)
REMARK       I    between atoms: C_1  and  N_17 
REMARK    1  A    between atoms: C_1  and  C_2 
REMARK       I    between atoms: N_3  and  C_15 
REMARK    2  A    between atoms: C_8  and  N_9 
REMARK    3  A    between atoms: C_8  and  C_10 
REMARK       I    between atoms: N_9  and  C_15 
REMARK    4  A    between atoms: C_10  and  C_11 
REMARK    5  A    between atoms: C_11  and  C_20 
REMARK    6  A    between atoms: N_17  and  C_20 
REMARK    7  A    between atoms: C_20  and  C_21 
ROOT
HETATM    1  C           1     -21.526  -7.758  -3.962  0.00  0.00     0.185 C 
ENDROOT
BRANCH   1   2
HETATM    2  C           1     -20.329  -6.944  -4.431  0.00  0.00     0.038 C 
BRANCH   2   3
HETATM    3  C           1     -20.796  -5.564  -4.878  0.00  0.00     0.023 C 
BRANCH   3   4
HETATM    4  C           1     -21.901  -5.714  -5.916  0.00  0.00     0.138 C 
BRANCH   4   5
HETATM    5  N           1     -21.364  -5.413  -7.251  0.00  0.00    -0.227 N 
HETATM    6  C           1     -21.992  -4.632  -8.025  0.00  0.00     0.665 C 
HETATM    7  N           1     -21.516  -4.367  -9.205  0.00  0.00    -0.235 N 
HETATM    8  N           1     -23.082  -4.111  -7.648  0.00  0.00    -0.235 N 
HETATM    9  H           1     -20.616  -4.797  -9.515  0.00  0.00     0.174 HD
HETATM   10  H           1     -22.035  -3.722  -9.843  0.00  0.00     0.174 HD
HETATM   11  H           1     -23.466  -4.325  -6.695  0.00  0.00     0.174 HD
HETATM   12  H           1     -23.603  -3.463  -8.291  0.00  0.00     0.174 HD
HETATM   13  H           1     -20.460  -5.846  -7.562  0.00  0.00     0.177 HD
ENDBRANCH   4   5
ENDBRANCH   3   4
ENDBRANCH   2   3
ENDBRANCH   1   2
BRANCH   1  14
HETATM   14  N           1     -21.440  -7.968  -2.530  0.00  0.00    -0.345 N 
HETATM   15  C           1     -22.120  -7.141  -1.676  0.00  0.00     0.251 C 
HETATM   16  O           1     -22.792  -6.239  -2.116  0.00  0.00    -0.271 OA
HETATM   17  H           1     -20.877  -8.723  -2.162  0.00  0.00     0.163 HD
BRANCH  15  18
HETATM   18  C           1     -22.030  -7.358  -0.185  0.00  0.00     0.311 C 
HETATM   19  N           1     -23.305  -7.827   0.349  0.00  0.00     0.097 N 
HETATM   20  H           1     -23.335  -7.715   1.362  0.00  0.00     0.317 HD
HETATM   21  C           1     -23.356  -9.248   0.015  0.00  0.00     0.271 C 
HETATM   22  C           1     -21.937  -9.730   0.266  0.00  0.00     0.033 C 
HETATM   23  C           1     -21.066  -8.487   0.139  0.00  0.00     0.047 C 
ENDBRANCH  15  18
ENDBRANCH   1  14
BRANCH   1  24
HETATM   24  C           1     -21.532  -9.094  -4.665  0.00  0.00     0.196 C 
HETATM   25  O           1     -21.974 -10.106  -4.081  0.00  0.00    -0.646 OA
HETATM   26  O           1     -21.093  -9.187  -5.832  0.00  0.00    -0.646 OA
ENDBRANCH   1  24
TORSDOF 7
ENDMDL
MODEL 9
REMARK VINA RESULT:      -5.3      3.908      6.123
REMARK  7 active torsions:
REMARK  status: ('A' for Active; 'I' for Inactive)
REMARK       I    between atoms: C_1  and  N_17 
REMARK    1  A    between atoms: C_1  and  C_2 
REMARK       I    between atoms: N_3  and  C_15 
REMARK    2  A    between atoms: C_8  and  N_9 
REMARK    3  A    between atoms: C_8  and  C_10 
REMARK       I    between atoms: N_9  and  C_15 
REMARK    4  A    between atoms: C_10  and  C_11 
REMARK    5  A    between atoms: C_11  and  C_20 
REMARK    6  A    between atoms: N_17  and  C_20 
REMARK    7  A    between atoms: C_20  and  C_21 
ROOT
HETATM    1  C           1     -21.097  -7.731  -3.736  0.00  0.00     0.185 C 
ENDROOT
BRANCH   1   2
HETATM    2  C           1     -21.184  -8.517  -5.036  0.00  0.00     0.038 C 
BRANCH   2   3
HETATM    3  C           1     -20.254  -9.722  -4.964  0.00  0.00     0.023 C 
BRANCH   3   4
HETATM    4  C           1     -18.813  -9.263  -5.148  0.00  0.00     0.138 C 
BRANCH   4   5
HETATM    5  N           1     -18.089  -9.399  -3.876  0.00  0.00    -0.227 N 
HETATM    6  C           1     -16.858  -9.694  -3.877  0.00  0.00     0.665 C 
HETATM    7  N           1     -16.218  -9.814  -2.752  0.00  0.00    -0.235 N 
HETATM    8  N           1     -16.251  -9.873  -4.974  0.00  0.00    -0.235 N 
HETATM    9  H           1     -16.719  -9.667  -1.847  0.00  0.00     0.174 HD
HETATM   10  H           1     -15.201 -10.058  -2.754  0.00  0.00     0.174 HD
HETATM   11  H           1     -16.768  -9.776  -5.883  0.00  0.00     0.174 HD
HETATM   12  H           1     -15.229 -10.118  -4.974  0.00  0.00     0.174 HD
HETATM   13  H           1     -18.593  -9.251  -2.968  0.00  0.00     0.177 HD
ENDBRANCH   4   5
ENDBRANCH   3   4
ENDBRANCH   2   3
ENDBRANCH   1   2
BRANCH   1  14
HETATM   14  N           1     -21.627  -8.531  -2.649  0.00  0.00    -0.345 N 
HETATM   15  C           1     -20.835  -8.832  -1.573  0.00  0.00     0.251 C 
HETATM   16  O           1     -19.696  -8.432  -1.530  0.00  0.00    -0.271 OA
HETATM   17  H           1     -22.580  -8.866  -2.685  0.00  0.00     0.163 HD
BRANCH  15  18
HETATM   18  C           1     -21.386  -9.666  -0.442  0.00  0.00     0.311 C 
HETATM   19  N           1     -21.058  -9.069   0.850  0.00  0.00     0.097 N 
HETATM   20  H           1     -21.182  -9.746   1.602  0.00  0.00     0.317 HD
HETATM   21  C           1     -22.016  -7.978   1.016  0.00  0.00     0.271 C 
HETATM   22  C           1     -23.319  -8.556   0.491  0.00  0.00     0.033 C 
HETATM   23  C           1     -22.905  -9.669  -0.463  0.00  0.00     0.047 C 
ENDBRANCH  15  18
ENDBRANCH   1  14
BRANCH   1  24
HETATM   24  C           1     -21.902  -6.460  -3.862  0.00  0.00     0.196 C 
HETATM   25  O           1     -22.046  -5.920  -4.980  0.00  0.00    -0.646 OA
HETATM   26  O           1     -22.423  -5.947  -2.848  0.00  0.00    -0.646 OA
ENDBRANCH   1  24
TORSDOF 7
ENDMDL
