MODEL 1
REMARK VINA RESULT:      -6.2      0.000      0.000
REMARK  12 active torsions:
REMARK  status: ('A' for Active; 'I' for Inactive)
REMARK    1  A    between atoms: N_1  and  C_21 
REMARK       I    between atoms: N_1  and  C_12 
REMARK    2  A    between atoms: N_6  and  C_11 
REMARK    3  A    between atoms: C_8  and  C_17 
REMARK    4  A    between atoms: C_8  and  C_23 
REMARK    5  A    between atoms: C_10  and  C_11 
REMARK    6  A    between atoms: C_10  and  C_17 
REMARK    7  A    between atoms: C_11  and  C_12 
REMARK    8  A    between atoms: N_13  and  C_23 
REMARK    9  A    between atoms: S_18  and  C_19 
REMARK   10  A    between atoms: C_19  and  C_20 
REMARK   11  A    between atoms: C_20  and  C_21 
REMARK   12  A    between atoms: C_21  and  C_22 
ROOT
HETATM    1  C           1     -34.157  -4.155 -12.458  0.00  0.00     0.274 C 
ENDROOT
BRANCH   1   2
HETATM    2  N           1     -33.595  -4.135 -13.848  0.00  0.00    -0.067 N 
HETATM    3  H           1     -33.435  -3.146 -14.146  0.00  0.00     0.275 HD
HETATM    4  H           1     -32.689  -4.654 -13.865  0.00  0.00     0.275 HD
HETATM    5  H           1     -34.271  -4.591 -14.504  0.00  0.00     0.275 HD
ENDBRANCH   1   2
BRANCH   1   6
HETATM    6  C           1     -33.188  -4.874 -11.529  0.00  0.00     0.042 C 
BRANCH   6   7
HETATM    7  C           1     -33.968  -5.582 -10.430  0.00  0.00     0.004 C 
BRANCH   7   8
HETATM    8  C           1     -34.657  -6.812 -11.007  0.00  0.00     0.027 C 
BRANCH   8   9
HETATM    9  C           1     -34.668  -7.923  -9.965  0.00  0.00     0.229 C 
BRANCH   9  10
HETATM   10  N           1     -33.550  -8.884 -10.247  0.00  0.00    -0.079 N 
HETATM   11  H           1     -32.689  -8.573  -9.742  0.00  0.00     0.274 HD
HETATM   12  H           1     -33.820  -9.838  -9.920  0.00  0.00     0.274 HD
HETATM   13  H           1     -33.363  -8.907 -11.274  0.00  0.00     0.274 HD
ENDBRANCH   9  10
ENDBRANCH   8   9
ENDBRANCH   7   8
ENDBRANCH   6   7
ENDBRANCH   1   6
BRANCH   1  14
HETATM   14  C           1     -34.360  -2.740 -11.977  0.00  0.00     0.249 C 
HETATM   15  N           1     -35.488  -2.051 -12.333  0.00  0.00    -0.345 N 
HETATM   16  H           1     -36.187  -2.490 -12.919  0.00  0.00     0.163 HD
HETATM   17  O           1     -33.526  -2.215 -11.278  0.00  0.00    -0.271 OA
BRANCH  15  18
HETATM   18  C           1     -35.683  -0.689 -11.871  0.00  0.00     0.186 C 
BRANCH  18  19
HETATM   19  C           1     -36.252   0.154 -13.004  0.00  0.00     0.046 C 
BRANCH  19  20
HETATM   20  C           1     -35.295   0.129 -14.187  0.00  0.00     0.076 C 
BRANCH  20  21
HETATM   21  S           1     -36.243   0.173 -15.735  0.00  0.00    -0.173 SA
HETATM   22  C           1     -35.460  -1.280 -16.489  0.00  0.00     0.089 C 
ENDBRANCH  20  21
ENDBRANCH  19  20
ENDBRANCH  18  19
BRANCH  18  23
HETATM   23  C           1     -36.645  -0.687 -10.708  0.00  0.00     0.196 C 
HETATM   24  O           1     -37.855  -0.930 -10.899  0.00  0.00    -0.646 OA
HETATM   25  O           1     -36.230  -0.442  -9.554  0.00  0.00    -0.646 OA
ENDBRANCH  18  23
ENDBRANCH  15  18
ENDBRANCH   1  14
TORSDOF 12
ENDMDL
MODEL 2
REMARK VINA RESULT:      -5.8      4.283      6.507
REMARK  12 active torsions:
REMARK  status: ('A' for Active; 'I' for Inactive)
REMARK    1  A    between atoms: N_1  and  C_21 
REMARK       I    between atoms: N_1  and  C_12 
REMARK    2  A    between atoms: N_6  and  C_11 
REMARK    3  A    between atoms: C_8  and  C_17 
REMARK    4  A    between atoms: C_8  and  C_23 
REMARK    5  A    between atoms: C_10  and  C_11 
REMARK    6  A    between atoms: C_10  and  C_17 
REMARK    7  A    between atoms: C_11  and  C_12 
REMARK    8  A    between atoms: N_13  and  C_23 
REMARK    9  A    between atoms: S_18  and  C_19 
REMARK   10  A    between atoms: C_19  and  C_20 
REMARK   11  A    between atoms: C_20  and  C_21 
REMARK   12  A    between atoms: C_21  and  C_22 
ROOT
HETATM    1  C           1     -33.276  -4.422 -16.820  0.00  0.00     0.274 C 
ENDROOT
BRANCH   1   2
HETATM    2  N           1     -33.579  -3.102 -17.462  0.00  0.00    -0.067 N 
HETATM    3  H           1     -33.532  -2.344 -16.743  0.00  0.00     0.275 HD
HETATM    4  H           1     -32.879  -2.911 -18.214  0.00  0.00     0.275 HD
HETATM    5  H           1     -34.539  -3.129 -17.878  0.00  0.00     0.275 HD
ENDBRANCH   1   2
BRANCH   1   6
HETATM    6  C           1     -31.772  -4.552 -16.612  0.00  0.00     0.042 C 
BRANCH   6   7
HETATM    7  C           1     -31.040  -3.770 -17.694  0.00  0.00     0.004 C 
BRANCH   7   8
HETATM    8  C           1     -29.600  -4.258 -17.787  0.00  0.00     0.027 C 
BRANCH   8   9
HETATM    9  C           1     -28.671  -3.221 -17.169  0.00  0.00     0.229 C 
BRANCH   9  10
HETATM   10  N           1     -29.260  -1.852 -17.348  0.00  0.00    -0.079 N 
HETATM   11  H           1     -29.220  -1.585 -18.357  0.00  0.00     0.274 HD
HETATM   12  H           1     -30.255  -1.857 -17.029  0.00  0.00     0.274 HD
HETATM   13  H           1     -28.716  -1.163 -16.782  0.00  0.00     0.274 HD
ENDBRANCH   9  10
ENDBRANCH   8   9
ENDBRANCH   7   8
ENDBRANCH   6   7
ENDBRANCH   1   6
BRANCH   1  14
HETATM   14  C           1     -33.978  -4.506 -15.488  0.00  0.00     0.249 C 
HETATM   15  N           1     -33.408  -3.944 -14.377  0.00  0.00    -0.345 N 
HETATM   16  H           1     -32.516  -3.471 -14.449  0.00  0.00     0.163 HD
HETATM   17  O           1     -35.042  -5.071 -15.400  0.00  0.00    -0.271 OA
BRANCH  15  18
HETATM   18  C           1     -34.082  -4.026 -13.095  0.00  0.00     0.186 C 
BRANCH  18  19
HETATM   19  C           1     -33.047  -4.160 -11.986  0.00  0.00     0.046 C 
BRANCH  19  20
HETATM   20  C           1     -33.113  -5.562 -11.395  0.00  0.00     0.076 C 
BRANCH  20  21
HETATM   21  S           1     -34.570  -5.700 -10.322  0.00  0.00    -0.173 SA
HETATM   22  C           1     -34.686  -7.511 -10.377  0.00  0.00     0.089 C 
ENDBRANCH  20  21
ENDBRANCH  19  20
ENDBRANCH  18  19
BRANCH  18  23
HETATM   23  C           1     -34.897  -2.775 -12.875  0.00  0.00     0.196 C 
HETATM   24  O           1     -34.812  -1.825 -13.683  0.00  0.00    -0.646 OA
HETATM   25  O           1     -35.656  -2.689 -11.886  0.00  0.00    -0.646 OA
ENDBRANCH  18  23
ENDBRANCH  15  18
ENDBRANCH   1  14
TORSDOF 12
ENDMDL
MODEL 3
REMARK VINA RESULT:      -5.6      3.193      6.965
REMARK  12 active torsions:
REMARK  status: ('A' for Active; 'I' for Inactive)
REMARK    1  A    between atoms: N_1  and  C_21 
REMARK       I    between atoms: N_1  and  C_12 
REMARK    2  A    between atoms: N_6  and  C_11 
REMARK    3  A    between atoms: C_8  and  C_17 
REMARK    4  A    between atoms: C_8  and  C_23 
REMARK    5  A    between atoms: C_10  and  C_11 
REMARK    6  A    between atoms: C_10  and  C_17 
REMARK    7  A    between atoms: C_11  and  C_12 
REMARK    8  A    between atoms: N_13  and  C_23 
REMARK    9  A    between atoms: S_18  and  C_19 
REMARK   10  A    between atoms: C_19  and  C_20 
REMARK   11  A    between atoms: C_20  and  C_21 
REMARK   12  A    between atoms: C_21  and  C_22 
ROOT
HETATM    1  C           1     -36.429  -0.659 -11.320  0.00  0.00     0.274 C 
ENDROOT
BRANCH   1   2
HETATM    2  N           1     -36.214   0.553 -10.464  0.00  0.00    -0.067 N 
HETATM    3  H           1     -36.938   1.273 -10.690  0.00  0.00     0.275 HD
HETATM    4  H           1     -36.291   0.286  -9.457  0.00  0.00     0.275 HD
HETATM    5  H           1     -35.263   0.946 -10.650  0.00  0.00     0.275 HD
ENDBRANCH   1   2
BRANCH   1   6
HETATM    6  C           1     -36.312  -0.271 -12.789  0.00  0.00     0.042 C 
BRANCH   6   7
HETATM    7  C           1     -35.107   0.641 -12.978  0.00  0.00     0.004 C 
BRANCH   7   8
HETATM    8  C           1     -34.716   0.666 -14.450  0.00  0.00     0.027 C 
BRANCH   8   9
HETATM    9  C           1     -35.973   0.707 -15.310  0.00  0.00     0.229 C 
BRANCH   9  10
HETATM   10  N           1     -36.130   2.077 -15.902  0.00  0.00    -0.079 N 
HETATM   11  H           1     -37.005   2.112 -16.471  0.00  0.00     0.274 HD
HETATM   12  H           1     -36.185   2.784 -15.134  0.00  0.00     0.274 HD
HETATM   13  H           1     -35.308   2.289 -16.511  0.00  0.00     0.274 HD
ENDBRANCH   9  10
ENDBRANCH   8   9
ENDBRANCH   7   8
ENDBRANCH   6   7
ENDBRANCH   1   6
BRANCH   1  14
HETATM   14  C           1     -35.388  -1.700 -10.990  0.00  0.00     0.249 C 
HETATM   15  N           1     -35.399  -2.907 -11.636  0.00  0.00    -0.345 N 
HETATM   16  H           1     -36.104  -3.102 -12.335  0.00  0.00     0.163 HD
HETATM   17  O           1     -34.546  -1.468 -10.155  0.00  0.00    -0.271 OA
BRANCH  15  18
HETATM   18  C           1     -34.399  -3.909 -11.318  0.00  0.00     0.186 C 
BRANCH  18  19
HETATM   19  C           1     -35.067  -5.271 -11.196  0.00  0.00     0.046 C 
BRANCH  19  20
HETATM   20  C           1     -34.082  -6.270 -10.603  0.00  0.00     0.076 C 
BRANCH  20  21
HETATM   21  S           1     -34.989  -7.534  -9.669  0.00  0.00    -0.173 SA
HETATM   22  C           1     -33.807  -8.881  -9.956  0.00  0.00     0.089 C 
ENDBRANCH  20  21
ENDBRANCH  19  20
ENDBRANCH  18  19
BRANCH  18  23
HETATM   23  C           1     -33.364  -3.951 -12.416  0.00  0.00     0.196 C 
HETATM   24  O           1     -33.707  -3.775 -13.604  0.00  0.00    -0.646 OA
HETATM   25  O           1     -32.164  -4.162 -12.136  0.00  0.00    -0.646 OA
ENDBRANCH  18  23
ENDBRANCH  15  18
ENDBRANCH   1  14
TORSDOF 12
ENDMDL
MODEL 4
REMARK VINA RESULT:      -5.4     14.281     16.628
REMARK  12 active torsions:
REMARK  status: ('A' for Active; 'I' for Inactive)
REMARK    1  A    between atoms: N_1  and  C_21 
REMARK       I    between atoms: N_1  and  C_12 
REMARK    2  A    between atoms: N_6  and  C_11 
REMARK    3  A    between atoms: C_8  and  C_17 
REMARK    4  A    between atoms: C_8  and  C_23 
REMARK    5  A    between atoms: C_10  and  C_11 
REMARK    6  A    between atoms: C_10  and  C_17 
REMARK    7  A    between atoms: C_11  and  C_12 
REMARK    8  A    between atoms: N_13  and  C_23 
REMARK    9  A    between atoms: S_18  and  C_19 
REMARK   10  A    between atoms: C_19  and  C_20 
REMARK   11  A    between atoms: C_20  and  C_21 
REMARK   12  A    between atoms: C_21  and  C_22 
ROOT
HETATM    1  C           1     -21.459  -4.787  -7.860  0.00  0.00     0.274 C 
ENDROOT
BRANCH   1   2
HETATM    2  N           1     -22.624  -3.869  -7.639  0.00  0.00    -0.067 N 
HETATM    3  H           1     -22.772  -3.733  -6.613  0.00  0.00     0.275 HD
HETATM    4  H           1     -22.430  -2.946  -8.088  0.00  0.00     0.275 HD
HETATM    5  H           1     -23.483  -4.290  -8.062  0.00  0.00     0.275 HD
ENDBRANCH   1   2
BRANCH   1   6
HETATM    6  C           1     -20.350  -4.034  -8.583  0.00  0.00     0.042 C 
BRANCH   6   7
HETATM    7  C           1     -20.250  -4.532 -10.018  0.00  0.00     0.004 C 
BRANCH   7   8
HETATM    8  C           1     -21.078  -3.633 -10.927  0.00  0.00     0.027 C 
BRANCH   8   9
HETATM    9  C           1     -22.043  -4.485 -11.743  0.00  0.00     0.229 C 
BRANCH   9  10
HETATM   10  N           1     -23.356  -4.583 -11.023  0.00  0.00    -0.079 N 
HETATM   11  H           1     -23.903  -5.388 -11.404  0.00  0.00     0.274 HD
HETATM   12  H           1     -23.184  -4.730 -10.003  0.00  0.00     0.274 HD
HETATM   13  H           1     -23.894  -3.698 -11.161  0.00  0.00     0.274 HD
ENDBRANCH   9  10
ENDBRANCH   8   9
ENDBRANCH   7   8
ENDBRANCH   6   7
ENDBRANCH   1   6
BRANCH   1  14
HETATM   14  C           1     -20.948  -5.280  -6.529  0.00  0.00     0.249 C 
HETATM   15  N           1     -21.167  -6.578  -6.150  0.00  0.00    -0.345 N 
HETATM   16  H           1     -21.673  -7.206  -6.762  0.00  0.00     0.163 HD
HETATM   17  O           1     -20.345  -4.531  -5.798  0.00  0.00    -0.271 OA
BRANCH  15  18
HETATM   18  C           1     -20.677  -7.052  -4.870  0.00  0.00     0.186 C 
BRANCH  18  19
HETATM   19  C           1     -21.827  -7.099  -3.872  0.00  0.00     0.046 C 
BRANCH  19  20
HETATM   20  C           1     -21.530  -6.162  -2.710  0.00  0.00     0.076 C 
BRANCH  20  21
HETATM   21  S           1     -22.219  -6.856  -1.181  0.00  0.00    -0.173 SA
HETATM   22  C           1     -21.746  -8.577  -1.513  0.00  0.00     0.089 C 
ENDBRANCH  20  21
ENDBRANCH  19  20
ENDBRANCH  18  19
BRANCH  18  23
HETATM   23  C           1     -20.097  -8.436  -5.036  0.00  0.00     0.196 C 
HETATM   24  O           1     -20.669  -9.267  -5.772  0.00  0.00    -0.646 OA
HETATM   25  O           1     -19.046  -8.749  -4.438  0.00  0.00    -0.646 OA
ENDBRANCH  18  23
ENDBRANCH  15  18
ENDBRANCH   1  14
TORSDOF 12
ENDMDL
MODEL 5
REMARK VINA RESULT:      -5.3     14.385     16.662
REMARK  12 active torsions:
REMARK  status: ('A' for Active; 'I' for Inactive)
REMARK    1  A    between atoms: N_1  and  C_21 
REMARK       I    between atoms: N_1  and  C_12 
REMARK    2  A    between atoms: N_6  and  C_11 
REMARK    3  A    between atoms: C_8  and  C_17 
REMARK    4  A    between atoms: C_8  and  C_23 
REMARK    5  A    between atoms: C_10  and  C_11 
REMARK    6  A    between atoms: C_10  and  C_17 
REMARK    7  A    between atoms: C_11  and  C_12 
REMARK    8  A    between atoms: N_13  and  C_23 
REMARK    9  A    between atoms: S_18  and  C_19 
REMARK   10  A    between atoms: C_19  and  C_20 
REMARK   11  A    between atoms: C_20  and  C_21 
REMARK   12  A    between atoms: C_21  and  C_22 
ROOT
HETATM    1  C           1     -20.634  -4.580  -6.576  0.00  0.00     0.274 C 
ENDROOT
BRANCH   1   2
HETATM    2  N           1     -19.666  -5.363  -7.412  0.00  0.00    -0.067 N 
HETATM    3  H           1     -20.180  -5.835  -8.191  0.00  0.00     0.275 HD
HETATM    4  H           1     -18.949  -4.717  -7.810  0.00  0.00     0.275 HD
HETATM    5  H           1     -19.196  -6.084  -6.817  0.00  0.00     0.275 HD
ENDBRANCH   1   2
BRANCH   1   6
HETATM    6  C           1     -21.550  -3.770  -7.484  0.00  0.00     0.042 C 
BRANCH   6   7
HETATM    7  C           1     -21.278  -4.136  -8.937  0.00  0.00     0.004 C 
BRANCH   7   8
HETATM    8  C           1     -22.566  -4.624  -9.587  0.00  0.00     0.027 C 
BRANCH   8   9
HETATM    9  C           1     -23.746  -3.840  -9.029  0.00  0.00     0.229 C 
BRANCH   9  10
HETATM   10  N           1     -25.025  -4.397  -9.584  0.00  0.00    -0.079 N 
HETATM   11  H           1     -25.794  -4.263  -8.890  0.00  0.00     0.274 HD
HETATM   12  H           1     -25.265  -3.898 -10.471  0.00  0.00     0.274 HD
HETATM   13  H           1     -24.904  -5.416  -9.780  0.00  0.00     0.274 HD
ENDBRANCH   9  10
ENDBRANCH   8   9
ENDBRANCH   7   8
ENDBRANCH   6   7
ENDBRANCH   1   6
BRANCH   1  14
HETATM   14  C           1     -21.462  -5.528  -5.744  0.00  0.00     0.249 C 
HETATM   15  N           1     -20.847  -6.405  -4.890  0.00  0.00    -0.345 N 
HETATM   16  H           1     -19.838  -6.418  -4.818  0.00  0.00     0.163 HD
HETATM   17  O           1     -22.667  -5.514  -5.831  0.00  0.00    -0.271 OA
BRANCH  15  18
HETATM   18  C           1     -21.642  -7.318  -4.091  0.00  0.00     0.186 C 
BRANCH  18  19
HETATM   19  C           1     -21.047  -8.717  -4.176  0.00  0.00     0.046 C 
BRANCH  19  20
HETATM   20  C           1     -19.689  -8.651  -4.861  0.00  0.00     0.076 C 
BRANCH  20  21
HETATM   21  S           1     -18.432  -9.399  -3.787  0.00  0.00    -0.173 SA
HETATM   22  C           1     -19.551 -10.552  -2.943  0.00  0.00     0.089 C 
ENDBRANCH  20  21
ENDBRANCH  19  20
ENDBRANCH  18  19
BRANCH  18  23
HETATM   23  C           1     -21.642  -6.857  -2.654  0.00  0.00     0.196 C 
HETATM   24  O           1     -22.392  -5.924  -2.298  0.00  0.00    -0.646 OA
HETATM   25  O           1     -20.892  -7.409  -1.820  0.00  0.00    -0.646 OA
ENDBRANCH  18  23
ENDBRANCH  15  18
ENDBRANCH   1  14
TORSDOF 12
ENDMDL
MODEL 6
REMARK VINA RESULT:      -5.2      9.247     11.097
REMARK  12 active torsions:
REMARK  status: ('A' for Active; 'I' for Inactive)
REMARK    1  A    between atoms: N_1  and  C_21 
REMARK       I    between atoms: N_1  and  C_12 
REMARK    2  A    between atoms: N_6  and  C_11 
REMARK    3  A    between atoms: C_8  and  C_17 
REMARK    4  A    between atoms: C_8  and  C_23 
REMARK    5  A    between atoms: C_10  and  C_11 
REMARK    6  A    between atoms: C_10  and  C_17 
REMARK    7  A    between atoms: C_11  and  C_12 
REMARK    8  A    between atoms: N_13  and  C_23 
REMARK    9  A    between atoms: S_18  and  C_19 
REMARK   10  A    between atoms: C_19  and  C_20 
REMARK   11  A    between atoms: C_20  and  C_21 
REMARK   12  A    between atoms: C_21  and  C_22 
ROOT
HETATM    1  C           1     -28.988  -4.793 -16.689  0.00  0.00     0.274 C 
ENDROOT
BRANCH   1   2
HETATM    2  N           1     -28.282  -3.484 -16.880  0.00  0.00    -0.067 N 
HETATM    3  H           1     -28.383  -2.903 -16.016  0.00  0.00     0.275 HD
HETATM    4  H           1     -27.269  -3.658 -17.065  0.00  0.00     0.275 HD
HETATM    5  H           1     -28.703  -2.976 -17.692  0.00  0.00     0.275 HD
ENDBRANCH   1   2
BRANCH   1   6
HETATM    6  C           1     -29.999  -4.993 -17.810  0.00  0.00     0.042 C 
BRANCH   6   7
HETATM    7  C           1     -31.292  -5.554 -17.234  0.00  0.00     0.004 C 
BRANCH   7   8
HETATM    8  C           1     -31.304  -7.068 -17.393  0.00  0.00     0.027 C 
BRANCH   8   9
HETATM    9  C           1     -30.573  -7.452 -18.672  0.00  0.00     0.229 C 
BRANCH   9  10
HETATM   10  N           1     -29.567  -8.525 -18.373  0.00  0.00    -0.079 N 
HETATM   11  H           1     -28.955  -8.672 -19.207  0.00  0.00     0.274 HD
HETATM   12  H           1     -28.982  -8.235 -17.557  0.00  0.00     0.274 HD
HETATM   13  H           1     -30.066  -9.414 -18.144  0.00  0.00     0.274 HD
ENDBRANCH   9  10
ENDBRANCH   8   9
ENDBRANCH   7   8
ENDBRANCH   6   7
ENDBRANCH   1   6
BRANCH   1  14
HETATM   14  C           1     -27.981  -5.915 -16.713  0.00  0.00     0.249 C 
HETATM   15  N           1     -26.863  -5.816 -17.499  0.00  0.00    -0.345 N 
HETATM   16  H           1     -26.713  -4.990 -18.063  0.00  0.00     0.163 HD
HETATM   17  O           1     -28.160  -6.902 -16.039  0.00  0.00    -0.271 OA
BRANCH  15  18
HETATM   18  C           1     -25.895  -6.897 -17.523  0.00  0.00     0.186 C 
BRANCH  18  19
HETATM   19  C           1     -25.000  -6.747 -18.746  0.00  0.00     0.046 C 
BRANCH  19  20
HETATM   20  C           1     -25.862  -6.584 -19.990  0.00  0.00     0.076 C 
BRANCH  20  21
HETATM   21  S           1     -25.537  -7.952 -21.137  0.00  0.00    -0.173 SA
HETATM   22  C           1     -27.244  -8.564 -21.205  0.00  0.00     0.089 C 
ENDBRANCH  20  21
ENDBRANCH  19  20
ENDBRANCH  18  19
BRANCH  18  23
HETATM   23  C           1     -25.053  -6.843 -16.272  0.00  0.00     0.196 C 
HETATM   24  O           1     -24.545  -7.890 -15.816  0.00  0.00    -0.646 OA
HETATM   25  O           1     -24.862  -5.752 -15.692  0.00  0.00    -0.646 OA
ENDBRANCH  18  23
ENDBRANCH  15  18
ENDBRANCH   1  14
TORSDOF 12
ENDMDL
MODEL 7
REMARK VINA RESULT:      -5.0      7.666      9.835
REMARK  12 active torsions:
REMARK  status: ('A' for Active; 'I' for Inactive)
REMARK    1  A    between atoms: N_1  and  C_21 
REMARK       I    between atoms: N_1  and  C_12 
REMARK    2  A    between atoms: N_6  and  C_11 
REMARK    3  A    between atoms: C_8  and  C_17 
REMARK    4  A    between atoms: C_8  and  C_23 
REMARK    5  A    between atoms: C_10  and  C_11 
REMARK    6  A    between atoms: C_10  and  C_17 
REMARK    7  A    between atoms: C_11  and  C_12 
REMARK    8  A    between atoms: N_13  and  C_23 
REMARK    9  A    between atoms: S_18  and  C_19 
REMARK   10  A    between atoms: C_19  and  C_20 
REMARK   11  A    between atoms: C_20  and  C_21 
REMARK   12  A    between atoms: C_21  and  C_22 
ROOT
HETATM    1  C           1     -30.752  -4.257 -16.890  0.00  0.00     0.274 C 
ENDROOT
BRANCH   1   2
HETATM    2  N           1     -30.434  -3.234 -17.938  0.00  0.00    -0.067 N 
HETATM    3  H           1     -29.399  -3.192 -18.082  0.00  0.00     0.275 HD
HETATM    4  H           1     -30.899  -3.499 -18.836  0.00  0.00     0.275 HD
HETATM    5  H           1     -30.780  -2.297 -17.628  0.00  0.00     0.275 HD
ENDBRANCH   1   2
BRANCH   1   6
HETATM    6  C           1     -32.226  -4.630 -16.976  0.00  0.00     0.042 C 
BRANCH   6   7
HETATM    7  C           1     -33.041  -3.399 -17.349  0.00  0.00     0.004 C 
BRANCH   7   8
HETATM    8  C           1     -34.251  -3.292 -16.429  0.00  0.00     0.027 C 
BRANCH   8   9
HETATM    9  C           1     -34.248  -4.458 -15.449  0.00  0.00     0.229 C 
BRANCH   9  10
HETATM   10  N           1     -33.948  -3.950 -14.069  0.00  0.00    -0.079 N 
HETATM   11  H           1     -33.354  -3.093 -14.134  0.00  0.00     0.274 HD
HETATM   12  H           1     -34.843  -3.717 -13.581  0.00  0.00     0.274 HD
HETATM   13  H           1     -33.440  -4.687 -13.530  0.00  0.00     0.274 HD
ENDBRANCH   9  10
ENDBRANCH   8   9
ENDBRANCH   7   8
ENDBRANCH   6   7
ENDBRANCH   1   6
BRANCH   1  14
HETATM   14  C           1     -29.908  -5.487 -17.114  0.00  0.00     0.249 C 
HETATM   15  N           1     -28.563  -5.450 -16.859  0.00  0.00    -0.345 N 
HETATM   16  H           1     -28.135  -4.597 -16.521  0.00  0.00     0.163 HD
HETATM   17  O           1     -30.418  -6.505 -17.518  0.00  0.00    -0.271 OA
BRANCH  15  18
HETATM   18  C           1     -27.751  -6.632 -17.076  0.00  0.00     0.186 C 
BRANCH  18  19
HETATM   19  C           1     -26.565  -6.277 -17.963  0.00  0.00     0.046 C 
BRANCH  19  20
HETATM   20  C           1     -26.977  -6.378 -19.426  0.00  0.00     0.076 C 
BRANCH  20  21
HETATM   21  S           1     -25.546  -6.878 -20.424  0.00  0.00    -0.173 SA
HETATM   22  C           1     -24.402  -7.105 -19.034  0.00  0.00     0.089 C 
ENDBRANCH  20  21
ENDBRANCH  19  20
ENDBRANCH  18  19
BRANCH  18  23
HETATM   23  C           1     -27.250  -7.146 -15.748  0.00  0.00     0.196 C 
HETATM   24  O           1     -26.023  -7.172 -15.511  0.00  0.00    -0.646 OA
HETATM   25  O           1     -28.062  -7.547 -14.886  0.00  0.00    -0.646 OA
ENDBRANCH  18  23
ENDBRANCH  15  18
ENDBRANCH   1  14
TORSDOF 12
ENDMDL
MODEL 8
REMARK VINA RESULT:      -5.0     13.330     15.585
REMARK  12 active torsions:
REMARK  status: ('A' for Active; 'I' for Inactive)
REMARK    1  A    between atoms: N_1  and  C_21 
REMARK       I    between atoms: N_1  and  C_12 
REMARK    2  A    between atoms: N_6  and  C_11 
REMARK    3  A    between atoms: C_8  and  C_17 
REMARK    4  A    between atoms: C_8  and  C_23 
REMARK    5  A    between atoms: C_10  and  C_11 
REMARK    6  A    between atoms: C_10  and  C_17 
REMARK    7  A    between atoms: C_11  and  C_12 
REMARK    8  A    between atoms: N_13  and  C_23 
REMARK    9  A    between atoms: S_18  and  C_19 
REMARK   10  A    between atoms: C_19  and  C_20 
REMARK   11  A    between atoms: C_20  and  C_21 
REMARK   12  A    between atoms: C_21  and  C_22 
ROOT
HETATM    1  C           1     -23.712  -4.124  -9.236  0.00  0.00     0.274 C 
ENDROOT
BRANCH   1   2
HETATM    2  N           1     -24.924  -3.343  -8.826  0.00  0.00    -0.067 N 
HETATM    3  H           1     -25.271  -3.695  -7.905  0.00  0.00     0.275 HD
HETATM    4  H           1     -24.675  -2.332  -8.740  0.00  0.00     0.275 HD
HETATM    5  H           1     -25.673  -3.458  -9.547  0.00  0.00     0.275 HD
ENDBRANCH   1   2
BRANCH   1   6
HETATM    6  C           1     -23.109  -3.504 -10.490  0.00  0.00     0.042 C 
BRANCH   6   7
HETATM    7  C           1     -22.442  -4.590 -11.323  0.00  0.00     0.004 C 
BRANCH   7   8
HETATM    8  C           1     -21.182  -4.031 -11.971  0.00  0.00     0.027 C 
BRANCH   8   9
HETATM    9  C           1     -20.157  -3.705 -10.892  0.00  0.00     0.229 C 
BRANCH   9  10
HETATM   10  N           1     -19.879  -4.935 -10.079  0.00  0.00    -0.079 N 
HETATM   11  H           1     -19.660  -4.660  -9.095  0.00  0.00     0.274 HD
HETATM   12  H           1     -20.719  -5.556 -10.088  0.00  0.00     0.274 HD
HETATM   13  H           1     -19.064  -5.446 -10.487  0.00  0.00     0.274 HD
ENDBRANCH   9  10
ENDBRANCH   8   9
ENDBRANCH   7   8
ENDBRANCH   6   7
ENDBRANCH   1   6
BRANCH   1  14
HETATM   14  C           1     -22.695  -4.097  -8.122  0.00  0.00     0.249 C 
HETATM   15  N           1     -22.507  -5.206  -7.340  0.00  0.00    -0.345 N 
HETATM   16  H           1     -23.049  -6.043  -7.510  0.00  0.00     0.163 HD
HETATM   17  O           1     -22.048  -3.097  -7.919  0.00  0.00    -0.271 OA
BRANCH  15  18
HETATM   18  C           1     -21.530  -5.179  -6.268  0.00  0.00     0.186 C 
BRANCH  18  19
HETATM   19  C           1     -21.913  -6.204  -5.209  0.00  0.00     0.046 C 
BRANCH  19  20
HETATM   20  C           1     -20.997  -6.055  -4.002  0.00  0.00     0.076 C 
BRANCH  20  21
HETATM   21  S           1     -21.945  -6.343  -2.482  0.00  0.00    -0.173 SA
HETATM   22  C           1     -20.890  -7.672  -1.838  0.00  0.00     0.089 C 
ENDBRANCH  20  21
ENDBRANCH  19  20
ENDBRANCH  18  19
BRANCH  18  23
HETATM   23  C           1     -20.167  -5.514  -6.823  0.00  0.00     0.196 C 
HETATM   24  O           1     -19.285  -4.632  -6.885  0.00  0.00    -0.646 OA
HETATM   25  O           1     -19.921  -6.674  -7.220  0.00  0.00    -0.646 OA
ENDBRANCH  18  23
ENDBRANCH  15  18
ENDBRANCH   1  14
TORSDOF 12
ENDMDL
MODEL 9
REMARK VINA RESULT:      -5.0     13.995     15.883
REMARK  12 active torsions:
REMARK  status: ('A' for Active; 'I' for Inactive)
REMARK    1  A    between atoms: N_1  and  C_21 
REMARK       I    between atoms: N_1  and  C_12 
REMARK    2  A    between atoms: N_6  and  C_11 
REMARK    3  A    between atoms: C_8  and  C_17 
REMARK    4  A    between atoms: C_8  and  C_23 
REMARK    5  A    between atoms: C_10  and  C_11 
REMARK    6  A    between atoms: C_10  and  C_17 
REMARK    7  A    between atoms: C_11  and  C_12 
REMARK    8  A    between atoms: N_13  and  C_23 
REMARK    9  A    between atoms: S_18  and  C_19 
REMARK   10  A    between atoms: C_19  and  C_20 
REMARK   11  A    between atoms: C_20  and  C_21 
REMARK   12  A    between atoms: C_21  and  C_22 
ROOT
HETATM    1  C           1     -21.827  -8.078  -4.096  0.00  0.00     0.274 C 
ENDROOT
BRANCH   1   2
HETATM    2  N           1     -21.528  -9.544  -4.180  0.00  0.00    -0.067 N 
HETATM    3  H           1     -21.996 -10.042  -3.388  0.00  0.00     0.275 HD
HETATM    4  H           1     -21.885  -9.921  -5.086  0.00  0.00     0.275 HD
HETATM    5  H           1     -20.494  -9.693  -4.122  0.00  0.00     0.275 HD
ENDBRANCH   1   2
BRANCH   1   6
HETATM    6  C           1     -21.160  -7.494  -2.857  0.00  0.00     0.042 C 
BRANCH   6   7
HETATM    7  C           1     -22.108  -6.511  -2.185  0.00  0.00     0.004 C 
BRANCH   7   8
HETATM    8  C           1     -22.305  -6.910  -0.728  0.00  0.00     0.027 C 
BRANCH   8   9
HETATM    9  C           1     -22.128  -8.416  -0.585  0.00  0.00     0.229 C 
BRANCH   9  10
HETATM   10  N           1     -21.345  -8.711   0.661  0.00  0.00    -0.079 N 
HETATM   11  H           1     -20.591  -9.401   0.444  0.00  0.00     0.274 HD
HETATM   12  H           1     -20.917  -7.828   1.021  0.00  0.00     0.274 HD
HETATM   13  H           1     -21.984  -9.109   1.386  0.00  0.00     0.274 HD
ENDBRANCH   9  10
ENDBRANCH   8   9
ENDBRANCH   7   8
ENDBRANCH   6   7
ENDBRANCH   1   6
BRANCH   1  14
HETATM   14  C           1     -21.297  -7.385  -5.326  0.00  0.00     0.249 C 
HETATM   15  N           1     -21.766  -6.145  -5.670  0.00  0.00    -0.345 N 
HETATM   16  H           1     -22.468  -5.693  -5.098  0.00  0.00     0.163 HD
HETATM   17  O           1     -20.459  -7.924  -6.010  0.00  0.00    -0.271 OA
BRANCH  15  18
HETATM   18  C           1     -21.257  -5.479  -6.854  0.00  0.00     0.186 C 
BRANCH  18  19
HETATM   19  C           1     -22.286  -4.471  -7.350  0.00  0.00     0.046 C 
BRANCH  19  20
HETATM   20  C           1     -22.206  -4.368  -8.866  0.00  0.00     0.076 C 
BRANCH  20  21
HETATM   21  S           1     -23.826  -3.882  -9.526  0.00  0.00    -0.173 SA
HETATM   22  C           1     -23.685  -4.794 -11.090  0.00  0.00     0.089 C 
ENDBRANCH  20  21
ENDBRANCH  19  20
ENDBRANCH  18  19
BRANCH  18  23
HETATM   23  C           1     -19.973  -4.763  -6.514  0.00  0.00     0.196 C 
HETATM   24  O           1     -19.775  -4.356  -5.350  0.00  0.00    -0.646 OA
HETATM   25  O           1     -19.108  -4.578  -7.398  0.00  0.00    -0.646 OA
ENDBRANCH  18  23
ENDBRANCH  15  18
ENDBRANCH   1  14
TORSDOF 12
ENDMDL
