MODEL 1
REMARK VINA RESULT:      -6.7      0.000      0.000
REMARK  9 active torsions:
REMARK  status: ('A' for Active; 'I' for Inactive)
REMARK    1  A    between atoms: C_2  and  C_21 
REMARK    2  A    between atoms: C_2  and  C_3 
REMARK    3  A    between atoms: C_2  and  N_8 
REMARK    4  A    between atoms: C_4  and  C_19 
REMARK    5  A    between atoms: P_5  and  O_6 
REMARK    6  A    between atoms: P_5  and  O_10 
REMARK    7  A    between atoms: O_6  and  C_23 
REMARK    8  A    between atoms: N_13  and  C_19 
REMARK       I    between atoms: N_13  and  C_21 
REMARK    9  A    between atoms: C_19  and  C_23 
ROOT
HETATM    1  O           1     -33.798  -1.838 -11.232  0.00  0.00    -0.271 OA
HETATM    2  N           1     -35.672  -1.757 -12.444  0.00  0.00    -0.343 N 
HETATM    3  H           1     -36.331  -2.245 -13.037  0.00  0.00     0.163 HD
HETATM    4  C           1     -34.586  -2.420 -11.939  0.00  0.00     0.249 C 
ENDROOT
BRANCH   2   5
HETATM    5  C           1     -35.878  -0.357 -12.129  0.00  0.00     0.210 C 
BRANCH   5   6
HETATM    6  C           1     -36.842  -0.238 -10.974  0.00  0.00     0.198 C 
HETATM    7  O           1     -37.893  -0.914 -10.966  0.00  0.00    -0.646 OA
HETATM    8  O           1     -36.589   0.535 -10.026  0.00  0.00    -0.646 OA
ENDBRANCH   5   6
BRANCH   5   9
HETATM    9  C           1     -36.452   0.357 -13.346  0.00  0.00     0.217 C 
BRANCH   9  10
HETATM   10  O           1     -36.726  -0.581 -14.352  0.00  0.00    -0.287 OA
BRANCH  10  11
HETATM   11  P           1     -35.667  -0.643 -15.570  0.00  0.00     0.406 P 
HETATM   12  O           1     -34.574   0.324 -15.322  0.00  0.00    -0.624 OA
HETATM   13  O           1     -36.350  -0.301 -16.837  0.00  0.00    -0.624 OA
BRANCH  11  14
HETATM   14  O           1     -35.053  -2.133 -15.672  0.00  0.00    -0.300 OA
HETATM   15  H           1     -35.658  -2.608 -16.217  0.00  0.00     0.223 HD
ENDBRANCH  11  14
ENDBRANCH  10  11
ENDBRANCH   9  10
ENDBRANCH   5   9
ENDBRANCH   2   5
BRANCH   4  16
HETATM   16  C           1     -34.371  -3.877 -12.267  0.00  0.00     0.278 C 
BRANCH  16  17
HETATM   17  C           1     -33.338  -4.466 -11.315  0.00  0.00     0.017 C 
HETATM   18  C           1     -33.848  -5.791 -10.767  0.00  0.00     0.012 C 
HETATM   19  C           1     -32.032  -4.695 -12.063  0.00  0.00     0.012 C 
ENDBRANCH  16  17
BRANCH  16  20
HETATM   20  N           1     -33.879  -4.005 -13.678  0.00  0.00    -0.066 N 
HETATM   21  H           1     -32.944  -4.472 -13.681  0.00  0.00     0.275 HD
HETATM   22  H           1     -34.555  -4.577 -14.231  0.00  0.00     0.275 HD
HETATM   23  H           1     -33.795  -3.054 -14.104  0.00  0.00     0.275 HD
ENDBRANCH  16  20
ENDBRANCH   4  16
TORSDOF 9
ENDMDL
MODEL 2
REMARK VINA RESULT:      -5.9      3.000      4.803
REMARK  9 active torsions:
REMARK  status: ('A' for Active; 'I' for Inactive)
REMARK    1  A    between atoms: C_2  and  C_21 
REMARK    2  A    between atoms: C_2  and  C_3 
REMARK    3  A    between atoms: C_2  and  N_8 
REMARK    4  A    between atoms: C_4  and  C_19 
REMARK    5  A    between atoms: P_5  and  O_6 
REMARK    6  A    between atoms: P_5  and  O_10 
REMARK    7  A    between atoms: O_6  and  C_23 
REMARK    8  A    between atoms: N_13  and  C_19 
REMARK       I    between atoms: N_13  and  C_21 
REMARK    9  A    between atoms: C_19  and  C_23 
ROOT
HETATM    1  O           1     -38.061  -0.668 -12.968  0.00  0.00    -0.271 OA
HETATM    2  N           1     -36.109  -0.375 -11.923  0.00  0.00    -0.343 N 
HETATM    3  H           1     -35.154  -0.044 -11.968  0.00  0.00     0.163 HD
HETATM    4  C           1     -36.920  -0.273 -13.021  0.00  0.00     0.249 C 
ENDROOT
BRANCH   2   5
HETATM    5  C           1     -36.618  -0.957 -10.696  0.00  0.00     0.210 C 
BRANCH   5   6
HETATM    6  C           1     -36.689   0.107  -9.628  0.00  0.00     0.198 C 
HETATM    7  O           1     -35.966   0.020  -8.612  0.00  0.00    -0.646 OA
HETATM    8  O           1     -37.470   1.073  -9.759  0.00  0.00    -0.646 OA
ENDBRANCH   5   6
BRANCH   5   9
HETATM    9  C           1     -35.689  -2.074 -10.241  0.00  0.00     0.217 C 
BRANCH   9  10
HETATM   10  O           1     -35.827  -3.175 -11.098  0.00  0.00    -0.287 OA
BRANCH  10  11
HETATM   11  P           1     -34.539  -3.530 -12.007  0.00  0.00     0.406 P 
HETATM   12  O           1     -33.305  -3.175 -11.273  0.00  0.00    -0.624 OA
HETATM   13  O           1     -34.600  -2.762 -13.270  0.00  0.00    -0.624 OA
BRANCH  11  14
HETATM   14  O           1     -34.534  -5.111 -12.336  0.00  0.00    -0.300 OA
HETATM   15  H           1     -34.349  -5.167 -13.259  0.00  0.00     0.223 HD
ENDBRANCH  11  14
ENDBRANCH  10  11
ENDBRANCH   9  10
ENDBRANCH   5   9
ENDBRANCH   2   5
BRANCH   4  16
HETATM   16  C           1     -36.390   0.332 -14.298  0.00  0.00     0.278 C 
BRANCH  16  17
HETATM   17  C           1     -37.101  -0.294 -15.490  0.00  0.00     0.017 C 
HETATM   18  C           1     -38.075   0.712 -16.087  0.00  0.00     0.012 C 
HETATM   19  C           1     -36.074  -0.692 -16.541  0.00  0.00     0.012 C 
ENDBRANCH  16  17
BRANCH  16  20
HETATM   20  N           1     -34.916   0.069 -14.401  0.00  0.00    -0.066 N 
HETATM   21  H           1     -34.582  -0.391 -13.525  0.00  0.00     0.275 HD
HETATM   22  H           1     -34.733  -0.560 -15.215  0.00  0.00     0.275 HD
HETATM   23  H           1     -34.411   0.973 -14.536  0.00  0.00     0.275 HD
ENDBRANCH  16  20
ENDBRANCH   4  16
TORSDOF 9
ENDMDL
MODEL 3
REMARK VINA RESULT:      -5.7     13.485     15.805
REMARK  9 active torsions:
REMARK  status: ('A' for Active; 'I' for Inactive)
REMARK    1  A    between atoms: C_2  and  C_21 
REMARK    2  A    between atoms: C_2  and  C_3 
REMARK    3  A    between atoms: C_2  and  N_8 
REMARK    4  A    between atoms: C_4  and  C_19 
REMARK    5  A    between atoms: P_5  and  O_6 
REMARK    6  A    between atoms: P_5  and  O_10 
REMARK    7  A    between atoms: O_6  and  C_23 
REMARK    8  A    between atoms: N_13  and  C_19 
REMARK       I    between atoms: N_13  and  C_21 
REMARK    9  A    between atoms: C_19  and  C_23 
ROOT
HETATM    1  O           1     -22.393  -7.112  -5.223  0.00  0.00    -0.271 OA
HETATM    2  N           1     -21.007  -5.377  -5.463  0.00  0.00    -0.343 N 
HETATM    3  H           1     -20.359  -4.731  -5.030  0.00  0.00     0.163 HD
HETATM    4  C           1     -21.619  -6.340  -4.707  0.00  0.00     0.249 C 
ENDROOT
BRANCH   2   5
HETATM    5  C           1     -21.285  -5.284  -6.883  0.00  0.00     0.210 C 
BRANCH   5   6
HETATM    6  C           1     -19.996  -5.057  -7.634  0.00  0.00     0.198 C 
HETATM    7  O           1     -18.964  -4.721  -7.014  0.00  0.00    -0.646 OA
HETATM    8  O           1     -19.961  -5.205  -8.874  0.00  0.00    -0.646 OA
ENDBRANCH   5   6
BRANCH   5   9
HETATM    9  C           1     -22.234  -4.120  -7.138  0.00  0.00     0.217 C 
BRANCH   9  10
HETATM   10  O           1     -23.389  -4.589  -7.779  0.00  0.00    -0.287 OA
BRANCH  10  11
HETATM   11  P           1     -23.679  -3.983  -9.248  0.00  0.00     0.406 P 
HETATM   12  O           1     -24.087  -5.074 -10.160  0.00  0.00    -0.624 OA
HETATM   13  O           1     -22.452  -3.339  -9.767  0.00  0.00    -0.624 OA
BRANCH  11  14
HETATM   14  O           1     -24.865  -2.890  -9.153  0.00  0.00    -0.300 OA
HETATM   15  H           1     -25.192  -2.963  -8.272  0.00  0.00     0.223 HD
ENDBRANCH  11  14
ENDBRANCH  10  11
ENDBRANCH   9  10
ENDBRANCH   5   9
ENDBRANCH   2   5
BRANCH   4  16
HETATM   16  C           1     -21.330  -6.437  -3.229  0.00  0.00     0.278 C 
BRANCH  16  17
HETATM   17  C           1     -21.189  -7.901  -2.834  0.00  0.00     0.017 C 
HETATM   18  C           1     -19.887  -8.456  -3.395  0.00  0.00     0.012 C 
HETATM   19  C           1     -21.178  -8.017  -1.316  0.00  0.00     0.012 C 
ENDBRANCH  16  17
BRANCH  16  20
HETATM   20  N           1     -22.458  -5.818  -2.457  0.00  0.00    -0.066 N 
HETATM   21  H           1     -22.300  -4.789  -2.373  0.00  0.00     0.275 HD
HETATM   22  H           1     -23.358  -5.992  -2.958  0.00  0.00     0.275 HD
HETATM   23  H           1     -22.500  -6.243  -1.504  0.00  0.00     0.275 HD
ENDBRANCH  16  20
ENDBRANCH   4  16
TORSDOF 9
ENDMDL
MODEL 4
REMARK VINA RESULT:      -5.6      3.218      5.727
REMARK  9 active torsions:
REMARK  status: ('A' for Active; 'I' for Inactive)
REMARK    1  A    between atoms: C_2  and  C_21 
REMARK    2  A    between atoms: C_2  and  C_3 
REMARK    3  A    between atoms: C_2  and  N_8 
REMARK    4  A    between atoms: C_4  and  C_19 
REMARK    5  A    between atoms: P_5  and  O_6 
REMARK    6  A    between atoms: P_5  and  O_10 
REMARK    7  A    between atoms: O_6  and  C_23 
REMARK    8  A    between atoms: N_13  and  C_19 
REMARK       I    between atoms: N_13  and  C_21 
REMARK    9  A    between atoms: C_19  and  C_23 
ROOT
HETATM    1  O           1     -37.248  -0.640 -12.342  0.00  0.00    -0.271 OA
HETATM    2  N           1     -35.221  -1.491 -12.729  0.00  0.00    -0.343 N 
HETATM    3  H           1     -34.395  -1.507 -13.314  0.00  0.00     0.163 HD
HETATM    4  C           1     -36.262  -0.659 -13.039  0.00  0.00     0.249 C 
ENDROOT
BRANCH   2   5
HETATM    5  C           1     -35.300  -2.349 -11.562  0.00  0.00     0.210 C 
BRANCH   5   6
HETATM    6  C           1     -34.402  -1.806 -10.478  0.00  0.00     0.198 C 
HETATM    7  O           1     -33.160  -1.864 -10.608  0.00  0.00    -0.646 OA
HETATM    8  O           1     -34.899  -1.298  -9.450  0.00  0.00    -0.646 OA
ENDBRANCH   5   6
BRANCH   5   9
HETATM    9  C           1     -34.853  -3.755 -11.936  0.00  0.00     0.217 C 
BRANCH   9  10
HETATM   10  O           1     -35.029  -4.610 -10.838  0.00  0.00    -0.287 OA
BRANCH  10  11
HETATM   11  P           1     -34.494  -6.122 -11.025  0.00  0.00     0.406 P 
HETATM   12  O           1     -34.952  -6.952  -9.889  0.00  0.00    -0.624 OA
HETATM   13  O           1     -33.015  -6.121 -11.070  0.00  0.00    -0.624 OA
BRANCH  11  14
HETATM   14  O           1     -35.076  -6.731 -12.404  0.00  0.00    -0.300 OA
HETATM   15  H           1     -35.701  -7.383 -12.137  0.00  0.00     0.223 HD
ENDBRANCH  11  14
ENDBRANCH  10  11
ENDBRANCH   9  10
ENDBRANCH   5   9
ENDBRANCH   2   5
BRANCH   4  16
HETATM   16  C           1     -36.180   0.233 -14.254  0.00  0.00     0.278 C 
BRANCH  16  17
HETATM   17  C           1     -36.945  -0.406 -15.406  0.00  0.00     0.017 C 
HETATM   18  C           1     -38.070   0.521 -15.845  0.00  0.00     0.012 C 
HETATM   19  C           1     -35.997  -0.643 -16.574  0.00  0.00     0.012 C 
ENDBRANCH  16  17
BRANCH  16  20
HETATM   20  N           1     -34.743   0.411 -14.647  0.00  0.00    -0.066 N 
HETATM   21  H           1     -34.147  -0.253 -14.103  0.00  0.00     0.275 HD
HETATM   22  H           1     -34.636   0.217 -15.668  0.00  0.00     0.275 HD
HETATM   23  H           1     -34.446   1.392 -14.445  0.00  0.00     0.275 HD
ENDBRANCH  16  20
ENDBRANCH   4  16
TORSDOF 9
ENDMDL
MODEL 5
REMARK VINA RESULT:      -5.6     24.845     26.501
REMARK  9 active torsions:
REMARK  status: ('A' for Active; 'I' for Inactive)
REMARK    1  A    between atoms: C_2  and  C_21 
REMARK    2  A    between atoms: C_2  and  C_3 
REMARK    3  A    between atoms: C_2  and  N_8 
REMARK    4  A    between atoms: C_4  and  C_19 
REMARK    5  A    between atoms: P_5  and  O_6 
REMARK    6  A    between atoms: P_5  and  O_10 
REMARK    7  A    between atoms: O_6  and  C_23 
REMARK    8  A    between atoms: N_13  and  C_19 
REMARK       I    between atoms: N_13  and  C_21 
REMARK    9  A    between atoms: C_19  and  C_23 
ROOT
HETATM    1  O           1     -11.675   3.119 -21.349  0.00  0.00    -0.271 OA
HETATM    2  N           1     -11.492   5.343 -21.425  0.00  0.00    -0.343 N 
HETATM    3  H           1     -11.870   6.224 -21.750  0.00  0.00     0.163 HD
HETATM    4  C           1     -12.126   4.170 -21.737  0.00  0.00     0.249 C 
ENDROOT
BRANCH   2   5
HETATM    5  C           1     -10.281   5.323 -20.627  0.00  0.00     0.210 C 
BRANCH   5   6
HETATM    6  C           1     -10.641   5.424 -19.165  0.00  0.00     0.198 C 
HETATM    7  O           1      -9.772   5.753 -18.329  0.00  0.00    -0.646 OA
HETATM    8  O           1     -11.808   5.179 -18.790  0.00  0.00    -0.646 OA
ENDBRANCH   5   6
BRANCH   5   9
HETATM    9  C           1      -9.399   6.502 -21.016  0.00  0.00     0.217 C 
BRANCH   9  10
HETATM   10  O           1     -10.205   7.575 -21.424  0.00  0.00    -0.287 OA
BRANCH  10  11
HETATM   11  P           1      -9.946   8.981 -20.671  0.00  0.00     0.406 P 
HETATM   12  O           1     -11.015   9.938 -21.033  0.00  0.00    -0.624 OA
HETATM   13  O           1      -8.634   9.527 -21.084  0.00  0.00    -0.624 OA
BRANCH  11  14
HETATM   14  O           1      -9.954   8.744 -19.074  0.00  0.00    -0.300 OA
HETATM   15  H           1      -9.771   7.826 -18.963  0.00  0.00     0.223 HD
ENDBRANCH  11  14
ENDBRANCH  10  11
ENDBRANCH   9  10
ENDBRANCH   5   9
ENDBRANCH   2   5
BRANCH   4  16
HETATM   16  C           1     -13.385   4.191 -22.568  0.00  0.00     0.278 C 
BRANCH  16  17
HETATM   17  C           1     -14.341   5.241 -22.015  0.00  0.00     0.017 C 
HETATM   18  C           1     -15.580   5.314 -22.897  0.00  0.00     0.012 C 
HETATM   19  C           1     -14.748   4.861 -20.598  0.00  0.00     0.012 C 
ENDBRANCH  16  17
BRANCH  16  20
HETATM   20  N           1     -14.041   2.843 -22.515  0.00  0.00    -0.066 N 
HETATM   21  H           1     -15.079   2.958 -22.548  0.00  0.00     0.275 HD
HETATM   22  H           1     -13.728   2.273 -23.333  0.00  0.00     0.275 HD
HETATM   23  H           1     -13.772   2.359 -21.629  0.00  0.00     0.275 HD
ENDBRANCH  16  20
ENDBRANCH   4  16
TORSDOF 9
ENDMDL
MODEL 6
REMARK VINA RESULT:      -5.4     16.373     18.456
REMARK  9 active torsions:
REMARK  status: ('A' for Active; 'I' for Inactive)
REMARK    1  A    between atoms: C_2  and  C_21 
REMARK    2  A    between atoms: C_2  and  C_3 
REMARK    3  A    between atoms: C_2  and  N_8 
REMARK    4  A    between atoms: C_4  and  C_19 
REMARK    5  A    between atoms: P_5  and  O_6 
REMARK    6  A    between atoms: P_5  and  O_10 
REMARK    7  A    between atoms: O_6  and  C_23 
REMARK    8  A    between atoms: N_13  and  C_19 
REMARK       I    between atoms: N_13  and  C_21 
REMARK    9  A    between atoms: C_19  and  C_23 
ROOT
HETATM    1  O           1     -21.932  -9.615  -2.268  0.00  0.00    -0.271 OA
HETATM    2  N           1     -20.651  -8.053  -3.219  0.00  0.00    -0.343 N 
HETATM    3  H           1     -20.172  -7.166  -3.131  0.00  0.00     0.163 HD
HETATM    4  C           1     -21.361  -8.555  -2.162  0.00  0.00     0.249 C 
ENDROOT
BRANCH   2   5
HETATM    5  C           1     -20.583  -8.793  -4.465  0.00  0.00     0.210 C 
BRANCH   5   6
HETATM    6  C           1     -19.141  -8.947  -4.880  0.00  0.00     0.198 C 
HETATM    7  O           1     -18.272  -9.229  -4.026  0.00  0.00    -0.646 OA
HETATM    8  O           1     -18.814  -8.794  -6.076  0.00  0.00    -0.646 OA
ENDBRANCH   5   6
BRANCH   5   9
HETATM    9  C           1     -21.345  -8.037  -5.545  0.00  0.00     0.217 C 
BRANCH   9  10
HETATM   10  O           1     -21.488  -6.695  -5.165  0.00  0.00    -0.287 OA
BRANCH  10  11
HETATM   11  P           1     -20.895  -5.600  -6.194  0.00  0.00     0.406 P 
HETATM   12  O           1     -20.077  -4.616  -5.450  0.00  0.00    -0.624 OA
HETATM   13  O           1     -22.011  -4.902  -6.870  0.00  0.00    -0.624 OA
BRANCH  11  14
HETATM   14  O           1     -19.975  -6.342  -7.295  0.00  0.00    -0.300 OA
HETATM   15  H           1     -20.584  -6.766  -7.875  0.00  0.00     0.223 HD
ENDBRANCH  11  14
ENDBRANCH  10  11
ENDBRANCH   9  10
ENDBRANCH   5   9
ENDBRANCH   2   5
BRANCH   4  16
HETATM   16  C           1     -21.431  -7.785  -0.867  0.00  0.00     0.278 C 
BRANCH  16  17
HETATM   17  C           1     -21.995  -8.683   0.227  0.00  0.00     0.017 C 
HETATM   18  C           1     -21.045  -8.693   1.416  0.00  0.00     0.012 C 
HETATM   19  C           1     -23.353  -8.152   0.668  0.00  0.00     0.012 C 
ENDBRANCH  16  17
BRANCH  16  20
HETATM   20  N           1     -22.323  -6.592  -1.042  0.00  0.00    -0.066 N 
HETATM   21  H           1     -21.894  -5.933  -1.730  0.00  0.00     0.275 HD
HETATM   22  H           1     -23.255  -6.904  -1.395  0.00  0.00     0.275 HD
HETATM   23  H           1     -22.441  -6.108  -0.124  0.00  0.00     0.275 HD
ENDBRANCH  16  20
ENDBRANCH   4  16
TORSDOF 9
ENDMDL
MODEL 7
REMARK VINA RESULT:      -5.2     16.343     18.363
REMARK  9 active torsions:
REMARK  status: ('A' for Active; 'I' for Inactive)
REMARK    1  A    between atoms: C_2  and  C_21 
REMARK    2  A    between atoms: C_2  and  C_3 
REMARK    3  A    between atoms: C_2  and  N_8 
REMARK    4  A    between atoms: C_4  and  C_19 
REMARK    5  A    between atoms: P_5  and  O_6 
REMARK    6  A    between atoms: P_5  and  O_10 
REMARK    7  A    between atoms: O_6  and  C_23 
REMARK    8  A    between atoms: N_13  and  C_19 
REMARK       I    between atoms: N_13  and  C_21 
REMARK    9  A    between atoms: C_19  and  C_23 
ROOT
HETATM    1  O           1     -22.307 -10.216  -2.791  0.00  0.00    -0.271 OA
HETATM    2  N           1     -21.088  -8.371  -2.485  0.00  0.00    -0.343 N 
HETATM    3  H           1     -20.601  -7.762  -1.841  0.00  0.00     0.163 HD
HETATM    4  C           1     -21.725  -9.489  -2.021  0.00  0.00     0.249 C 
ENDROOT
BRANCH   2   5
HETATM    5  C           1     -21.110  -8.058  -3.902  0.00  0.00     0.210 C 
BRANCH   5   6
HETATM    6  C           1     -19.826  -8.529  -4.540  0.00  0.00     0.198 C 
HETATM    7  O           1     -19.744  -8.622  -5.783  0.00  0.00    -0.646 OA
HETATM    8  O           1     -18.845  -8.825  -3.824  0.00  0.00    -0.646 OA
ENDBRANCH   5   6
BRANCH   5   9
HETATM    9  C           1     -21.248  -6.553  -4.087  0.00  0.00     0.217 C 
BRANCH   9  10
HETATM   10  O           1     -22.030  -6.291  -5.221  0.00  0.00    -0.287 OA
BRANCH  10  11
HETATM   11  P           1     -21.341  -5.372  -6.358  0.00  0.00     0.406 P 
HETATM   12  O           1     -20.385  -4.438  -5.724  0.00  0.00    -0.624 OA
HETATM   13  O           1     -22.385  -4.602  -7.069  0.00  0.00    -0.624 OA
BRANCH  11  14
HETATM   14  O           1     -20.556  -6.315  -7.408  0.00  0.00    -0.300 OA
HETATM   15  H           1     -20.690  -7.194  -7.093  0.00  0.00     0.223 HD
ENDBRANCH  11  14
ENDBRANCH  10  11
ENDBRANCH   9  10
ENDBRANCH   5   9
ENDBRANCH   2   5
BRANCH   4  16
HETATM   16  C           1     -21.703  -9.813  -0.547  0.00  0.00     0.278 C 
BRANCH  16  17
HETATM   17  C           1     -21.724  -8.520   0.258  0.00  0.00     0.017 C 
HETATM   18  C           1     -23.165  -8.132   0.558  0.00  0.00     0.012 C 
HETATM   19  C           1     -20.970  -8.725   1.565  0.00  0.00     0.012 C 
ENDBRANCH  16  17
BRANCH  16  20
HETATM   20  N           1     -20.456 -10.583  -0.223  0.00  0.00    -0.066 N 
HETATM   21  H           1     -19.909 -10.744  -1.098  0.00  0.00     0.275 HD
HETATM   22  H           1     -19.878 -10.036   0.454  0.00  0.00     0.275 HD
HETATM   23  H           1     -20.716 -11.502   0.200  0.00  0.00     0.275 HD
ENDBRANCH  16  20
ENDBRANCH   4  16
TORSDOF 9
ENDMDL
MODEL 8
REMARK VINA RESULT:      -5.1     17.075     19.057
REMARK  9 active torsions:
REMARK  status: ('A' for Active; 'I' for Inactive)
REMARK    1  A    between atoms: C_2  and  C_21 
REMARK    2  A    between atoms: C_2  and  C_3 
REMARK    3  A    between atoms: C_2  and  N_8 
REMARK    4  A    between atoms: C_4  and  C_19 
REMARK    5  A    between atoms: P_5  and  O_6 
REMARK    6  A    between atoms: P_5  and  O_10 
REMARK    7  A    between atoms: O_6  and  C_23 
REMARK    8  A    between atoms: N_13  and  C_19 
REMARK       I    between atoms: N_13  and  C_21 
REMARK    9  A    between atoms: C_19  and  C_23 
ROOT
HETATM    1  O           1     -19.719  -9.151  -1.772  0.00  0.00    -0.271 OA
HETATM    2  N           1     -21.677  -8.653  -2.725  0.00  0.00    -0.343 N 
HETATM    3  H           1     -22.680  -8.782  -2.741  0.00  0.00     0.163 HD
HETATM    4  C           1     -20.918  -9.305  -1.791  0.00  0.00     0.249 C 
ENDROOT
BRANCH   2   5
HETATM    5  C           1     -21.043  -7.775  -3.690  0.00  0.00     0.210 C 
BRANCH   5   6
HETATM    6  C           1     -21.790  -6.465  -3.743  0.00  0.00     0.198 C 
HETATM    7  O           1     -21.995  -5.907  -4.843  0.00  0.00    -0.646 OA
HETATM    8  O           1     -22.203  -5.938  -2.689  0.00  0.00    -0.646 OA
ENDBRANCH   5   6
BRANCH   5   9
HETATM    9  C           1     -21.068  -8.431  -5.064  0.00  0.00     0.217 C 
BRANCH   9  10
HETATM   10  O           1     -19.778  -8.411  -5.615  0.00  0.00    -0.287 OA
BRANCH  10  11
HETATM   11  P           1     -18.839  -9.678  -5.266  0.00  0.00     0.406 P 
HETATM   12  O           1     -18.008 -10.015  -6.442  0.00  0.00    -0.624 OA
HETATM   13  O           1     -19.688 -10.838  -4.913  0.00  0.00    -0.624 OA
BRANCH  11  14
HETATM   14  O           1     -17.883  -9.309  -4.018  0.00  0.00    -0.300 OA
HETATM   15  H           1     -17.671 -10.137  -3.620  0.00  0.00     0.223 HD
ENDBRANCH  11  14
ENDBRANCH  10  11
ENDBRANCH   9  10
ENDBRANCH   5   9
ENDBRANCH   2   5
BRANCH   4  16
HETATM   16  C           1     -21.577 -10.219  -0.787  0.00  0.00     0.278 C 
BRANCH  16  17
HETATM   17  C           1     -23.025  -9.792  -0.587  0.00  0.00     0.017 C 
HETATM   18  C           1     -23.825 -10.958  -0.022  0.00  0.00     0.012 C 
HETATM   19  C           1     -23.079  -8.622   0.386  0.00  0.00     0.012 C 
ENDBRANCH  16  17
BRANCH  16  20
HETATM   20  N           1     -20.846 -10.136   0.520  0.00  0.00    -0.066 N 
HETATM   21  H           1     -20.817  -9.142   0.841  0.00  0.00     0.275 HD
HETATM   22  H           1     -21.343 -10.716   1.233  0.00  0.00     0.275 HD
HETATM   23  H           1     -19.872 -10.491   0.397  0.00  0.00     0.275 HD
ENDBRANCH  16  20
ENDBRANCH   4  16
TORSDOF 9
ENDMDL
MODEL 9
REMARK VINA RESULT:      -5.1     15.099     17.666
REMARK  9 active torsions:
REMARK  status: ('A' for Active; 'I' for Inactive)
REMARK    1  A    between atoms: C_2  and  C_21 
REMARK    2  A    between atoms: C_2  and  C_3 
REMARK    3  A    between atoms: C_2  and  N_8 
REMARK    4  A    between atoms: C_4  and  C_19 
REMARK    5  A    between atoms: P_5  and  O_6 
REMARK    6  A    between atoms: P_5  and  O_10 
REMARK    7  A    between atoms: O_6  and  C_23 
REMARK    8  A    between atoms: N_13  and  C_19 
REMARK       I    between atoms: N_13  and  C_21 
REMARK    9  A    between atoms: C_19  and  C_23 
ROOT
HETATM    1  O           1     -23.002  -5.354  -6.004  0.00  0.00    -0.271 OA
HETATM    2  N           1     -21.116  -6.348  -5.340  0.00  0.00    -0.343 N 
HETATM    3  H           1     -20.107  -6.400  -5.399  0.00  0.00     0.163 HD
HETATM    4  C           1     -21.797  -5.416  -6.075  0.00  0.00     0.249 C 
ENDROOT
BRANCH   2   5
HETATM    5  C           1     -21.839  -7.260  -4.474  0.00  0.00     0.210 C 
BRANCH   5   6
HETATM    6  C           1     -21.645  -6.847  -3.036  0.00  0.00     0.198 C 
HETATM    7  O           1     -20.761  -7.394  -2.343  0.00  0.00    -0.646 OA
HETATM    8  O           1     -22.369  -5.958  -2.538  0.00  0.00    -0.646 OA
ENDBRANCH   5   6
BRANCH   5   9
HETATM    9  C           1     -21.311  -8.674  -4.673  0.00  0.00     0.217 C 
BRANCH   9  10
HETATM   10  O           1     -20.220  -8.646  -5.553  0.00  0.00    -0.287 OA
BRANCH  10  11
HETATM   11  P           1     -18.982  -9.613  -5.177  0.00  0.00     0.406 P 
HETATM   12  O           1     -18.329  -9.121  -3.944  0.00  0.00    -0.624 OA
HETATM   13  O           1     -18.002  -9.616  -6.286  0.00  0.00    -0.624 OA
BRANCH  11  14
HETATM   14  O           1     -19.528 -11.114  -4.935  0.00  0.00    -0.300 OA
HETATM   15  H           1     -19.211 -11.353  -4.080  0.00  0.00     0.223 HD
ENDBRANCH  11  14
ENDBRANCH  10  11
ENDBRANCH   9  10
ENDBRANCH   5   9
ENDBRANCH   2   5
BRANCH   4  16
HETATM   16  C           1     -21.044  -4.468  -6.976  0.00  0.00     0.278 C 
BRANCH  16  17
HETATM   17  C           1     -21.391  -4.765  -8.429  0.00  0.00     0.017 C 
HETATM   18  C           1     -22.409  -3.748  -8.927  0.00  0.00     0.012 C 
HETATM   19  C           1     -20.131  -4.679  -9.279  0.00  0.00     0.012 C 
ENDBRANCH  16  17
BRANCH  16  20
HETATM   20  N           1     -19.569  -4.646  -6.769  0.00  0.00    -0.066 N 
HETATM   21  H           1     -19.350  -4.585  -5.749  0.00  0.00     0.275 HD
HETATM   22  H           1     -19.279  -5.582  -7.131  0.00  0.00     0.275 HD
HETATM   23  H           1     -19.053  -3.897  -7.282  0.00  0.00     0.275 HD
ENDBRANCH  16  20
ENDBRANCH   4  16
TORSDOF 9
ENDMDL
