MODEL 1
REMARK VINA RESULT:      -7.6      0.000      0.000
REMARK  9 active torsions:
REMARK  status: ('A' for Active; 'I' for Inactive)
REMARK    1  A    between atoms: O_2  and  C_12 
REMARK    2  A    between atoms: O_2  and  P_3 
REMARK    3  A    between atoms: P_3  and  O_8 
REMARK    4  A    between atoms: C_4  and  C_6 
REMARK    5  A    between atoms: C_6  and  C_16 
REMARK    6  A    between atoms: C_6  and  N_19 
REMARK    7  A    between atoms: N_10  and  C_17 
REMARK    8  A    between atoms: C_15  and  C_16 
REMARK    9  A    between atoms: C_17  and  C_18 
REMARK       I    between atoms: C_18  and  N_19 
ROOT
HETATM    1  C           1     -36.506  -0.582 -12.219  0.00  0.00     0.189 C 
ENDROOT
BRANCH   1   2
HETATM    2  C           1     -36.993  -0.046 -10.895  0.00  0.00     0.197 C 
HETATM    3  O           1     -36.315   0.803 -10.278  0.00  0.00    -0.646 OA
HETATM    4  O           1     -38.074  -0.452 -10.417  0.00  0.00    -0.646 OA
ENDBRANCH   1   2
BRANCH   1   5
HETATM    5  C           1     -34.983  -0.619 -12.223  0.00  0.00     0.074 C 
BRANCH   5   6
HETATM    6  C           1     -34.516  -2.018 -11.966  0.00  0.00    -0.056 A 
HETATM    7  C           1     -33.980  -2.358 -10.723  0.00  0.00     0.010 A 
HETATM    8  C           1     -33.545  -3.661 -10.484  0.00  0.00     0.038 A 
HETATM    9  C           1     -33.647  -4.625 -11.487  0.00  0.00     0.081 A 
HETATM   10  C           1     -34.182  -4.286 -12.729  0.00  0.00     0.038 A 
HETATM   11  C           1     -34.618  -2.982 -12.969  0.00  0.00     0.010 A 
BRANCH   9  12
HETATM   12  O           1     -33.224  -5.892 -11.255  0.00  0.00    -0.247 OA
BRANCH  12  13
HETATM   13  P           1     -34.296  -6.956 -10.684  0.00  0.00     0.411 P 
HETATM   14  O           1     -35.084  -6.330  -9.599  0.00  0.00    -0.624 OA
HETATM   15  O           1     -33.582  -8.139 -10.155  0.00  0.00    -0.624 OA
BRANCH  13  16
HETATM   16  O           1     -35.288  -7.412 -11.874  0.00  0.00    -0.300 OA
HETATM   17  H           1     -35.969  -7.905 -11.450  0.00  0.00     0.223 HD
ENDBRANCH  13  16
ENDBRANCH  12  13
ENDBRANCH   9  12
ENDBRANCH   5   6
ENDBRANCH   1   5
BRANCH   1  18
HETATM   18  N           1     -36.970   0.280 -13.288  0.00  0.00    -0.344 N 
HETATM   19  C           1     -37.052  -0.200 -14.569  0.00  0.00     0.248 C 
HETATM   20  O           1     -38.072  -0.720 -14.954  0.00  0.00    -0.271 OA
HETATM   21  H           1     -37.233   1.237 -13.089  0.00  0.00     0.163 HD
BRANCH  19  22
HETATM   22  C           1     -35.869  -0.079 -15.497  0.00  0.00     0.270 C 
HETATM   23  C           1     -35.488   1.388 -15.648  0.00  0.00     0.050 C 
BRANCH  22  24
HETATM   24  N           1     -36.228  -0.643 -16.839  0.00  0.00    -0.067 N 
HETATM   25  H           1     -36.318  -1.682 -16.769  0.00  0.00     0.275 HD
HETATM   26  H           1     -37.137  -0.235 -17.156  0.00  0.00     0.275 HD
HETATM   27  H           1     -35.480  -0.404 -17.529  0.00  0.00     0.275 HD
ENDBRANCH  22  24
ENDBRANCH  19  22
ENDBRANCH   1  18
TORSDOF 9
ENDMDL
MODEL 2
REMARK VINA RESULT:      -7.3      6.572      8.088
REMARK  9 active torsions:
REMARK  status: ('A' for Active; 'I' for Inactive)
REMARK    1  A    between atoms: O_2  and  C_12 
REMARK    2  A    between atoms: O_2  and  P_3 
REMARK    3  A    between atoms: P_3  and  O_8 
REMARK    4  A    between atoms: C_4  and  C_6 
REMARK    5  A    between atoms: C_6  and  C_16 
REMARK    6  A    between atoms: C_6  and  N_19 
REMARK    7  A    between atoms: N_10  and  C_17 
REMARK    8  A    between atoms: C_15  and  C_16 
REMARK    9  A    between atoms: C_17  and  C_18 
REMARK       I    between atoms: C_18  and  N_19 
ROOT
HETATM    1  C           1     -32.497  -4.334 -16.236  0.00  0.00     0.189 C 
ENDROOT
BRANCH   1   2
HETATM    2  C           1     -32.593  -3.292 -17.323  0.00  0.00     0.197 C 
HETATM    3  O           1     -33.684  -2.728 -17.554  0.00  0.00    -0.646 OA
HETATM    4  O           1     -31.580  -2.992 -17.992  0.00  0.00    -0.646 OA
ENDBRANCH   1   2
BRANCH   1   5
HETATM    5  C           1     -31.975  -5.638 -16.826  0.00  0.00     0.074 C 
BRANCH   5   6
HETATM    6  C           1     -30.477  -5.623 -16.822  0.00  0.00    -0.056 A 
HETATM    7  C           1     -29.787  -5.199 -15.686  0.00  0.00     0.010 A 
HETATM    8  C           1     -28.393  -5.184 -15.682  0.00  0.00     0.038 A 
HETATM    9  C           1     -27.688  -5.594 -16.814  0.00  0.00     0.081 A 
HETATM   10  C           1     -28.378  -6.017 -17.950  0.00  0.00     0.038 A 
HETATM   11  C           1     -29.773  -6.033 -17.954  0.00  0.00     0.010 A 
BRANCH   9  12
HETATM   12  O           1     -26.332  -5.581 -16.810  0.00  0.00    -0.247 OA
BRANCH  12  13
HETATM   13  P           1     -25.565  -6.688 -15.919  0.00  0.00     0.411 P 
HETATM   14  O           1     -24.582  -7.405 -16.761  0.00  0.00    -0.624 OA
HETATM   15  O           1     -26.548  -7.652 -15.378  0.00  0.00    -0.624 OA
BRANCH  13  16
HETATM   16  O           1     -24.798  -5.958 -14.699  0.00  0.00    -0.300 OA
HETATM   17  H           1     -25.472  -5.758 -14.072  0.00  0.00     0.223 HD
ENDBRANCH  13  16
ENDBRANCH  12  13
ENDBRANCH   9  12
ENDBRANCH   5   6
ENDBRANCH   1   5
BRANCH   1  18
HETATM   18  N           1     -33.812  -4.556 -15.665  0.00  0.00    -0.344 N 
HETATM   19  C           1     -34.141  -3.990 -14.462  0.00  0.00     0.248 C 
HETATM   20  O           1     -34.645  -2.892 -14.430  0.00  0.00    -0.271 OA
HETATM   21  H           1     -34.486  -5.130 -16.156  0.00  0.00     0.163 HD
BRANCH  19  22
HETATM   22  C           1     -33.874  -4.736 -13.178  0.00  0.00     0.270 C 
HETATM   23  C           1     -34.874  -4.296 -12.117  0.00  0.00     0.050 C 
BRANCH  22  24
HETATM   24  N           1     -32.482  -4.437 -12.707  0.00  0.00    -0.067 N 
HETATM   25  H           1     -32.429  -3.445 -12.382  0.00  0.00     0.275 HD
HETATM   26  H           1     -32.237  -5.075 -11.916  0.00  0.00     0.275 HD
HETATM   27  H           1     -31.809  -4.582 -13.494  0.00  0.00     0.275 HD
ENDBRANCH  22  24
ENDBRANCH  19  22
ENDBRANCH   1  18
TORSDOF 9
ENDMDL
MODEL 3
REMARK VINA RESULT:      -6.8     13.879     16.821
REMARK  9 active torsions:
REMARK  status: ('A' for Active; 'I' for Inactive)
REMARK    1  A    between atoms: O_2  and  C_12 
REMARK    2  A    between atoms: O_2  and  P_3 
REMARK    3  A    between atoms: P_3  and  O_8 
REMARK    4  A    between atoms: C_4  and  C_6 
REMARK    5  A    between atoms: C_6  and  C_16 
REMARK    6  A    between atoms: C_6  and  N_19 
REMARK    7  A    between atoms: N_10  and  C_17 
REMARK    8  A    between atoms: C_15  and  C_16 
REMARK    9  A    between atoms: C_17  and  C_18 
REMARK       I    between atoms: C_18  and  N_19 
ROOT
HETATM    1  C           1     -21.351  -7.536  -5.264  0.00  0.00     0.189 C 
ENDROOT
BRANCH   1   2
HETATM    2  C           1     -20.506  -8.715  -4.851  0.00  0.00     0.197 C 
HETATM    3  O           1     -19.294  -8.554  -4.588  0.00  0.00    -0.646 OA
HETATM    4  O           1     -21.017  -9.853  -4.770  0.00  0.00    -0.646 OA
ENDBRANCH   1   2
BRANCH   1   5
HETATM    5  C           1     -20.453  -6.334  -5.526  0.00  0.00     0.074 C 
BRANCH   5   6
HETATM    6  C           1     -20.959  -5.583  -6.719  0.00  0.00    -0.056 A 
HETATM    7  C           1     -22.206  -4.959  -6.673  0.00  0.00     0.010 A 
HETATM    8  C           1     -22.678  -4.261  -7.785  0.00  0.00     0.038 A 
HETATM    9  C           1     -21.902  -4.186  -8.941  0.00  0.00     0.081 A 
HETATM   10  C           1     -20.655  -4.809  -8.988  0.00  0.00     0.038 A 
HETATM   11  C           1     -20.183  -5.508  -7.876  0.00  0.00     0.010 A 
BRANCH   9  12
HETATM   12  O           1     -22.360  -3.506 -10.022  0.00  0.00    -0.247 OA
BRANCH  12  13
HETATM   13  P           1     -23.554  -4.169 -10.884  0.00  0.00     0.411 P 
HETATM   14  O           1     -24.708  -3.243 -10.921  0.00  0.00    -0.624 OA
HETATM   15  O           1     -23.964  -5.444 -10.257  0.00  0.00    -0.624 OA
BRANCH  13  16
HETATM   16  O           1     -23.039  -4.448 -12.389  0.00  0.00    -0.300 OA
HETATM   17  H           1     -23.807  -4.719 -12.863  0.00  0.00     0.223 HD
ENDBRANCH  13  16
ENDBRANCH  12  13
ENDBRANCH   9  12
ENDBRANCH   5   6
ENDBRANCH   1   5
BRANCH   1  18
HETATM   18  N           1     -22.285  -7.217  -4.202  0.00  0.00    -0.344 N 
HETATM   19  C           1     -21.819  -6.853  -2.966  0.00  0.00     0.248 C 
HETATM   20  O           1     -21.608  -5.690  -2.719  0.00  0.00    -0.271 OA
HETATM   21  H           1     -23.282  -7.262  -4.373  0.00  0.00     0.163 HD
BRANCH  19  22
HETATM   22  C           1     -21.568  -7.905  -1.914  0.00  0.00     0.270 C 
HETATM   23  C           1     -22.290  -7.522  -0.629  0.00  0.00     0.050 C 
BRANCH  22  24
HETATM   24  N           1     -20.096  -8.006  -1.649  0.00  0.00    -0.067 N 
HETATM   25  H           1     -19.825  -9.011  -1.560  0.00  0.00     0.275 HD
HETATM   26  H           1     -19.569  -7.573  -2.442  0.00  0.00     0.275 HD
HETATM   27  H           1     -19.866  -7.503  -0.762  0.00  0.00     0.275 HD
ENDBRANCH  22  24
ENDBRANCH  19  22
ENDBRANCH   1  18
TORSDOF 9
ENDMDL
MODEL 4
REMARK VINA RESULT:      -6.2     17.111     19.562
REMARK  9 active torsions:
REMARK  status: ('A' for Active; 'I' for Inactive)
REMARK    1  A    between atoms: O_2  and  C_12 
REMARK    2  A    between atoms: O_2  and  P_3 
REMARK    3  A    between atoms: P_3  and  O_8 
REMARK    4  A    between atoms: C_4  and  C_6 
REMARK    5  A    between atoms: C_6  and  C_16 
REMARK    6  A    between atoms: C_6  and  N_19 
REMARK    7  A    between atoms: N_10  and  C_17 
REMARK    8  A    between atoms: C_15  and  C_16 
REMARK    9  A    between atoms: C_17  and  C_18 
REMARK       I    between atoms: C_18  and  N_19 
ROOT
HETATM    1  C           1     -21.747 -10.501   0.046  0.00  0.00     0.189 C 
ENDROOT
BRANCH   1   2
HETATM    2  C           1     -20.511 -10.508   0.911  0.00  0.00     0.197 C 
HETATM    3  O           1     -19.565 -11.281   0.644  0.00  0.00    -0.646 OA
HETATM    4  O           1     -20.432  -9.741   1.895  0.00  0.00    -0.646 OA
ENDBRANCH   1   2
BRANCH   1   5
HETATM    5  C           1     -22.447  -9.154   0.172  0.00  0.00     0.074 C 
BRANCH   5   6
HETATM    6  C           1     -22.046  -8.274  -0.972  0.00  0.00    -0.056 A 
HETATM    7  C           1     -22.378  -6.919  -0.959  0.00  0.00     0.010 A 
HETATM    8  C           1     -22.006  -6.100  -2.024  0.00  0.00     0.038 A 
HETATM    9  C           1     -21.300  -6.635  -3.102  0.00  0.00     0.081 A 
HETATM   10  C           1     -20.969  -7.990  -3.115  0.00  0.00     0.038 A 
HETATM   11  C           1     -21.341  -8.810  -2.050  0.00  0.00     0.010 A 
BRANCH   9  12
HETATM   12  O           1     -20.937  -5.839  -4.138  0.00  0.00    -0.247 OA
BRANCH  12  13
HETATM   13  P           1     -21.733  -6.000  -5.533  0.00  0.00     0.411 P 
HETATM   14  O           1     -21.522  -4.793  -6.364  0.00  0.00    -0.624 OA
HETATM   15  O           1     -23.178  -6.164  -5.260  0.00  0.00    -0.624 OA
BRANCH  13  16
HETATM   16  O           1     -21.182  -7.298  -6.320  0.00  0.00    -0.300 OA
HETATM   17  H           1     -20.273  -7.116  -6.484  0.00  0.00     0.223 HD
ENDBRANCH  13  16
ENDBRANCH  12  13
ENDBRANCH   9  12
ENDBRANCH   5   6
ENDBRANCH   1   5
BRANCH   1  18
HETATM   18  N           1     -22.645 -11.554   0.480  0.00  0.00    -0.344 N 
HETATM   19  C           1     -22.670 -12.750  -0.186  0.00  0.00     0.248 C 
HETATM   20  O           1     -21.938 -13.648   0.157  0.00  0.00    -0.271 OA
HETATM   21  H           1     -23.252 -11.404   1.275  0.00  0.00     0.163 HD
BRANCH  19  22
HETATM   22  C           1     -23.612 -12.946  -1.349  0.00  0.00     0.270 C 
HETATM   23  C           1     -24.382 -14.248  -1.166  0.00  0.00     0.050 C 
BRANCH  22  24
HETATM   24  N           1     -22.825 -13.007  -2.624  0.00  0.00    -0.067 N 
HETATM   25  H           1     -23.424 -13.397  -3.386  0.00  0.00     0.275 HD
HETATM   26  H           1     -22.512 -12.045  -2.886  0.00  0.00     0.275 HD
HETATM   27  H           1     -21.989 -13.620  -2.489  0.00  0.00     0.275 HD
ENDBRANCH  22  24
ENDBRANCH  19  22
ENDBRANCH   1  18
TORSDOF 9
ENDMDL
MODEL 5
REMARK VINA RESULT:      -6.2     15.303     17.838
REMARK  9 active torsions:
REMARK  status: ('A' for Active; 'I' for Inactive)
REMARK    1  A    between atoms: O_2  and  C_12 
REMARK    2  A    between atoms: O_2  and  P_3 
REMARK    3  A    between atoms: P_3  and  O_8 
REMARK    4  A    between atoms: C_4  and  C_6 
REMARK    5  A    between atoms: C_6  and  C_16 
REMARK    6  A    between atoms: C_6  and  N_19 
REMARK    7  A    between atoms: N_10  and  C_17 
REMARK    8  A    between atoms: C_15  and  C_16 
REMARK    9  A    between atoms: C_17  and  C_18 
REMARK       I    between atoms: C_18  and  N_19 
ROOT
HETATM    1  C           1     -20.984  -7.390  -3.632  0.00  0.00     0.189 C 
ENDROOT
BRANCH   1   2
HETATM    2  C           1     -21.615  -6.849  -2.373  0.00  0.00     0.197 C 
HETATM    3  O           1     -22.397  -5.876  -2.435  0.00  0.00    -0.646 OA
HETATM    4  O           1     -21.356  -7.374  -1.269  0.00  0.00    -0.646 OA
ENDBRANCH   1   2
BRANCH   1   5
HETATM    5  C           1     -22.008  -7.376  -4.760  0.00  0.00     0.074 C 
BRANCH   5   6
HETATM    6  C           1     -21.577  -6.402  -5.814  0.00  0.00    -0.056 A 
HETATM    7  C           1     -22.462  -5.420  -6.260  0.00  0.00     0.010 A 
HETATM    8  C           1     -22.061  -4.515  -7.242  0.00  0.00     0.038 A 
HETATM    9  C           1     -20.775  -4.589  -7.775  0.00  0.00     0.081 A 
HETATM   10  C           1     -19.890  -5.570  -7.329  0.00  0.00     0.038 A 
HETATM   11  C           1     -20.290  -6.476  -6.347  0.00  0.00     0.010 A 
BRANCH   9  12
HETATM   12  O           1     -20.384  -3.708  -8.729  0.00  0.00    -0.247 OA
BRANCH  12  13
HETATM   13  P           1     -20.627  -4.106 -10.275  0.00  0.00     0.411 P 
HETATM   14  O           1     -22.029  -4.544 -10.457  0.00  0.00    -0.624 OA
HETATM   15  O           1     -19.713  -5.208 -10.648  0.00  0.00    -0.624 OA
BRANCH  13  16
HETATM   16  O           1     -20.337  -2.824 -11.213  0.00  0.00    -0.300 OA
HETATM   17  H           1     -20.087  -3.183 -12.047  0.00  0.00     0.223 HD
ENDBRANCH  13  16
ENDBRANCH  12  13
ENDBRANCH   9  12
ENDBRANCH   5   6
ENDBRANCH   1   5
BRANCH   1  18
HETATM   18  N           1     -20.539  -8.751  -3.402  0.00  0.00    -0.344 N 
HETATM   19  C           1     -19.271  -9.126  -3.758  0.00  0.00     0.248 C 
HETATM   20  O           1     -18.365  -9.017  -2.966  0.00  0.00    -0.271 OA
HETATM   21  H           1     -21.166  -9.423  -2.978  0.00  0.00     0.163 HD
BRANCH  19  22
HETATM   22  C           1     -19.005  -9.675  -5.138  0.00  0.00     0.270 C 
HETATM   23  C           1     -20.108 -10.656  -5.516  0.00  0.00     0.050 C 
BRANCH  22  24
HETATM   24  N           1     -17.683 -10.382  -5.148  0.00  0.00    -0.067 N 
HETATM   25  H           1     -16.913  -9.683  -5.042  0.00  0.00     0.275 HD
HETATM   26  H           1     -17.646 -11.063  -4.356  0.00  0.00     0.275 HD
HETATM   27  H           1     -17.568 -10.893  -6.053  0.00  0.00     0.275 HD
ENDBRANCH  22  24
ENDBRANCH  19  22
ENDBRANCH   1  18
TORSDOF 9
ENDMDL
MODEL 6
REMARK VINA RESULT:      -6.1     15.079     17.317
REMARK  9 active torsions:
REMARK  status: ('A' for Active; 'I' for Inactive)
REMARK    1  A    between atoms: O_2  and  C_12 
REMARK    2  A    between atoms: O_2  and  P_3 
REMARK    3  A    between atoms: P_3  and  O_8 
REMARK    4  A    between atoms: C_4  and  C_6 
REMARK    5  A    between atoms: C_6  and  C_16 
REMARK    6  A    between atoms: C_6  and  N_19 
REMARK    7  A    between atoms: N_10  and  C_17 
REMARK    8  A    between atoms: C_15  and  C_16 
REMARK    9  A    between atoms: C_17  and  C_18 
REMARK       I    between atoms: C_18  and  N_19 
ROOT
HETATM    1  C           1     -20.992  -7.112  -3.821  0.00  0.00     0.189 C 
ENDROOT
BRANCH   1   2
HETATM    2  C           1     -21.565  -6.811  -2.458  0.00  0.00     0.197 C 
HETATM    3  O           1     -21.135  -7.415  -1.452  0.00  0.00    -0.646 OA
HETATM    4  O           1     -22.470  -5.957  -2.335  0.00  0.00    -0.646 OA
ENDBRANCH   1   2
BRANCH   1   5
HETATM    5  C           1     -22.099  -7.039  -4.865  0.00  0.00     0.074 C 
BRANCH   5   6
HETATM    6  C           1     -21.689  -6.107  -5.963  0.00  0.00    -0.056 A 
HETATM    7  C           1     -20.409  -6.195  -6.512  0.00  0.00     0.010 A 
HETATM    8  C           1     -20.027  -5.327  -7.533  0.00  0.00     0.038 A 
HETATM    9  C           1     -20.925  -4.370  -8.007  0.00  0.00     0.081 A 
HETATM   10  C           1     -22.204  -4.281  -7.459  0.00  0.00     0.038 A 
HETATM   11  C           1     -22.587  -5.150  -6.437  0.00  0.00     0.010 A 
BRANCH   9  12
HETATM   12  O           1     -20.554  -3.526  -9.001  0.00  0.00    -0.247 OA
BRANCH  12  13
HETATM   13  P           1     -20.704  -4.037 -10.526  0.00  0.00     0.411 P 
HETATM   14  O           1     -22.072  -4.560 -10.738  0.00  0.00    -0.624 OA
HETATM   15  O           1     -19.719  -5.110 -10.785  0.00  0.00    -0.624 OA
BRANCH  13  16
HETATM   16  O           1     -20.436  -2.804 -11.535  0.00  0.00    -0.300 OA
HETATM   17  H           1     -19.501  -2.698 -11.547  0.00  0.00     0.223 HD
ENDBRANCH  13  16
ENDBRANCH  12  13
ENDBRANCH   9  12
ENDBRANCH   5   6
ENDBRANCH   1   5
BRANCH   1  18
HETATM   18  N           1     -20.419  -8.445  -3.818  0.00  0.00    -0.344 N 
HETATM   19  C           1     -21.071  -9.471  -4.449  0.00  0.00     0.248 C 
HETATM   20  O           1     -20.846  -9.705  -5.613  0.00  0.00    -0.271 OA
HETATM   21  H           1     -19.538  -8.616  -3.352  0.00  0.00     0.163 HD
BRANCH  19  22
HETATM   22  C           1     -22.069 -10.310  -3.690  0.00  0.00     0.270 C 
HETATM   23  C           1     -21.474 -10.721  -2.350  0.00  0.00     0.050 C 
BRANCH  22  24
HETATM   24  N           1     -22.399 -11.537  -4.487  0.00  0.00    -0.067 N 
HETATM   25  H           1     -21.932 -12.368  -4.058  0.00  0.00     0.275 HD
HETATM   26  H           1     -23.434 -11.683  -4.490  0.00  0.00     0.275 HD
HETATM   27  H           1     -22.061 -11.416  -5.469  0.00  0.00     0.275 HD
ENDBRANCH  22  24
ENDBRANCH  19  22
ENDBRANCH   1  18
TORSDOF 9
ENDMDL
MODEL 7
REMARK VINA RESULT:      -6.0     14.727     17.692
REMARK  9 active torsions:
REMARK  status: ('A' for Active; 'I' for Inactive)
REMARK    1  A    between atoms: O_2  and  C_12 
REMARK    2  A    between atoms: O_2  and  P_3 
REMARK    3  A    between atoms: P_3  and  O_8 
REMARK    4  A    between atoms: C_4  and  C_6 
REMARK    5  A    between atoms: C_6  and  C_16 
REMARK    6  A    between atoms: C_6  and  N_19 
REMARK    7  A    between atoms: N_10  and  C_17 
REMARK    8  A    between atoms: C_15  and  C_16 
REMARK    9  A    between atoms: C_17  and  C_18 
REMARK       I    between atoms: C_18  and  N_19 
ROOT
HETATM    1  C           1     -21.515  -7.625  -4.750  0.00  0.00     0.189 C 
ENDROOT
BRANCH   1   2
HETATM    2  C           1     -20.608  -8.591  -5.472  0.00  0.00     0.197 C 
HETATM    3  O           1     -19.394  -8.326  -5.605  0.00  0.00    -0.646 OA
HETATM    4  O           1     -21.070  -9.656  -5.935  0.00  0.00    -0.646 OA
ENDBRANCH   1   2
BRANCH   1   5
HETATM    5  C           1     -20.814  -6.280  -4.607  0.00  0.00     0.074 C 
BRANCH   5   6
HETATM    6  C           1     -21.043  -5.464  -5.842  0.00  0.00    -0.056 A 
HETATM    7  C           1     -19.968  -4.832  -6.470  0.00  0.00     0.010 A 
HETATM    8  C           1     -20.181  -4.071  -7.619  0.00  0.00     0.038 A 
HETATM    9  C           1     -21.467  -3.944  -8.142  0.00  0.00     0.081 A 
HETATM   10  C           1     -22.542  -4.575  -7.516  0.00  0.00     0.038 A 
HETATM   11  C           1     -22.329  -5.336  -6.366  0.00  0.00     0.010 A 
BRANCH   9  12
HETATM   12  O           1     -21.675  -3.205  -9.260  0.00  0.00    -0.247 OA
BRANCH  12  13
HETATM   13  P           1     -21.546  -3.943 -10.691  0.00  0.00     0.411 P 
HETATM   14  O           1     -22.732  -4.800 -10.913  0.00  0.00    -0.624 OA
HETATM   15  O           1     -20.324  -4.778 -10.707  0.00  0.00    -0.624 OA
BRANCH  13  16
HETATM   16  O           1     -21.456  -2.834 -11.862  0.00  0.00    -0.300 OA
HETATM   17  H           1     -21.803  -3.258 -12.627  0.00  0.00     0.223 HD
ENDBRANCH  13  16
ENDBRANCH  12  13
ENDBRANCH   9  12
ENDBRANCH   5   6
ENDBRANCH   1   5
BRANCH   1  18
HETATM   18  N           1     -21.827  -8.148  -3.435  0.00  0.00    -0.344 N 
HETATM   19  C           1     -20.831  -8.308  -2.508  0.00  0.00     0.248 C 
HETATM   20  O           1     -20.559  -7.406  -1.752  0.00  0.00    -0.271 OA
HETATM   21  H           1     -22.781  -8.394  -3.201  0.00  0.00     0.163 HD
BRANCH  19  22
HETATM   22  C           1     -20.075  -9.612  -2.430  0.00  0.00     0.270 C 
HETATM   23  C           1     -20.284 -10.240  -1.059  0.00  0.00     0.050 C 
BRANCH  22  24
HETATM   24  N           1     -18.614  -9.355  -2.645  0.00  0.00    -0.067 N 
HETATM   25  H           1     -18.071  -9.726  -1.833  0.00  0.00     0.275 HD
HETATM   26  H           1     -18.301  -9.834  -3.520  0.00  0.00     0.275 HD
HETATM   27  H           1     -18.450  -8.326  -2.733  0.00  0.00     0.275 HD
ENDBRANCH  22  24
ENDBRANCH  19  22
ENDBRANCH   1  18
TORSDOF 9
ENDMDL
MODEL 8
REMARK VINA RESULT:      -5.9     16.842     19.436
REMARK  9 active torsions:
REMARK  status: ('A' for Active; 'I' for Inactive)
REMARK    1  A    between atoms: O_2  and  C_12 
REMARK    2  A    between atoms: O_2  and  P_3 
REMARK    3  A    between atoms: P_3  and  O_8 
REMARK    4  A    between atoms: C_4  and  C_6 
REMARK    5  A    between atoms: C_6  and  C_16 
REMARK    6  A    between atoms: C_6  and  N_19 
REMARK    7  A    between atoms: N_10  and  C_17 
REMARK    8  A    between atoms: C_15  and  C_16 
REMARK    9  A    between atoms: C_17  and  C_18 
REMARK       I    between atoms: C_18  and  N_19 
ROOT
HETATM    1  C           1     -20.647  -9.813  -1.217  0.00  0.00     0.189 C 
ENDROOT
BRANCH   1   2
HETATM    2  C           1     -21.113  -9.849   0.218  0.00  0.00     0.197 C 
HETATM    3  O           1     -21.399 -10.942   0.754  0.00  0.00    -0.646 OA
HETATM    4  O           1     -21.210  -8.788   0.871  0.00  0.00    -0.646 OA
ENDBRANCH   1   2
BRANCH   1   5
HETATM    5  C           1     -21.835  -9.532  -2.129  0.00  0.00     0.074 C 
BRANCH   5   6
HETATM    6  C           1     -21.515  -8.374  -3.024  0.00  0.00    -0.056 A 
HETATM    7  C           1     -21.574  -7.072  -2.527  0.00  0.00     0.010 A 
HETATM    8  C           1     -21.277  -5.994  -3.361  0.00  0.00     0.038 A 
HETATM    9  C           1     -20.919  -6.219  -4.690  0.00  0.00     0.081 A 
HETATM   10  C           1     -20.860  -7.520  -5.186  0.00  0.00     0.038 A 
HETATM   11  C           1     -21.157  -8.599  -4.353  0.00  0.00     0.010 A 
BRANCH   9  12
HETATM   12  O           1     -20.629  -5.171  -5.500  0.00  0.00    -0.247 OA
BRANCH  12  13
HETATM   13  P           1     -21.667  -4.820  -6.687  0.00  0.00     0.411 P 
HETATM   14  O           1     -23.044  -5.141  -6.249  0.00  0.00    -0.624 OA
HETATM   15  O           1     -21.332  -5.619  -7.886  0.00  0.00    -0.624 OA
BRANCH  13  16
HETATM   16  O           1     -21.567  -3.248  -7.041  0.00  0.00    -0.300 OA
HETATM   17  H           1     -20.673  -3.013  -6.861  0.00  0.00     0.223 HD
ENDBRANCH  13  16
ENDBRANCH  12  13
ENDBRANCH   9  12
ENDBRANCH   5   6
ENDBRANCH   1   5
BRANCH   1  18
HETATM   18  N           1     -20.063 -11.093  -1.567  0.00  0.00    -0.344 N 
HETATM   19  C           1     -18.703 -11.221  -1.664  0.00  0.00     0.248 C 
HETATM   20  O           1     -18.054 -11.531  -0.693  0.00  0.00    -0.271 OA
HETATM   21  H           1     -20.660 -11.892  -1.738  0.00  0.00     0.163 HD
BRANCH  19  22
HETATM   22  C           1     -18.014 -10.973  -2.984  0.00  0.00     0.270 C 
HETATM   23  C           1     -17.701  -9.489  -3.124  0.00  0.00     0.050 C 
BRANCH  22  24
HETATM   24  N           1     -18.913 -11.401  -4.105  0.00  0.00    -0.067 N 
HETATM   25  H           1     -18.714 -12.397  -4.351  0.00  0.00     0.275 HD
HETATM   26  H           1     -19.911 -11.311  -3.805  0.00  0.00     0.275 HD
HETATM   27  H           1     -18.744 -10.795  -4.939  0.00  0.00     0.275 HD
ENDBRANCH  22  24
ENDBRANCH  19  22
ENDBRANCH   1  18
TORSDOF 9
ENDMDL
MODEL 9
REMARK VINA RESULT:      -5.8     16.442     18.925
REMARK  9 active torsions:
REMARK  status: ('A' for Active; 'I' for Inactive)
REMARK    1  A    between atoms: O_2  and  C_12 
REMARK    2  A    between atoms: O_2  and  P_3 
REMARK    3  A    between atoms: P_3  and  O_8 
REMARK    4  A    between atoms: C_4  and  C_6 
REMARK    5  A    between atoms: C_6  and  C_16 
REMARK    6  A    between atoms: C_6  and  N_19 
REMARK    7  A    between atoms: N_10  and  C_17 
REMARK    8  A    between atoms: C_15  and  C_16 
REMARK    9  A    between atoms: C_17  and  C_18 
REMARK       I    between atoms: C_18  and  N_19 
ROOT
HETATM    1  C           1     -21.322  -9.365  -0.611  0.00  0.00     0.189 C 
ENDROOT
BRANCH   1   2
HETATM    2  C           1     -20.877  -9.741   0.781  0.00  0.00     0.197 C 
HETATM    3  O           1     -20.997  -8.921   1.718  0.00  0.00    -0.646 OA
HETATM    4  O           1     -20.390 -10.871   0.998  0.00  0.00    -0.646 OA
ENDBRANCH   1   2
BRANCH   1   5
HETATM    5  C           1     -20.955  -7.912  -0.886  0.00  0.00     0.074 C 
BRANCH   5   6
HETATM    6  C           1     -20.998  -7.657  -2.361  0.00  0.00    -0.056 A 
HETATM    7  C           1     -20.142  -8.355  -3.215  0.00  0.00     0.010 A 
HETATM    8  C           1     -20.181  -8.117  -4.588  0.00  0.00     0.038 A 
HETATM    9  C           1     -21.076  -7.183  -5.109  0.00  0.00     0.081 A 
HETATM   10  C           1     -21.931  -6.485  -4.256  0.00  0.00     0.038 A 
HETATM   11  C           1     -21.893  -6.723  -2.882  0.00  0.00     0.010 A 
BRANCH   9  12
HETATM   12  O           1     -21.115  -6.952  -6.444  0.00  0.00    -0.247 OA
BRANCH  12  13
HETATM   13  P           1     -20.720  -5.477  -6.970  0.00  0.00     0.411 P 
HETATM   14  O           1     -20.088  -5.582  -8.305  0.00  0.00    -0.624 OA
HETATM   15  O           1     -19.770  -4.854  -6.022  0.00  0.00    -0.624 OA
BRANCH  13  16
HETATM   16  O           1     -22.051  -4.569  -7.075  0.00  0.00    -0.300 OA
HETATM   17  H           1     -22.012  -4.176  -7.930  0.00  0.00     0.223 HD
ENDBRANCH  13  16
ENDBRANCH  12  13
ENDBRANCH   9  12
ENDBRANCH   5   6
ENDBRANCH   1   5
BRANCH   1  18
HETATM   18  N           1     -22.759  -9.528  -0.718  0.00  0.00    -0.344 N 
HETATM   19  C           1     -23.305 -10.784  -0.749  0.00  0.00     0.248 C 
HETATM   20  O           1     -23.624 -11.329   0.281  0.00  0.00    -0.271 OA
HETATM   21  H           1     -23.358  -8.714  -0.769  0.00  0.00     0.163 HD
BRANCH  19  22
HETATM   22  C           1     -23.507 -11.486  -2.069  0.00  0.00     0.270 C 
HETATM   23  C           1     -23.086 -12.944  -1.939  0.00  0.00     0.050 C 
BRANCH  22  24
HETATM   24  N           1     -22.676 -10.818  -3.123  0.00  0.00    -0.067 N 
HETATM   25  H           1     -23.274 -10.164  -3.676  0.00  0.00     0.275 HD
HETATM   26  H           1     -21.903 -10.281  -2.668  0.00  0.00     0.275 HD
HETATM   27  H           1     -22.271 -11.543  -3.758  0.00  0.00     0.275 HD
ENDBRANCH  22  24
ENDBRANCH  19  22
ENDBRANCH   1  18
TORSDOF 9
ENDMDL
