MODEL 1
REMARK VINA RESULT:      -6.4      0.000      0.000
REMARK  7 active torsions:
REMARK  status: ('A' for Active; 'I' for Inactive)
REMARK    1  A    between atoms: C_1  and  O_8 
REMARK    2  A    between atoms: C_1  and  C_15 
REMARK    3  A    between atoms: C_6  and  C_19 
REMARK    4  A    between atoms: N_10  and  C_19 
REMARK    5  A    between atoms: N_14  and  C_15 
REMARK       I    between atoms: N_14  and  C_18 
REMARK    6  A    between atoms: C_15  and  C_16 
REMARK    7  A    between atoms: C_18  and  C_19 
ROOT
HETATM    1  O           1     -36.649  -1.208 -12.593  0.00  0.00    -0.271 OA
HETATM    2  H           1     -33.995  -0.698 -14.185  0.00  0.00     0.163 HD
HETATM    3  N           1     -34.990  -0.705 -14.000  0.00  0.00    -0.343 N 
HETATM    4  C           1     -35.462  -1.198 -12.814  0.00  0.00     0.249 C 
ENDROOT
BRANCH   4   5
HETATM    5  C           1     -34.499  -1.728 -11.780  0.00  0.00     0.278 C 
BRANCH   5   6
HETATM    6  C           1     -34.347  -3.233 -11.951  0.00  0.00     0.017 C 
HETATM    7  C           1     -32.920  -3.642 -11.615  0.00  0.00     0.012 C 
HETATM    8  C           1     -35.313  -3.950 -11.017  0.00  0.00     0.012 C 
ENDBRANCH   5   6
BRANCH   5   9
HETATM    9  N           1     -35.025  -1.432 -10.407  0.00  0.00    -0.066 N 
HETATM   10  H           1     -34.825  -0.436 -10.163  0.00  0.00     0.275 HD
HETATM   11  H           1     -36.057  -1.595 -10.389  0.00  0.00     0.275 HD
HETATM   12  H           1     -34.560  -2.061  -9.713  0.00  0.00     0.275 HD
ENDBRANCH   5   9
ENDBRANCH   4   5
BRANCH   3  13
HETATM   13  C           1     -35.915  -0.196 -14.993  0.00  0.00     0.209 C 
BRANCH  13  14
HETATM   14  C           1     -35.547   1.239 -15.342  0.00  0.00     0.200 C 
BRANCH  14  15
HETATM   15  O           1     -36.612   1.844 -16.024  0.00  0.00    -0.398 OA
HETATM   16  H           1     -36.670   1.426 -16.866  0.00  0.00     0.209 HD
ENDBRANCH  14  15
ENDBRANCH  13  14
BRANCH  13  17
HETATM   17  C           1     -35.841  -1.051 -16.235  0.00  0.00     0.198 C 
HETATM   18  O           1     -36.582  -0.804 -17.210  0.00  0.00    -0.646 OA
HETATM   19  O           1     -35.039  -2.010 -16.287  0.00  0.00    -0.646 OA
ENDBRANCH  13  17
ENDBRANCH   3  13
TORSDOF 7
ENDMDL
MODEL 2
REMARK VINA RESULT:      -5.9     12.892     14.729
REMARK  7 active torsions:
REMARK  status: ('A' for Active; 'I' for Inactive)
REMARK    1  A    between atoms: C_1  and  O_8 
REMARK    2  A    between atoms: C_1  and  C_15 
REMARK    3  A    between atoms: C_6  and  C_19 
REMARK    4  A    between atoms: N_10  and  C_19 
REMARK    5  A    between atoms: N_14  and  C_15 
REMARK       I    between atoms: N_14  and  C_18 
REMARK    6  A    between atoms: C_15  and  C_16 
REMARK    7  A    between atoms: C_18  and  C_19 
ROOT
HETATM    1  O           1     -20.852  -3.764  -8.160  0.00  0.00    -0.271 OA
HETATM    2  H           1     -22.819  -5.945  -9.259  0.00  0.00     0.163 HD
HETATM    3  N           1     -22.345  -5.052  -9.205  0.00  0.00    -0.343 N 
HETATM    4  C           1     -21.417  -4.828  -8.224  0.00  0.00     0.249 C 
ENDROOT
BRANCH   4   5
HETATM    5  C           1     -21.100  -5.913  -7.225  0.00  0.00     0.278 C 
BRANCH   5   6
HETATM    6  C           1     -21.488  -5.447  -5.828  0.00  0.00     0.017 C 
HETATM    7  C           1     -22.101  -6.608  -5.057  0.00  0.00     0.012 C 
HETATM    8  C           1     -20.249  -4.950  -5.096  0.00  0.00     0.012 C 
ENDBRANCH   5   6
BRANCH   5   9
HETATM    9  N           1     -19.630  -6.212  -7.260  0.00  0.00    -0.066 N 
HETATM   10  H           1     -19.211  -5.804  -8.126  0.00  0.00     0.275 HD
HETATM   11  H           1     -19.171  -5.791  -6.420  0.00  0.00     0.275 HD
HETATM   12  H           1     -19.485  -7.246  -7.255  0.00  0.00     0.275 HD
ENDBRANCH   5   9
ENDBRANCH   4   5
BRANCH   3  13
HETATM   13  C           1     -22.651  -4.010 -10.166  0.00  0.00     0.209 C 
BRANCH  13  14
HETATM   14  C           1     -22.056  -4.376 -11.519  0.00  0.00     0.200 C 
BRANCH  14  15
HETATM   15  O           1     -23.082  -4.760 -12.394  0.00  0.00    -0.398 OA
HETATM   16  H           1     -23.844  -4.928 -11.864  0.00  0.00     0.209 HD
ENDBRANCH  14  15
ENDBRANCH  13  14
BRANCH  13  17
HETATM   17  C           1     -24.147  -3.868 -10.295  0.00  0.00     0.198 C 
HETATM   18  O           1     -24.635  -2.852 -10.836  0.00  0.00    -0.646 OA
HETATM   19  O           1     -24.901  -4.766  -9.859  0.00  0.00    -0.646 OA
ENDBRANCH  13  17
ENDBRANCH   3  13
TORSDOF 7
ENDMDL
MODEL 3
REMARK VINA RESULT:      -5.3     25.318     26.134
REMARK  7 active torsions:
REMARK  status: ('A' for Active; 'I' for Inactive)
REMARK    1  A    between atoms: C_1  and  O_8 
REMARK    2  A    between atoms: C_1  and  C_15 
REMARK    3  A    between atoms: C_6  and  C_19 
REMARK    4  A    between atoms: N_10  and  C_19 
REMARK    5  A    between atoms: N_14  and  C_15 
REMARK       I    between atoms: N_14  and  C_18 
REMARK    6  A    between atoms: C_15  and  C_16 
REMARK    7  A    between atoms: C_18  and  C_19 
ROOT
HETATM    1  O           1     -13.231   6.808 -21.095  0.00  0.00    -0.271 OA
HETATM    2  H           1     -10.710   6.054 -19.389  0.00  0.00     0.163 HD
HETATM    3  N           1     -11.313   6.625 -19.967  0.00  0.00    -0.343 N 
HETATM    4  C           1     -12.511   6.128 -20.406  0.00  0.00     0.249 C 
ENDROOT
BRANCH   4   5
HETATM    5  C           1     -12.932   4.730 -20.024  0.00  0.00     0.278 C 
BRANCH   5   6
HETATM    6  C           1     -12.309   3.731 -20.990  0.00  0.00     0.017 C 
HETATM    7  C           1     -11.187   2.978 -20.289  0.00  0.00     0.012 C 
HETATM    8  C           1     -13.372   2.742 -21.452  0.00  0.00     0.012 C 
ENDBRANCH   5   6
BRANCH   5   9
HETATM    9  N           1     -14.427   4.622 -20.090  0.00  0.00    -0.066 N 
HETATM   10  H           1     -14.697   3.633 -20.289  0.00  0.00     0.275 HD
HETATM   11  H           1     -14.837   4.918 -19.175  0.00  0.00     0.275 HD
HETATM   12  H           1     -14.788   5.242 -20.850  0.00  0.00     0.275 HD
ENDBRANCH   5   9
ENDBRANCH   4   5
BRANCH   3  13
HETATM   13  C           1     -10.908   7.968 -20.333  0.00  0.00     0.209 C 
BRANCH  13  14
HETATM   14  C           1     -11.135   8.906 -19.155  0.00  0.00     0.200 C 
BRANCH  14  15
HETATM   15  O           1     -10.085   8.769 -18.237  0.00  0.00    -0.398 OA
HETATM   16  H           1     -10.455   8.893 -17.379  0.00  0.00     0.209 HD
ENDBRANCH  14  15
ENDBRANCH  13  14
BRANCH  13  17
HETATM   17  C           1      -9.445   7.969 -20.702  0.00  0.00     0.198 C 
HETATM   18  O           1      -8.773   6.920 -20.600  0.00  0.00    -0.646 OA
HETATM   19  O           1      -8.903   9.021 -21.109  0.00  0.00    -0.646 OA
ENDBRANCH  13  17
ENDBRANCH   3  13
TORSDOF 7
ENDMDL
MODEL 4
REMARK VINA RESULT:      -5.3     12.629     14.411
REMARK  7 active torsions:
REMARK  status: ('A' for Active; 'I' for Inactive)
REMARK    1  A    between atoms: C_1  and  O_8 
REMARK    2  A    between atoms: C_1  and  C_15 
REMARK    3  A    between atoms: C_6  and  C_19 
REMARK    4  A    between atoms: N_10  and  C_19 
REMARK    5  A    between atoms: N_14  and  C_15 
REMARK       I    between atoms: N_14  and  C_18 
REMARK    6  A    between atoms: C_15  and  C_16 
REMARK    7  A    between atoms: C_18  and  C_19 
ROOT
HETATM    1  O           1     -23.648  -4.438  -7.326  0.00  0.00    -0.271 OA
HETATM    2  H           1     -21.371  -4.705  -9.466  0.00  0.00     0.163 HD
HETATM    3  N           1     -22.313  -4.615  -9.106  0.00  0.00    -0.343 N 
HETATM    4  C           1     -22.526  -4.545  -7.756  0.00  0.00     0.249 C 
ENDROOT
BRANCH   4   5
HETATM    5  C           1     -21.355  -4.599  -6.805  0.00  0.00     0.278 C 
BRANCH   5   6
HETATM    6  C           1     -20.191  -5.319  -7.472  0.00  0.00     0.017 C 
HETATM    7  C           1     -19.013  -4.364  -7.608  0.00  0.00     0.012 C 
HETATM    8  C           1     -19.779  -6.514  -6.622  0.00  0.00     0.012 C 
ENDBRANCH   5   6
BRANCH   5   9
HETATM    9  N           1     -21.753  -5.339  -5.562  0.00  0.00    -0.066 N 
HETATM   10  H           1     -21.565  -4.743  -4.725  0.00  0.00     0.275 HD
HETATM   11  H           1     -22.773  -5.566  -5.605  0.00  0.00     0.275 HD
HETATM   12  H           1     -21.202  -6.224  -5.492  0.00  0.00     0.275 HD
ENDBRANCH   5   9
ENDBRANCH   4   5
BRANCH   3  13
HETATM   13  C           1     -23.437  -4.564 -10.021  0.00  0.00     0.209 C 
BRANCH  13  14
HETATM   14  C           1     -24.191  -3.255  -9.825  0.00  0.00     0.200 C 
BRANCH  14  15
HETATM   15  O           1     -25.212  -3.156 -10.780  0.00  0.00    -0.398 OA
HETATM   16  H           1     -25.977  -3.559 -10.405  0.00  0.00     0.209 HD
ENDBRANCH  14  15
ENDBRANCH  13  14
BRANCH  13  17
HETATM   17  C           1     -22.934  -4.648 -11.441  0.00  0.00     0.198 C 
HETATM   18  O           1     -23.745  -4.762 -12.385  0.00  0.00    -0.646 OA
HETATM   19  O           1     -21.706  -4.606 -11.673  0.00  0.00    -0.646 OA
ENDBRANCH  13  17
ENDBRANCH   3  13
TORSDOF 7
ENDMDL
MODEL 5
REMARK VINA RESULT:      -5.3      2.597      5.550
REMARK  7 active torsions:
REMARK  status: ('A' for Active; 'I' for Inactive)
REMARK    1  A    between atoms: C_1  and  O_8 
REMARK    2  A    between atoms: C_1  and  C_15 
REMARK    3  A    between atoms: C_6  and  C_19 
REMARK    4  A    between atoms: N_10  and  C_19 
REMARK    5  A    between atoms: N_14  and  C_15 
REMARK       I    between atoms: N_14  and  C_18 
REMARK    6  A    between atoms: C_15  and  C_16 
REMARK    7  A    between atoms: C_18  and  C_19 
ROOT
HETATM    1  O           1     -34.874  -2.354 -14.229  0.00  0.00    -0.271 OA
HETATM    2  H           1     -35.104  -1.946 -11.127  0.00  0.00     0.163 HD
HETATM    3  N           1     -34.889  -2.417 -11.997  0.00  0.00    -0.343 N 
HETATM    4  C           1     -35.131  -1.793 -13.191  0.00  0.00     0.249 C 
ENDROOT
BRANCH   4   5
HETATM    5  C           1     -35.717  -0.403 -13.210  0.00  0.00     0.278 C 
BRANCH   5   6
HETATM    6  C           1     -35.237   0.334 -14.454  0.00  0.00     0.017 C 
HETATM    7  C           1     -36.419   0.591 -15.379  0.00  0.00     0.012 C 
HETATM    8  C           1     -34.613   1.662 -14.048  0.00  0.00     0.012 C 
ENDBRANCH   5   6
BRANCH   5   9
HETATM    9  N           1     -35.274   0.344 -11.987  0.00  0.00    -0.066 N 
HETATM   10  H           1     -34.619   1.110 -12.263  0.00  0.00     0.275 HD
HETATM   11  H           1     -36.109   0.755 -11.510  0.00  0.00     0.275 HD
HETATM   12  H           1     -34.788  -0.312 -11.335  0.00  0.00     0.275 HD
ENDBRANCH   5   9
ENDBRANCH   4   5
BRANCH   3  13
HETATM   13  C           1     -34.326  -3.753 -11.978  0.00  0.00     0.209 C 
BRANCH  13  14
HETATM   14  C           1     -32.845  -3.675 -11.633  0.00  0.00     0.200 C 
BRANCH  14  15
HETATM   15  O           1     -32.167  -4.746 -12.233  0.00  0.00    -0.398 OA
HETATM   16  H           1     -31.922  -5.336 -11.540  0.00  0.00     0.209 HD
ENDBRANCH  14  15
ENDBRANCH  13  14
BRANCH  13  17
HETATM   17  C           1     -35.041  -4.586 -10.943  0.00  0.00     0.198 C 
HETATM   18  O           1     -34.475  -5.580 -10.439  0.00  0.00    -0.646 OA
HETATM   19  O           1     -36.202  -4.283 -10.590  0.00  0.00    -0.646 OA
ENDBRANCH  13  17
ENDBRANCH   3  13
TORSDOF 7
ENDMDL
MODEL 6
REMARK VINA RESULT:      -5.1     12.839     14.665
REMARK  7 active torsions:
REMARK  status: ('A' for Active; 'I' for Inactive)
REMARK    1  A    between atoms: C_1  and  O_8 
REMARK    2  A    between atoms: C_1  and  C_15 
REMARK    3  A    between atoms: C_6  and  C_19 
REMARK    4  A    between atoms: N_10  and  C_19 
REMARK    5  A    between atoms: N_14  and  C_15 
REMARK       I    between atoms: N_14  and  C_18 
REMARK    6  A    between atoms: C_15  and  C_16 
REMARK    7  A    between atoms: C_18  and  C_19 
ROOT
HETATM    1  O           1     -21.431  -3.193  -7.541  0.00  0.00    -0.271 OA
HETATM    2  H           1     -22.967  -5.663  -8.716  0.00  0.00     0.163 HD
HETATM    3  N           1     -22.543  -4.744  -8.700  0.00  0.00    -0.343 N 
HETATM    4  C           1     -21.937  -4.289  -7.561  0.00  0.00     0.249 C 
ENDROOT
BRANCH   4   5
HETATM    5  C           1     -21.899  -5.159  -6.328  0.00  0.00     0.278 C 
BRANCH   5   6
HETATM    6  C           1     -21.053  -6.395  -6.604  0.00  0.00     0.017 C 
HETATM    7  C           1     -19.642  -5.969  -6.988  0.00  0.00     0.012 C 
HETATM    8  C           1     -20.998  -7.262  -5.353  0.00  0.00     0.012 C 
ENDBRANCH   5   6
BRANCH   5   9
HETATM    9  N           1     -23.293  -5.580  -5.969  0.00  0.00    -0.066 N 
HETATM   10  H           1     -23.657  -4.967  -5.205  0.00  0.00     0.275 HD
HETATM   11  H           1     -23.909  -5.491  -6.809  0.00  0.00     0.275 HD
HETATM   12  H           1     -23.285  -6.573  -5.646  0.00  0.00     0.275 HD
ENDBRANCH   5   9
ENDBRANCH   4   5
BRANCH   3  13
HETATM   13  C           1     -22.579  -3.909  -9.885  0.00  0.00     0.209 C 
BRANCH  13  14
HETATM   14  C           1     -21.432  -4.289 -10.810  0.00  0.00     0.200 C 
BRANCH  14  15
HETATM   15  O           1     -20.984  -3.150 -11.494  0.00  0.00    -0.398 OA
HETATM   16  H           1     -20.045  -3.141 -11.424  0.00  0.00     0.209 HD
ENDBRANCH  14  15
ENDBRANCH  13  14
BRANCH  13  17
HETATM   17  C           1     -23.892  -4.109 -10.602  0.00  0.00     0.198 C 
HETATM   18  O           1     -23.908  -4.304 -11.836  0.00  0.00    -0.646 OA
HETATM   19  O           1     -24.965  -4.078  -9.960  0.00  0.00    -0.646 OA
ENDBRANCH  13  17
ENDBRANCH   3  13
TORSDOF 7
ENDMDL
MODEL 7
REMARK VINA RESULT:      -5.0     15.456     17.407
REMARK  7 active torsions:
REMARK  status: ('A' for Active; 'I' for Inactive)
REMARK    1  A    between atoms: C_1  and  O_8 
REMARK    2  A    between atoms: C_1  and  C_15 
REMARK    3  A    between atoms: C_6  and  C_19 
REMARK    4  A    between atoms: N_10  and  C_19 
REMARK    5  A    between atoms: N_14  and  C_15 
REMARK       I    between atoms: N_14  and  C_18 
REMARK    6  A    between atoms: C_15  and  C_16 
REMARK    7  A    between atoms: C_18  and  C_19 
ROOT
HETATM    1  O           1     -21.936  -7.644  -4.939  0.00  0.00    -0.271 OA
HETATM    2  H           1     -20.879  -4.699  -4.718  0.00  0.00     0.163 HD
HETATM    3  N           1     -21.232  -5.537  -5.162  0.00  0.00    -0.343 N 
HETATM    4  C           1     -21.514  -6.645  -4.409  0.00  0.00     0.249 C 
ENDROOT
BRANCH   4   5
HETATM    5  C           1     -21.299  -6.616  -2.916  0.00  0.00     0.278 C 
BRANCH   5   6
HETATM    6  C           1     -21.340  -8.036  -2.369  0.00  0.00     0.017 C 
HETATM    7  C           1     -19.921  -8.572  -2.237  0.00  0.00     0.012 C 
HETATM    8  C           1     -22.010  -8.034  -1.001  0.00  0.00     0.012 C 
ENDBRANCH   5   6
BRANCH   5   9
HETATM    9  N           1     -22.380  -5.801  -2.270  0.00  0.00    -0.066 N 
HETATM   10  H           1     -23.305  -6.261  -2.426  0.00  0.00     0.275 HD
HETATM   11  H           1     -22.195  -5.731  -1.244  0.00  0.00     0.275 HD
HETATM   12  H           1     -22.392  -4.844  -2.689  0.00  0.00     0.275 HD
ENDBRANCH   5   9
ENDBRANCH   4   5
BRANCH   3  13
HETATM   13  C           1     -21.439  -5.564  -6.597  0.00  0.00     0.209 C 
BRANCH  13  14
HETATM   14  C           1     -22.557  -4.599  -6.968  0.00  0.00     0.200 C 
BRANCH  14  15
HETATM   15  O           1     -22.005  -3.375  -7.371  0.00  0.00    -0.398 OA
HETATM   16  H           1     -22.379  -2.711  -6.815  0.00  0.00     0.209 HD
ENDBRANCH  14  15
ENDBRANCH  13  14
BRANCH  13  17
HETATM   17  C           1     -20.167  -5.154  -7.297  0.00  0.00     0.198 C 
HETATM   18  O           1     -20.049  -5.319  -8.530  0.00  0.00    -0.646 OA
HETATM   19  O           1     -19.228  -4.650  -6.642  0.00  0.00    -0.646 OA
ENDBRANCH  13  17
ENDBRANCH   3  13
TORSDOF 7
ENDMDL
MODEL 8
REMARK VINA RESULT:      -4.9     25.119     25.958
REMARK  7 active torsions:
REMARK  status: ('A' for Active; 'I' for Inactive)
REMARK    1  A    between atoms: C_1  and  O_8 
REMARK    2  A    between atoms: C_1  and  C_15 
REMARK    3  A    between atoms: C_6  and  C_19 
REMARK    4  A    between atoms: N_10  and  C_19 
REMARK    5  A    between atoms: N_14  and  C_15 
REMARK       I    between atoms: N_14  and  C_18 
REMARK    6  A    between atoms: C_15  and  C_16 
REMARK    7  A    between atoms: C_18  and  C_19 
ROOT
HETATM    1  O           1     -13.310   6.469 -19.767  0.00  0.00    -0.271 OA
HETATM    2  H           1     -10.812   7.377 -21.432  0.00  0.00     0.163 HD
HETATM    3  N           1     -11.556   7.440 -20.749  0.00  0.00    -0.343 N 
HETATM    4  C           1     -12.423   6.394 -20.581  0.00  0.00     0.249 C 
ENDROOT
BRANCH   4   5
HETATM    5  C           1     -12.267   5.145 -21.414  0.00  0.00     0.278 C 
BRANCH   5   6
HETATM    6  C           1     -12.511   3.920 -20.542  0.00  0.00     0.017 C 
HETATM    7  C           1     -13.344   2.906 -21.313  0.00  0.00     0.012 C 
HETATM    8  C           1     -11.175   3.294 -20.162  0.00  0.00     0.012 C 
ENDBRANCH   5   6
BRANCH   5   9
HETATM    9  N           1     -10.877   5.088 -21.976  0.00  0.00    -0.066 N 
HETATM   10  H           1     -10.610   6.030 -22.343  0.00  0.00     0.275 HD
HETATM   11  H           1     -10.210   4.806 -21.223  0.00  0.00     0.275 HD
HETATM   12  H           1     -10.844   4.389 -22.752  0.00  0.00     0.275 HD
ENDBRANCH   5   9
ENDBRANCH   4   5
BRANCH   3  13
HETATM   13  C           1     -11.706   8.640 -19.950  0.00  0.00     0.209 C 
BRANCH  13  14
HETATM   14  C           1     -10.342   9.081 -19.435  0.00  0.00     0.200 C 
BRANCH  14  15
HETATM   15  O           1     -10.235   8.777 -18.071  0.00  0.00    -0.398 OA
HETATM   16  H           1     -10.982   8.246 -17.850  0.00  0.00     0.209 HD
ENDBRANCH  14  15
ENDBRANCH  13  14
BRANCH  13  17
HETATM   17  C           1     -12.303   9.738 -20.796  0.00  0.00     0.198 C 
HETATM   18  O           1     -13.539   9.790 -20.971  0.00  0.00    -0.646 OA
HETATM   19  O           1     -11.561  10.594 -21.324  0.00  0.00    -0.646 OA
ENDBRANCH  13  17
ENDBRANCH   3  13
TORSDOF 7
ENDMDL
MODEL 9
REMARK VINA RESULT:      -4.8      3.130      5.296
REMARK  7 active torsions:
REMARK  status: ('A' for Active; 'I' for Inactive)
REMARK    1  A    between atoms: C_1  and  O_8 
REMARK    2  A    between atoms: C_1  and  C_15 
REMARK    3  A    between atoms: C_6  and  C_19 
REMARK    4  A    between atoms: N_10  and  C_19 
REMARK    5  A    between atoms: N_14  and  C_15 
REMARK       I    between atoms: N_14  and  C_18 
REMARK    6  A    between atoms: C_15  and  C_16 
REMARK    7  A    between atoms: C_18  and  C_19 
ROOT
HETATM    1  O           1     -34.842  -1.825 -13.551  0.00  0.00    -0.271 OA
HETATM    2  H           1     -34.973  -3.002 -10.647  0.00  0.00     0.163 HD
HETATM    3  N           1     -34.790  -2.981 -11.642  0.00  0.00    -0.343 N 
HETATM    4  C           1     -35.060  -1.850 -12.365  0.00  0.00     0.249 C 
ENDROOT
BRANCH   4   5
HETATM    5  C           1     -35.628  -0.634 -11.676  0.00  0.00     0.278 C 
BRANCH   5   6
HETATM    6  C           1     -36.804  -1.048 -10.802  0.00  0.00     0.017 C 
HETATM    7  C           1     -36.546  -0.618  -9.364  0.00  0.00     0.012 C 
HETATM    8  C           1     -38.075  -0.378 -11.310  0.00  0.00     0.012 C 
ENDBRANCH   5   6
BRANCH   5   9
HETATM    9  N           1     -36.094   0.353 -12.705  0.00  0.00    -0.066 N 
HETATM   10  H           1     -36.560  -0.156 -13.491  0.00  0.00     0.275 HD
HETATM   11  H           1     -36.775   1.015 -12.268  0.00  0.00     0.275 HD
HETATM   12  H           1     -35.275   0.887 -13.072  0.00  0.00     0.275 HD
ENDBRANCH   5   9
ENDBRANCH   4   5
BRANCH   3  13
HETATM   13  C           1     -34.244  -4.151 -12.304  0.00  0.00     0.209 C 
BRANCH  13  14
HETATM   14  C           1     -32.738  -4.198 -12.089  0.00  0.00     0.200 C 
BRANCH  14  15
HETATM   15  O           1     -32.362  -5.489 -11.693  0.00  0.00    -0.398 OA
HETATM   16  H           1     -32.073  -5.427 -10.798  0.00  0.00     0.209 HD
ENDBRANCH  14  15
ENDBRANCH  13  14
BRANCH  13  17
HETATM   17  C           1     -34.875  -5.395 -11.728  0.00  0.00     0.198 C 
HETATM   18  O           1     -35.307  -6.287 -12.489  0.00  0.00    -0.646 OA
HETATM   19  O           1     -34.967  -5.532 -10.488  0.00  0.00    -0.646 OA
ENDBRANCH  13  17
ENDBRANCH   3  13
TORSDOF 7
ENDMDL
