MODEL 1
REMARK VINA RESULT:      -7.1      0.000      0.000
REMARK  11 active torsions:
REMARK  status: ('A' for Active; 'I' for Inactive)
REMARK    1  A    between atoms: O_3  and  P_4 
REMARK    2  A    between atoms: P_4  and  O_5 
REMARK    3  A    between atoms: O_5  and  C_6 
REMARK    4  A    between atoms: C_9  and  C_10 
REMARK    5  A    between atoms: C_10  and  C_11 
REMARK    6  A    between atoms: C_11  and  C_12 
REMARK    7  A    between atoms: C_11  and  N_24 
REMARK       I    between atoms: C_12  and  N_13 
REMARK    8  A    between atoms: N_13  and  C_17 
REMARK    9  A    between atoms: C_16  and  C_17 
REMARK   10  A    between atoms: C_17  and  C_18 
REMARK   11  A    between atoms: C_18  and  O_19 
ROOT
HETATM    1  C           1     -21.171  -5.567  -6.818  0.00  0.00     0.278 C 
ENDROOT
BRANCH   1   2
HETATM    2  C           1     -22.280  -5.803  -5.800  0.00  0.00     0.081 C 
BRANCH   2   3
HETATM    3  C           1     -21.775  -6.700  -4.713  0.00  0.00    -0.056 A 
HETATM    4  C           1     -21.534  -8.049  -4.976  0.00  0.00     0.010 A 
HETATM    5  C           1     -21.063  -8.885  -3.964  0.00  0.00     0.038 A 
HETATM    6  C           1     -20.833  -8.371  -2.687  0.00  0.00     0.081 A 
HETATM    7  C           1     -21.073  -7.023  -2.423  0.00  0.00     0.038 A 
HETATM    8  C           1     -21.544  -6.187  -3.437  0.00  0.00     0.010 A 
BRANCH   6   9
HETATM    9  O           1     -20.376  -9.183  -1.703  0.00  0.00    -0.247 OA
BRANCH   9  10
HETATM   10  P           1     -21.368  -9.518  -0.474  0.00  0.00     0.411 P 
HETATM   11  O           1     -22.758  -9.613  -0.975  0.00  0.00    -0.624 OA
HETATM   12  O           1     -20.976 -10.806   0.140  0.00  0.00    -0.624 OA
BRANCH  10  13
HETATM   13  O           1     -21.274  -8.344   0.631  0.00  0.00    -0.300 OA
HETATM   14  H           1     -21.419  -7.547   0.152  0.00  0.00     0.223 HD
ENDBRANCH  10  13
ENDBRANCH   9  10
ENDBRANCH   6   9
ENDBRANCH   2   3
ENDBRANCH   1   2
BRANCH   1  15
HETATM   15  C           1     -21.605  -4.502  -7.795  0.00  0.00     0.249 C 
HETATM   16  N           1     -22.157  -4.859  -8.996  0.00  0.00    -0.343 N 
HETATM   17  H           1     -22.274  -5.837  -9.228  0.00  0.00     0.163 HD
HETATM   18  O           1     -21.466  -3.335  -7.518  0.00  0.00    -0.271 OA
BRANCH  16  19
HETATM   19  C           1     -22.575  -3.835  -9.936  0.00  0.00     0.209 C 
BRANCH  19  20
HETATM   20  C           1     -24.061  -3.947 -10.172  0.00  0.00     0.198 C 
HETATM   21  O           1     -24.693  -2.977 -10.645  0.00  0.00    -0.646 OA
HETATM   22  O           1     -24.660  -5.008  -9.894  0.00  0.00    -0.646 OA
ENDBRANCH  19  20
BRANCH  19  23
HETATM   23  C           1     -21.836  -4.025 -11.253  0.00  0.00     0.200 C 
BRANCH  23  24
HETATM   24  O           1     -22.724  -4.511 -12.223  0.00  0.00    -0.398 OA
HETATM   25  H           1     -23.480  -3.949 -12.209  0.00  0.00     0.209 HD
ENDBRANCH  23  24
ENDBRANCH  19  23
ENDBRANCH  16  19
ENDBRANCH   1  15
BRANCH   1  26
HETATM   26  N           1     -19.930  -5.117  -6.109  0.00  0.00    -0.066 N 
HETATM   27  H           1     -20.174  -4.803  -5.142  0.00  0.00     0.275 HD
HETATM   28  H           1     -19.252  -5.911  -6.055  0.00  0.00     0.275 HD
HETATM   29  H           1     -19.496  -4.323  -6.632  0.00  0.00     0.275 HD
ENDBRANCH   1  26
TORSDOF 11
ENDMDL
MODEL 2
REMARK VINA RESULT:      -7.0     13.696     15.436
REMARK  11 active torsions:
REMARK  status: ('A' for Active; 'I' for Inactive)
REMARK    1  A    between atoms: O_3  and  P_4 
REMARK    2  A    between atoms: P_4  and  O_5 
REMARK    3  A    between atoms: O_5  and  C_6 
REMARK    4  A    between atoms: C_9  and  C_10 
REMARK    5  A    between atoms: C_10  and  C_11 
REMARK    6  A    between atoms: C_11  and  C_12 
REMARK    7  A    between atoms: C_11  and  N_24 
REMARK       I    between atoms: C_12  and  N_13 
REMARK    8  A    between atoms: N_13  and  C_17 
REMARK    9  A    between atoms: C_16  and  C_17 
REMARK   10  A    between atoms: C_17  and  C_18 
REMARK   11  A    between atoms: C_18  and  O_19 
ROOT
HETATM    1  C           1     -33.703  -4.812 -15.459  0.00  0.00     0.278 C 
ENDROOT
BRANCH   1   2
HETATM    2  C           1     -33.182  -3.968 -16.616  0.00  0.00     0.081 C 
BRANCH   2   3
HETATM    3  C           1     -31.859  -4.503 -17.067  0.00  0.00    -0.056 A 
HETATM    4  C           1     -30.909  -3.644 -17.620  0.00  0.00     0.010 A 
HETATM    5  C           1     -29.676  -4.143 -18.040  0.00  0.00     0.038 A 
HETATM    6  C           1     -29.393  -5.502 -17.907  0.00  0.00     0.081 A 
HETATM    7  C           1     -30.342  -6.362 -17.354  0.00  0.00     0.038 A 
HETATM    8  C           1     -31.575  -5.862 -16.934  0.00  0.00     0.010 A 
BRANCH   6   9
HETATM    9  O           1     -28.195  -5.987 -18.315  0.00  0.00    -0.247 OA
BRANCH   9  10
HETATM   10  P           1     -27.014  -6.108 -17.220  0.00  0.00     0.411 P 
HETATM   11  O           1     -25.733  -6.389 -17.906  0.00  0.00    -0.624 OA
HETATM   12  O           1     -26.904  -4.836 -16.471  0.00  0.00    -0.624 OA
BRANCH  10  13
HETATM   13  O           1     -27.350  -7.309 -16.194  0.00  0.00    -0.300 OA
HETATM   14  H           1     -27.070  -6.995 -15.352  0.00  0.00     0.223 HD
ENDBRANCH  10  13
ENDBRANCH   9  10
ENDBRANCH   6   9
ENDBRANCH   2   3
ENDBRANCH   1   2
BRANCH   1  15
HETATM   15  C           1     -34.220  -3.906 -14.369  0.00  0.00     0.249 C 
HETATM   16  N           1     -34.218  -4.331 -13.068  0.00  0.00    -0.343 N 
HETATM   17  H           1     -33.870  -5.253 -12.838  0.00  0.00     0.163 HD
HETATM   18  O           1     -34.636  -2.805 -14.643  0.00  0.00    -0.271 OA
BRANCH  16  19
HETATM   19  C           1     -34.715  -3.461 -12.019  0.00  0.00     0.209 C 
BRANCH  19  20
HETATM   20  C           1     -33.557  -2.740 -11.374  0.00  0.00     0.198 C 
HETATM   21  O           1     -32.424  -3.270 -11.353  0.00  0.00    -0.646 OA
HETATM   22  O           1     -33.729  -1.613 -10.862  0.00  0.00    -0.646 OA
ENDBRANCH  19  20
BRANCH  19  23
HETATM   23  C           1     -35.441  -4.293 -10.970  0.00  0.00     0.200 C 
BRANCH  23  24
HETATM   24  O           1     -34.571  -5.267 -10.461  0.00  0.00    -0.398 OA
HETATM   25  H           1     -34.007  -5.528 -11.169  0.00  0.00     0.209 HD
ENDBRANCH  23  24
ENDBRANCH  19  23
ENDBRANCH  16  19
ENDBRANCH   1  15
BRANCH   1  26
HETATM   26  N           1     -34.815  -5.692 -15.946  0.00  0.00    -0.066 N 
HETATM   27  H           1     -34.915  -6.514 -15.308  0.00  0.00     0.275 HD
HETATM   28  H           1     -35.709  -5.150 -15.956  0.00  0.00     0.275 HD
HETATM   29  H           1     -34.598  -6.027 -16.912  0.00  0.00     0.275 HD
ENDBRANCH   1  26
TORSDOF 11
ENDMDL
MODEL 3
REMARK VINA RESULT:      -6.9     12.305     14.422
REMARK  11 active torsions:
REMARK  status: ('A' for Active; 'I' for Inactive)
REMARK    1  A    between atoms: O_3  and  P_4 
REMARK    2  A    between atoms: P_4  and  O_5 
REMARK    3  A    between atoms: O_5  and  C_6 
REMARK    4  A    between atoms: C_9  and  C_10 
REMARK    5  A    between atoms: C_10  and  C_11 
REMARK    6  A    between atoms: C_11  and  C_12 
REMARK    7  A    between atoms: C_11  and  N_24 
REMARK       I    between atoms: C_12  and  N_13 
REMARK    8  A    between atoms: N_13  and  C_17 
REMARK    9  A    between atoms: C_16  and  C_17 
REMARK   10  A    between atoms: C_17  and  C_18 
REMARK   11  A    between atoms: C_18  and  O_19 
ROOT
HETATM    1  C           1     -32.732  -4.327 -17.015  0.00  0.00     0.278 C 
ENDROOT
BRANCH   1   2
HETATM    2  C           1     -32.114  -5.708 -16.834  0.00  0.00     0.081 C 
BRANCH   2   3
HETATM    3  C           1     -30.623  -5.583 -16.779  0.00  0.00    -0.056 A 
HETATM    4  C           1     -29.869  -5.699 -17.947  0.00  0.00     0.010 A 
HETATM    5  C           1     -28.480  -5.583 -17.896  0.00  0.00     0.038 A 
HETATM    6  C           1     -27.845  -5.350 -16.677  0.00  0.00     0.081 A 
HETATM    7  C           1     -28.597  -5.233 -15.509  0.00  0.00     0.038 A 
HETATM    8  C           1     -29.988  -5.350 -15.560  0.00  0.00     0.010 A 
BRANCH   6   9
HETATM    9  O           1     -26.495  -5.237 -16.627  0.00  0.00    -0.247 OA
BRANCH   9  10
HETATM   10  P           1     -25.652  -6.479 -16.031  0.00  0.00     0.411 P 
HETATM   11  O           1     -26.582  -7.554 -15.621  0.00  0.00    -0.624 OA
HETATM   12  O           1     -24.730  -6.992 -17.068  0.00  0.00    -0.624 OA
BRANCH  10  13
HETATM   13  O           1     -24.800  -5.987 -14.750  0.00  0.00    -0.300 OA
HETATM   14  H           1     -25.444  -5.763 -14.100  0.00  0.00     0.223 HD
ENDBRANCH  10  13
ENDBRANCH   9  10
ENDBRANCH   6   9
ENDBRANCH   2   3
ENDBRANCH   1   2
BRANCH   1  15
HETATM   15  C           1     -33.545  -3.975 -15.793  0.00  0.00     0.249 C 
HETATM   16  N           1     -33.163  -4.434 -14.562  0.00  0.00    -0.343 N 
HETATM   17  H           1     -32.336  -5.010 -14.471  0.00  0.00     0.163 HD
HETATM   18  O           1     -34.532  -3.289 -15.902  0.00  0.00    -0.271 OA
BRANCH  16  19
HETATM   19  C           1     -33.944  -4.097 -13.387  0.00  0.00     0.209 C 
BRANCH  19  20
HETATM   20  C           1     -33.018  -3.862 -12.219  0.00  0.00     0.198 C 
HETATM   21  O           1     -33.331  -3.041 -11.328  0.00  0.00    -0.646 OA
HETATM   22  O           1     -31.938  -4.486 -12.142  0.00  0.00    -0.646 OA
ENDBRANCH  19  20
BRANCH  19  23
HETATM   23  C           1     -34.892  -5.243 -13.061  0.00  0.00     0.200 C 
BRANCH  23  24
HETATM   24  O           1     -34.378  -5.984 -11.988  0.00  0.00    -0.398 OA
HETATM   25  H           1     -33.757  -5.431 -11.545  0.00  0.00     0.209 HD
ENDBRANCH  23  24
ENDBRANCH  19  23
ENDBRANCH  16  19
ENDBRANCH   1  15
BRANCH   1  26
HETATM   26  N           1     -31.642  -3.313 -17.198  0.00  0.00    -0.066 N 
HETATM   27  H           1     -31.757  -2.840 -18.123  0.00  0.00     0.275 HD
HETATM   28  H           1     -31.698  -2.601 -16.435  0.00  0.00     0.275 HD
HETATM   29  H           1     -30.713  -3.789 -17.164  0.00  0.00     0.275 HD
ENDBRANCH   1  26
TORSDOF 11
ENDMDL
MODEL 4
REMARK VINA RESULT:      -6.9      3.380      8.512
REMARK  11 active torsions:
REMARK  status: ('A' for Active; 'I' for Inactive)
REMARK    1  A    between atoms: O_3  and  P_4 
REMARK    2  A    between atoms: P_4  and  O_5 
REMARK    3  A    between atoms: O_5  and  C_6 
REMARK    4  A    between atoms: C_9  and  C_10 
REMARK    5  A    between atoms: C_10  and  C_11 
REMARK    6  A    between atoms: C_11  and  C_12 
REMARK    7  A    between atoms: C_11  and  N_24 
REMARK       I    between atoms: C_12  and  N_13 
REMARK    8  A    between atoms: N_13  and  C_17 
REMARK    9  A    between atoms: C_16  and  C_17 
REMARK   10  A    between atoms: C_17  and  C_18 
REMARK   11  A    between atoms: C_18  and  O_19 
ROOT
HETATM    1  C           1     -21.323  -6.109  -4.929  0.00  0.00     0.278 C 
ENDROOT
BRANCH   1   2
HETATM    2  C           1     -20.332  -5.170  -5.604  0.00  0.00     0.081 C 
BRANCH   2   3
HETATM    3  C           1     -20.858  -4.772  -6.948  0.00  0.00    -0.056 A 
HETATM    4  C           1     -20.044  -4.876  -8.076  0.00  0.00     0.010 A 
HETATM    5  C           1     -20.535  -4.505  -9.328  0.00  0.00     0.038 A 
HETATM    6  C           1     -21.841  -4.030  -9.451  0.00  0.00     0.081 A 
HETATM    7  C           1     -22.655  -3.926  -8.324  0.00  0.00     0.038 A 
HETATM    8  C           1     -22.164  -4.297  -7.072  0.00  0.00     0.010 A 
BRANCH   6   9
HETATM    9  O           1     -22.318  -3.669 -10.667  0.00  0.00    -0.247 OA
BRANCH   9  10
HETATM   10  P           1     -23.710  -4.324 -11.159  0.00  0.00     0.411 P 
HETATM   11  O           1     -24.008  -5.521 -10.342  0.00  0.00    -0.624 OA
HETATM   12  O           1     -24.801  -3.336 -11.005  0.00  0.00    -0.624 OA
BRANCH  10  13
HETATM   13  O           1     -23.586  -4.750 -12.713  0.00  0.00    -0.300 OA
HETATM   14  H           1     -24.462  -4.978 -12.972  0.00  0.00     0.223 HD
ENDBRANCH  10  13
ENDBRANCH   9  10
ENDBRANCH   6   9
ENDBRANCH   2   3
ENDBRANCH   1   2
BRANCH   1  15
HETATM   15  C           1     -20.877  -7.538  -5.126  0.00  0.00     0.249 C 
HETATM   16  N           1     -20.108  -8.152  -4.174  0.00  0.00    -0.343 N 
HETATM   17  H           1     -19.839  -7.648  -3.339  0.00  0.00     0.163 HD
HETATM   18  O           1     -21.199  -8.140  -6.122  0.00  0.00    -0.271 OA
BRANCH  16  19
HETATM   19  C           1     -19.680  -9.525  -4.362  0.00  0.00     0.209 C 
BRANCH  19  20
HETATM   20  C           1     -19.740 -10.254  -3.042  0.00  0.00     0.198 C 
HETATM   21  O           1     -19.614  -9.620  -1.971  0.00  0.00    -0.646 OA
HETATM   22  O           1     -19.914 -11.491  -3.019  0.00  0.00    -0.646 OA
ENDBRANCH  19  20
BRANCH  19  23
HETATM   23  C           1     -18.251  -9.543  -4.887  0.00  0.00     0.200 C 
BRANCH  23  24
HETATM   24  O           1     -18.262  -9.370  -6.279  0.00  0.00    -0.398 OA
HETATM   25  H           1     -18.605  -8.509  -6.445  0.00  0.00     0.209 HD
ENDBRANCH  23  24
ENDBRANCH  19  23
ENDBRANCH  16  19
ENDBRANCH   1  15
BRANCH   1  26
HETATM   26  N           1     -21.382  -5.803  -3.463  0.00  0.00    -0.066 N 
HETATM   27  H           1     -22.377  -5.673  -3.172  0.00  0.00     0.275 HD
HETATM   28  H           1     -20.963  -6.595  -2.925  0.00  0.00     0.275 HD
HETATM   29  H           1     -20.846  -4.926  -3.268  0.00  0.00     0.275 HD
ENDBRANCH   1  26
TORSDOF 11
ENDMDL
MODEL 5
REMARK VINA RESULT:      -6.8      3.682      8.259
REMARK  11 active torsions:
REMARK  status: ('A' for Active; 'I' for Inactive)
REMARK    1  A    between atoms: O_3  and  P_4 
REMARK    2  A    between atoms: P_4  and  O_5 
REMARK    3  A    between atoms: O_5  and  C_6 
REMARK    4  A    between atoms: C_9  and  C_10 
REMARK    5  A    between atoms: C_10  and  C_11 
REMARK    6  A    between atoms: C_11  and  C_12 
REMARK    7  A    between atoms: C_11  and  N_24 
REMARK       I    between atoms: C_12  and  N_13 
REMARK    8  A    between atoms: N_13  and  C_17 
REMARK    9  A    between atoms: C_16  and  C_17 
REMARK   10  A    between atoms: C_17  and  C_18 
REMARK   11  A    between atoms: C_18  and  O_19 
ROOT
HETATM    1  C           1     -21.417  -6.637  -4.940  0.00  0.00     0.278 C 
ENDROOT
BRANCH   1   2
HETATM    2  C           1     -20.411  -5.652  -5.520  0.00  0.00     0.081 C 
BRANCH   2   3
HETATM    3  C           1     -20.929  -5.116  -6.819  0.00  0.00    -0.056 A 
HETATM    4  C           1     -20.142  -5.189  -7.968  0.00  0.00     0.010 A 
HETATM    5  C           1     -20.625  -4.691  -9.178  0.00  0.00     0.038 A 
HETATM    6  C           1     -21.896  -4.119  -9.238  0.00  0.00     0.081 A 
HETATM    7  C           1     -22.683  -4.046  -8.090  0.00  0.00     0.038 A 
HETATM    8  C           1     -22.200  -4.545  -6.880  0.00  0.00     0.010 A 
BRANCH   6   9
HETATM    9  O           1     -22.365  -3.635 -10.414  0.00  0.00    -0.247 OA
BRANCH   9  10
HETATM   10  P           1     -23.703  -4.300 -11.027  0.00  0.00     0.411 P 
HETATM   11  O           1     -24.021  -5.541 -10.286  0.00  0.00    -0.624 OA
HETATM   12  O           1     -24.829  -3.348 -10.900  0.00  0.00    -0.624 OA
BRANCH  10  13
HETATM   13  O           1     -23.467  -4.649 -12.586  0.00  0.00    -0.300 OA
HETATM   14  H           1     -22.836  -4.017 -12.884  0.00  0.00     0.223 HD
ENDBRANCH  10  13
ENDBRANCH   9  10
ENDBRANCH   6   9
ENDBRANCH   2   3
ENDBRANCH   1   2
BRANCH   1  15
HETATM   15  C           1     -20.720  -7.935  -4.615  0.00  0.00     0.249 C 
HETATM   16  N           1     -20.449  -8.835  -5.610  0.00  0.00    -0.343 N 
HETATM   17  H           1     -20.716  -8.629  -6.564  0.00  0.00     0.163 HD
HETATM   18  O           1     -20.400  -8.181  -3.476  0.00  0.00    -0.271 OA
BRANCH  16  19
HETATM   19  C           1     -19.778 -10.083  -5.298  0.00  0.00     0.209 C 
BRANCH  19  20
HETATM   20  C           1     -18.616 -10.277  -6.240  0.00  0.00     0.198 C 
HETATM   21  O           1     -18.535 -11.320  -6.926  0.00  0.00    -0.646 OA
HETATM   22  O           1     -17.734  -9.397  -6.335  0.00  0.00    -0.646 OA
ENDBRANCH  19  20
BRANCH  19  23
HETATM   23  C           1     -20.757 -11.238  -5.455  0.00  0.00     0.200 C 
BRANCH  23  24
HETATM   24  O           1     -21.357 -11.175  -6.720  0.00  0.00    -0.398 OA
HETATM   25  H           1     -21.669 -10.294  -6.832  0.00  0.00     0.209 HD
ENDBRANCH  23  24
ENDBRANCH  19  23
ENDBRANCH  16  19
ENDBRANCH   1  15
BRANCH   1  26
HETATM   26  N           1     -22.013  -6.064  -3.690  0.00  0.00    -0.066 N 
HETATM   27  H           1     -21.689  -5.077  -3.569  0.00  0.00     0.275 HD
HETATM   28  H           1     -23.056  -6.081  -3.761  0.00  0.00     0.275 HD
HETATM   29  H           1     -21.710  -6.631  -2.866  0.00  0.00     0.275 HD
ENDBRANCH   1  26
TORSDOF 11
ENDMDL
MODEL 6
REMARK VINA RESULT:      -6.5      3.169      8.726
REMARK  11 active torsions:
REMARK  status: ('A' for Active; 'I' for Inactive)
REMARK    1  A    between atoms: O_3  and  P_4 
REMARK    2  A    between atoms: P_4  and  O_5 
REMARK    3  A    between atoms: O_5  and  C_6 
REMARK    4  A    between atoms: C_9  and  C_10 
REMARK    5  A    between atoms: C_10  and  C_11 
REMARK    6  A    between atoms: C_11  and  C_12 
REMARK    7  A    between atoms: C_11  and  N_24 
REMARK       I    between atoms: C_12  and  N_13 
REMARK    8  A    between atoms: N_13  and  C_17 
REMARK    9  A    between atoms: C_16  and  C_17 
REMARK   10  A    between atoms: C_17  and  C_18 
REMARK   11  A    between atoms: C_18  and  O_19 
ROOT
HETATM    1  C           1     -20.342  -7.527  -5.113  0.00  0.00     0.278 C 
ENDROOT
BRANCH   1   2
HETATM    2  C           1     -20.767  -6.073  -4.948  0.00  0.00     0.081 C 
BRANCH   2   3
HETATM    3  C           1     -20.949  -5.450  -6.297  0.00  0.00    -0.056 A 
HETATM    4  C           1     -19.943  -5.557  -7.258  0.00  0.00     0.010 A 
HETATM    5  C           1     -20.114  -4.977  -8.515  0.00  0.00     0.038 A 
HETATM    6  C           1     -21.291  -4.291  -8.811  0.00  0.00     0.081 A 
HETATM    7  C           1     -22.298  -4.185  -7.853  0.00  0.00     0.038 A 
HETATM    8  C           1     -22.127  -4.765  -6.595  0.00  0.00     0.010 A 
BRANCH   6   9
HETATM    9  O           1     -21.457  -3.728 -10.033  0.00  0.00    -0.247 OA
BRANCH   9  10
HETATM   10  P           1     -22.779  -4.119 -10.874  0.00  0.00     0.411 P 
HETATM   11  O           1     -23.385  -5.341 -10.301  0.00  0.00    -0.624 OA
HETATM   12  O           1     -23.753  -3.007 -10.808  0.00  0.00    -0.624 OA
BRANCH  10  13
HETATM   13  O           1     -22.377  -4.391 -12.416  0.00  0.00    -0.300 OA
HETATM   14  H           1     -22.532  -3.572 -12.855  0.00  0.00     0.223 HD
ENDBRANCH  10  13
ENDBRANCH   9  10
ENDBRANCH   6   9
ENDBRANCH   2   3
ENDBRANCH   1   2
BRANCH   1  15
HETATM   15  C           1     -20.288  -8.192  -3.760  0.00  0.00     0.249 C 
HETATM   16  N           1     -21.348  -8.082  -2.901  0.00  0.00    -0.343 N 
HETATM   17  H           1     -22.167  -7.554  -3.174  0.00  0.00     0.163 HD
HETATM   18  O           1     -19.311  -8.822  -3.434  0.00  0.00    -0.271 OA
BRANCH  16  19
HETATM   19  C           1     -21.298  -8.722  -1.600  0.00  0.00     0.209 C 
BRANCH  19  20
HETATM   20  C           1     -22.337  -9.814  -1.537  0.00  0.00     0.198 C 
HETATM   21  O           1     -23.056  -9.935  -0.521  0.00  0.00    -0.646 OA
HETATM   22  O           1     -22.479 -10.598  -2.500  0.00  0.00    -0.646 OA
ENDBRANCH  19  20
BRANCH  19  23
HETATM   23  C           1     -21.580  -7.690  -0.516  0.00  0.00     0.200 C 
BRANCH  23  24
HETATM   24  O           1     -22.749  -6.985  -0.834  0.00  0.00    -0.398 OA
HETATM   25  H           1     -22.573  -6.506  -1.626  0.00  0.00     0.209 HD
ENDBRANCH  23  24
ENDBRANCH  19  23
ENDBRANCH  16  19
ENDBRANCH   1  15
BRANCH   1  26
HETATM   26  N           1     -21.334  -8.241  -5.981  0.00  0.00    -0.066 N 
HETATM   27  H           1     -21.468  -7.708  -6.870  0.00  0.00     0.275 HD
HETATM   28  H           1     -20.978  -9.199  -6.201  0.00  0.00     0.275 HD
HETATM   29  H           1     -22.248  -8.314  -5.479  0.00  0.00     0.275 HD
ENDBRANCH   1  26
TORSDOF 11
ENDMDL
MODEL 7
REMARK VINA RESULT:      -6.3     12.501     14.663
REMARK  11 active torsions:
REMARK  status: ('A' for Active; 'I' for Inactive)
REMARK    1  A    between atoms: O_3  and  P_4 
REMARK    2  A    between atoms: P_4  and  O_5 
REMARK    3  A    between atoms: O_5  and  C_6 
REMARK    4  A    between atoms: C_9  and  C_10 
REMARK    5  A    between atoms: C_10  and  C_11 
REMARK    6  A    between atoms: C_11  and  C_12 
REMARK    7  A    between atoms: C_11  and  N_24 
REMARK       I    between atoms: C_12  and  N_13 
REMARK    8  A    between atoms: N_13  and  C_17 
REMARK    9  A    between atoms: C_16  and  C_17 
REMARK   10  A    between atoms: C_17  and  C_18 
REMARK   11  A    between atoms: C_18  and  O_19 
ROOT
HETATM    1  C           1     -33.036  -4.686 -16.881  0.00  0.00     0.278 C 
ENDROOT
BRANCH   1   2
HETATM    2  C           1     -32.322  -6.018 -17.074  0.00  0.00     0.081 C 
BRANCH   2   3
HETATM    3  C           1     -30.844  -5.814 -16.952  0.00  0.00    -0.056 A 
HETATM    4  C           1     -30.030  -5.916 -18.080  0.00  0.00     0.010 A 
HETATM    5  C           1     -28.653  -5.724 -17.966  0.00  0.00     0.038 A 
HETATM    6  C           1     -28.090  -5.431 -16.724  0.00  0.00     0.081 A 
HETATM    7  C           1     -28.904  -5.328 -15.596  0.00  0.00     0.038 A 
HETATM    8  C           1     -30.282  -5.519 -15.710  0.00  0.00     0.010 A 
BRANCH   6   9
HETATM    9  O           1     -26.753  -5.245 -16.613  0.00  0.00    -0.247 OA
BRANCH   9  10
HETATM   10  P           1     -25.862  -6.468 -16.048  0.00  0.00     0.411 P 
HETATM   11  O           1     -24.990  -5.979 -14.956  0.00  0.00    -0.624 OA
HETATM   12  O           1     -26.753  -7.529 -15.530  0.00  0.00    -0.624 OA
BRANCH  10  13
HETATM   13  O           1     -24.949  -7.066 -17.239  0.00  0.00    -0.300 OA
HETATM   14  H           1     -25.384  -7.857 -17.505  0.00  0.00     0.223 HD
ENDBRANCH  10  13
ENDBRANCH   9  10
ENDBRANCH   6   9
ENDBRANCH   2   3
ENDBRANCH   1   2
BRANCH   1  15
HETATM   15  C           1     -33.777  -4.699 -15.565  0.00  0.00     0.249 C 
HETATM   16  N           1     -33.216  -4.120 -14.459  0.00  0.00    -0.343 N 
HETATM   17  H           1     -32.305  -3.685 -14.523  0.00  0.00     0.163 HD
HETATM   18  O           1     -34.865  -5.218 -15.489  0.00  0.00    -0.271 OA
BRANCH  16  19
HETATM   19  C           1     -33.928  -4.132 -13.195  0.00  0.00     0.209 C 
BRANCH  19  20
HETATM   20  C           1     -34.795  -2.901 -13.096  0.00  0.00     0.198 C 
HETATM   21  O           1     -35.613  -2.787 -12.157  0.00  0.00    -0.646 OA
HETATM   22  O           1     -34.696  -1.996 -13.952  0.00  0.00    -0.646 OA
ENDBRANCH  19  20
BRANCH  19  23
HETATM   23  C           1     -32.926  -4.140 -12.049  0.00  0.00     0.200 C 
BRANCH  23  24
HETATM   24  O           1     -33.001  -2.926 -11.352  0.00  0.00    -0.398 OA
HETATM   25  H           1     -33.912  -2.690 -11.310  0.00  0.00     0.209 HD
ENDBRANCH  23  24
ENDBRANCH  19  23
ENDBRANCH  16  19
ENDBRANCH   1  15
BRANCH   1  26
HETATM   26  N           1     -32.028  -3.576 -16.875  0.00  0.00    -0.066 N 
HETATM   27  H           1     -31.207  -3.847 -17.462  0.00  0.00     0.275 HD
HETATM   28  H           1     -32.463  -2.709 -17.264  0.00  0.00     0.275 HD
HETATM   29  H           1     -31.711  -3.398 -15.895  0.00  0.00     0.275 HD
ENDBRANCH   1  26
TORSDOF 11
ENDMDL
MODEL 8
REMARK VINA RESULT:      -6.3     13.944     15.921
REMARK  11 active torsions:
REMARK  status: ('A' for Active; 'I' for Inactive)
REMARK    1  A    between atoms: O_3  and  P_4 
REMARK    2  A    between atoms: P_4  and  O_5 
REMARK    3  A    between atoms: O_5  and  C_6 
REMARK    4  A    between atoms: C_9  and  C_10 
REMARK    5  A    between atoms: C_10  and  C_11 
REMARK    6  A    between atoms: C_11  and  C_12 
REMARK    7  A    between atoms: C_11  and  N_24 
REMARK       I    between atoms: C_12  and  N_13 
REMARK    8  A    between atoms: N_13  and  C_17 
REMARK    9  A    between atoms: C_16  and  C_17 
REMARK   10  A    between atoms: C_17  and  C_18 
REMARK   11  A    between atoms: C_18  and  O_19 
ROOT
HETATM    1  C           1     -32.759  -4.532 -16.692  0.00  0.00     0.278 C 
ENDROOT
BRANCH   1   2
HETATM    2  C           1     -31.342  -4.624 -16.140  0.00  0.00     0.081 C 
BRANCH   2   3
HETATM    3  C           1     -30.468  -5.334 -17.126  0.00  0.00    -0.056 A 
HETATM    4  C           1     -30.537  -6.722 -17.248  0.00  0.00     0.010 A 
HETATM    5  C           1     -29.723  -7.383 -18.167  0.00  0.00     0.038 A 
HETATM    6  C           1     -28.840  -6.656 -18.965  0.00  0.00     0.081 A 
HETATM    7  C           1     -28.770  -5.269 -18.844  0.00  0.00     0.038 A 
HETATM    8  C           1     -29.585  -4.607 -17.924  0.00  0.00     0.010 A 
BRANCH   6   9
HETATM    9  O           1     -28.049  -7.299 -19.858  0.00  0.00    -0.247 OA
BRANCH   9  10
HETATM   10  P           1     -26.508  -6.829 -19.982  0.00  0.00     0.411 P 
HETATM   11  O           1     -25.718  -7.896 -20.635  0.00  0.00    -0.624 OA
HETATM   12  O           1     -26.433  -5.593 -20.792  0.00  0.00    -0.624 OA
BRANCH  10  13
HETATM   13  O           1     -25.911  -6.544 -18.508  0.00  0.00    -0.300 OA
HETATM   14  H           1     -26.391  -5.798 -18.192  0.00  0.00     0.223 HD
ENDBRANCH  10  13
ENDBRANCH   9  10
ENDBRANCH   6   9
ENDBRANCH   2   3
ENDBRANCH   1   2
BRANCH   1  15
HETATM   15  C           1     -33.743  -4.488 -15.548  0.00  0.00     0.249 C 
HETATM   16  N           1     -33.327  -4.102 -14.302  0.00  0.00    -0.343 N 
HETATM   17  H           1     -32.360  -3.847 -14.149  0.00  0.00     0.163 HD
HETATM   18  O           1     -34.897  -4.792 -15.732  0.00  0.00    -0.271 OA
BRANCH  16  19
HETATM   19  C           1     -34.272  -4.059 -13.203  0.00  0.00     0.209 C 
BRANCH  19  20
HETATM   20  C           1     -34.518  -2.623 -12.808  0.00  0.00     0.198 C 
HETATM   21  O           1     -35.089  -1.845 -13.604  0.00  0.00    -0.646 OA
HETATM   22  O           1     -34.151  -2.212 -11.687  0.00  0.00    -0.646 OA
ENDBRANCH  19  20
BRANCH  19  23
HETATM   23  C           1     -33.703  -4.822 -12.014  0.00  0.00     0.200 C 
BRANCH  23  24
HETATM   24  O           1     -32.303  -4.828 -12.089  0.00  0.00    -0.398 OA
HETATM   25  H           1     -32.068  -4.353 -12.868  0.00  0.00     0.209 HD
ENDBRANCH  23  24
ENDBRANCH  19  23
ENDBRANCH  16  19
ENDBRANCH   1  15
BRANCH   1  26
HETATM   26  N           1     -32.894  -3.285 -17.514  0.00  0.00    -0.066 N 
HETATM   27  H           1     -33.805  -2.820 -17.297  0.00  0.00     0.275 HD
HETATM   28  H           1     -32.109  -2.633 -17.288  0.00  0.00     0.275 HD
HETATM   29  H           1     -32.863  -3.531 -18.529  0.00  0.00     0.275 HD
ENDBRANCH   1  26
TORSDOF 11
ENDMDL
MODEL 9
REMARK VINA RESULT:      -6.1     13.813     15.720
REMARK  11 active torsions:
REMARK  status: ('A' for Active; 'I' for Inactive)
REMARK    1  A    between atoms: O_3  and  P_4 
REMARK    2  A    between atoms: P_4  and  O_5 
REMARK    3  A    between atoms: O_5  and  C_6 
REMARK    4  A    between atoms: C_9  and  C_10 
REMARK    5  A    between atoms: C_10  and  C_11 
REMARK    6  A    between atoms: C_11  and  C_12 
REMARK    7  A    between atoms: C_11  and  N_24 
REMARK       I    between atoms: C_12  and  N_13 
REMARK    8  A    between atoms: N_13  and  C_17 
REMARK    9  A    between atoms: C_16  and  C_17 
REMARK   10  A    between atoms: C_17  and  C_18 
REMARK   11  A    between atoms: C_18  and  O_19 
ROOT
HETATM    1  C           1     -28.305  -6.598 -19.357  0.00  0.00     0.278 C 
ENDROOT
BRANCH   1   2
HETATM    2  C           1     -28.348  -6.119 -17.912  0.00  0.00     0.081 C 
BRANCH   2   3
HETATM    3  C           1     -29.652  -5.431 -17.653  0.00  0.00    -0.056 A 
HETATM    4  C           1     -30.767  -6.172 -17.262  0.00  0.00     0.010 A 
HETATM    5  C           1     -31.981  -5.531 -17.019  0.00  0.00     0.038 A 
HETATM    6  C           1     -32.081  -4.148 -17.168  0.00  0.00     0.081 A 
HETATM    7  C           1     -30.967  -3.406 -17.558  0.00  0.00     0.038 A 
HETATM    8  C           1     -29.751  -4.048 -17.800  0.00  0.00     0.010 A 
BRANCH   6   9
HETATM    9  O           1     -33.261  -3.525 -16.933  0.00  0.00    -0.247 OA
BRANCH   9  10
HETATM   10  P           1     -34.038  -3.868 -15.559  0.00  0.00     0.411 P 
HETATM   11  O           1     -33.054  -4.221 -14.511  0.00  0.00    -0.624 OA
HETATM   12  O           1     -34.817  -2.687 -15.125  0.00  0.00    -0.624 OA
BRANCH  10  13
HETATM   13  O           1     -35.038  -5.113 -15.800  0.00  0.00    -0.300 OA
HETATM   14  H           1     -35.039  -5.247 -16.732  0.00  0.00     0.223 HD
ENDBRANCH  10  13
ENDBRANCH   9  10
ENDBRANCH   6   9
ENDBRANCH   2   3
ENDBRANCH   1   2
BRANCH   1  15
HETATM   15  C           1     -26.916  -6.399 -19.913  0.00  0.00     0.249 C 
HETATM   16  N           1     -25.864  -7.103 -19.394  0.00  0.00    -0.343 N 
HETATM   17  H           1     -26.017  -7.757 -18.637  0.00  0.00     0.163 HD
HETATM   18  O           1     -26.733  -5.618 -20.816  0.00  0.00    -0.271 OA
BRANCH  16  19
HETATM   19  C           1     -24.529  -6.912 -19.928  0.00  0.00     0.209 C 
BRANCH  19  20
HETATM   20  C           1     -24.242  -7.977 -20.957  0.00  0.00     0.198 C 
HETATM   21  O           1     -25.164  -8.404 -21.688  0.00  0.00    -0.646 OA
HETATM   22  O           1     -23.086  -8.434 -21.079  0.00  0.00    -0.646 OA
ENDBRANCH  19  20
BRANCH  19  23
HETATM   23  C           1     -23.512  -7.010 -18.799  0.00  0.00     0.200 C 
BRANCH  23  24
HETATM   24  O           1     -24.158  -6.822 -17.569  0.00  0.00    -0.398 OA
HETATM   25  H           1     -23.559  -6.351 -17.014  0.00  0.00     0.209 HD
ENDBRANCH  23  24
ENDBRANCH  19  23
ENDBRANCH  16  19
ENDBRANCH   1  15
BRANCH   1  26
HETATM   26  N           1     -28.659  -8.054 -19.410  0.00  0.00    -0.066 N 
HETATM   27  H           1     -29.687  -8.159 -19.565  0.00  0.00     0.275 HD
HETATM   28  H           1     -28.142  -8.510 -20.196  0.00  0.00     0.275 HD
HETATM   29  H           1     -28.395  -8.511 -18.508  0.00  0.00     0.275 HD
ENDBRANCH   1  26
TORSDOF 11
ENDMDL
