MODEL 1
REMARK VINA RESULT:      -6.9      0.000      0.000
REMARK  10 active torsions:
REMARK  status: ('A' for Active; 'I' for Inactive)
REMARK    1  A    between atoms: C_2  and  C_4 
REMARK    2  A    between atoms: C_4  and  C_5 
REMARK    3  A    between atoms: C_5  and  C_6 
REMARK    4  A    between atoms: C_5  and  N_9 
REMARK       I    between atoms: N_9  and  C_10 
REMARK    5  A    between atoms: C_10  and  C_11 
REMARK    6  A    between atoms: C_11  and  C_12 
REMARK    7  A    between atoms: C_11  and  N_19 
REMARK    8  A    between atoms: C_12  and  C_13 
REMARK    9  A    between atoms: C_13  and  C_14 
REMARK   10  A    between atoms: C_14  and  N_15 
REMARK       I    between atoms: N_15  and  C_16 
REMARK       I    between atoms: C_16  and  N_17 
ROOT
HETATM    1  C           1     -33.757  -3.776 -12.366  0.00  0.00     0.274 C 
ENDROOT
BRANCH   1   2
HETATM    2  C           1     -34.216  -2.431 -11.858  0.00  0.00     0.249 C 
HETATM    3  N           1     -35.352  -1.858 -12.365  0.00  0.00    -0.345 N 
HETATM    4  H           1     -35.883  -2.337 -13.082  0.00  0.00     0.163 HD
HETATM    5  O           1     -33.583  -1.861 -11.002  0.00  0.00    -0.271 OA
BRANCH   3   6
HETATM    6  C           1     -35.793  -0.567 -11.876  0.00  0.00     0.185 C 
BRANCH   6   7
HETATM    7  C           1     -36.511   0.179 -12.993  0.00  0.00     0.040 C 
BRANCH   7   8
HETATM    8  C           1     -35.688   0.095 -14.272  0.00  0.00    -0.020 C 
HETATM    9  C           1     -36.583   0.377 -15.471  0.00  0.00     0.009 C 
HETATM   10  C           1     -34.566   1.123 -14.222  0.00  0.00     0.009 C 
ENDBRANCH   7   8
ENDBRANCH   6   7
BRANCH   6  11
HETATM   11  C           1     -36.735  -0.765 -10.715  0.00  0.00     0.196 C 
HETATM   12  O           1     -37.879  -1.229 -10.910  0.00  0.00    -0.646 OA
HETATM   13  O           1     -36.372  -0.464  -9.556  0.00  0.00    -0.646 OA
ENDBRANCH   6  11
ENDBRANCH   3   6
ENDBRANCH   1   2
BRANCH   1  14
HETATM   14  C           1     -34.709  -4.857 -11.874  0.00  0.00     0.044 C 
BRANCH  14  15
HETATM   15  C           1     -34.259  -5.346 -10.503  0.00  0.00     0.023 C 
BRANCH  15  16
HETATM   16  C           1     -35.003  -6.627 -10.152  0.00  0.00     0.138 C 
BRANCH  16  17
HETATM   17  N           1     -34.330  -7.774 -10.780  0.00  0.00    -0.227 N 
HETATM   18  C           1     -34.022  -8.786 -10.085  0.00  0.00     0.665 C 
HETATM   19  N           1     -33.443  -9.773 -10.626  0.00  0.00    -0.235 N 
HETATM   20  N           1     -34.301  -8.812  -8.815  0.00  0.00    -0.235 N 
HETATM   21  H           1     -33.187 -10.612 -10.050  0.00  0.00     0.174 HD
HETATM   22  H           1     -33.217  -9.751 -11.652  0.00  0.00     0.174 HD
HETATM   23  H           1     -34.046  -9.648  -8.242  0.00  0.00     0.174 HD
HETATM   24  H           1     -34.778  -7.998  -8.369  0.00  0.00     0.174 HD
HETATM   25  H           1     -34.105  -7.752 -11.805  0.00  0.00     0.177 HD
ENDBRANCH  16  17
ENDBRANCH  15  16
ENDBRANCH  14  15
ENDBRANCH   1  14
BRANCH   1  26
HETATM   26  N           1     -32.375  -4.057 -11.855  0.00  0.00    -0.067 N 
HETATM   27  H           1     -31.919  -3.161 -11.573  0.00  0.00     0.275 HD
HETATM   28  H           1     -32.433  -4.694 -11.030  0.00  0.00     0.275 HD
HETATM   29  H           1     -31.811  -4.512 -12.609  0.00  0.00     0.275 HD
ENDBRANCH   1  26
TORSDOF 10
ENDMDL
MODEL 2
REMARK VINA RESULT:      -6.8     12.427     13.982
REMARK  10 active torsions:
REMARK  status: ('A' for Active; 'I' for Inactive)
REMARK    1  A    between atoms: C_2  and  C_4 
REMARK    2  A    between atoms: C_4  and  C_5 
REMARK    3  A    between atoms: C_5  and  C_6 
REMARK    4  A    between atoms: C_5  and  N_9 
REMARK       I    between atoms: N_9  and  C_10 
REMARK    5  A    between atoms: C_10  and  C_11 
REMARK    6  A    between atoms: C_11  and  C_12 
REMARK    7  A    between atoms: C_11  and  N_19 
REMARK    8  A    between atoms: C_12  and  C_13 
REMARK    9  A    between atoms: C_13  and  C_14 
REMARK   10  A    between atoms: C_14  and  N_15 
REMARK       I    between atoms: N_15  and  C_16 
REMARK       I    between atoms: C_16  and  N_17 
ROOT
HETATM    1  C           1     -22.282  -5.062  -6.329  0.00  0.00     0.274 C 
ENDROOT
BRANCH   1   2
HETATM    2  C           1     -22.272  -4.248  -7.600  0.00  0.00     0.249 C 
HETATM    3  N           1     -23.072  -4.609  -8.651  0.00  0.00    -0.345 N 
HETATM    4  H           1     -23.670  -5.423  -8.575  0.00  0.00     0.163 HD
HETATM    5  O           1     -21.559  -3.277  -7.690  0.00  0.00    -0.271 OA
BRANCH   3   6
HETATM    6  C           1     -23.062  -3.827  -9.871  0.00  0.00     0.185 C 
BRANCH   6   7
HETATM    7  C           1     -22.532  -4.681 -11.015  0.00  0.00     0.040 C 
BRANCH   7   8
HETATM    8  C           1     -21.167  -4.159 -11.448  0.00  0.00    -0.020 C 
HETATM    9  C           1     -21.148  -2.640 -11.345  0.00  0.00     0.009 C 
HETATM   10  C           1     -20.091  -4.743 -10.542  0.00  0.00     0.009 C 
ENDBRANCH   7   8
ENDBRANCH   6   7
BRANCH   6  11
HETATM   11  C           1     -24.466  -3.374 -10.189  0.00  0.00     0.196 C 
HETATM   12  O           1     -25.139  -2.773  -9.324  0.00  0.00    -0.646 OA
HETATM   13  O           1     -24.955  -3.600 -11.317  0.00  0.00    -0.646 OA
ENDBRANCH   6  11
ENDBRANCH   3   6
ENDBRANCH   1   2
BRANCH   1  14
HETATM   14  C           1     -21.457  -6.326  -6.528  0.00  0.00     0.044 C 
BRANCH  14  15
HETATM   15  C           1     -21.633  -7.243  -5.324  0.00  0.00     0.023 C 
BRANCH  15  16
HETATM   16  C           1     -20.996  -6.601  -4.099  0.00  0.00     0.138 C 
BRANCH  16  17
HETATM   17  N           1     -21.261  -7.433  -2.916  0.00  0.00    -0.227 N 
HETATM   18  C           1     -21.880  -6.945  -1.925  0.00  0.00     0.665 C 
HETATM   19  N           1     -22.108  -7.661  -0.906  0.00  0.00    -0.235 N 
HETATM   20  N           1     -22.282  -5.709  -1.954  0.00  0.00    -0.235 N 
HETATM   21  H           1     -22.621  -7.256  -0.084  0.00  0.00     0.174 HD
HETATM   22  H           1     -21.783  -8.659  -0.882  0.00  0.00     0.174 HD
HETATM   23  H           1     -22.794  -5.306  -1.137  0.00  0.00     0.174 HD
HETATM   24  H           1     -22.094  -5.119  -2.795  0.00  0.00     0.174 HD
HETATM   25  H           1     -20.936  -8.431  -2.892  0.00  0.00     0.177 HD
ENDBRANCH  16  17
ENDBRANCH  15  16
ENDBRANCH  14  15
ENDBRANCH   1  14
BRANCH   1  26
HETATM   26  N           1     -23.694  -5.436  -5.987  0.00  0.00    -0.067 N 
HETATM   27  H           1     -24.033  -6.164  -6.655  0.00  0.00     0.275 HD
HETATM   28  H           1     -23.728  -5.813  -5.014  0.00  0.00     0.275 HD
HETATM   29  H           1     -24.305  -4.590  -6.056  0.00  0.00     0.275 HD
ENDBRANCH   1  26
TORSDOF 10
ENDMDL
MODEL 3
REMARK VINA RESULT:      -6.7      1.940      2.919
REMARK  10 active torsions:
REMARK  status: ('A' for Active; 'I' for Inactive)
REMARK    1  A    between atoms: C_2  and  C_4 
REMARK    2  A    between atoms: C_4  and  C_5 
REMARK    3  A    between atoms: C_5  and  C_6 
REMARK    4  A    between atoms: C_5  and  N_9 
REMARK       I    between atoms: N_9  and  C_10 
REMARK    5  A    between atoms: C_10  and  C_11 
REMARK    6  A    between atoms: C_11  and  C_12 
REMARK    7  A    between atoms: C_11  and  N_19 
REMARK    8  A    between atoms: C_12  and  C_13 
REMARK    9  A    between atoms: C_13  and  C_14 
REMARK   10  A    between atoms: C_14  and  N_15 
REMARK       I    between atoms: N_15  and  C_16 
REMARK       I    between atoms: C_16  and  N_17 
ROOT
HETATM    1  C           1     -33.270  -2.455 -11.526  0.00  0.00     0.274 C 
ENDROOT
BRANCH   1   2
HETATM    2  C           1     -34.466  -2.100 -12.375  0.00  0.00     0.249 C 
HETATM    3  N           1     -35.190  -0.971 -12.100  0.00  0.00    -0.345 N 
HETATM    4  H           1     -34.923  -0.375 -11.327  0.00  0.00     0.163 HD
HETATM    5  O           1     -34.784  -2.811 -13.298  0.00  0.00    -0.271 OA
BRANCH   3   6
HETATM    6  C           1     -36.339  -0.630 -12.916  0.00  0.00     0.185 C 
BRANCH   6   7
HETATM    7  C           1     -37.443  -0.072 -12.028  0.00  0.00     0.040 C 
BRANCH   7   8
HETATM    8  C           1     -36.962  -0.033 -10.582  0.00  0.00    -0.020 C 
HETATM    9  C           1     -37.751   1.018  -9.814  0.00  0.00     0.009 C 
HETATM   10  C           1     -37.173  -1.397  -9.941  0.00  0.00     0.009 C 
ENDBRANCH   7   8
ENDBRANCH   6   7
BRANCH   6  11
HETATM   11  C           1     -35.940   0.407 -13.936  0.00  0.00     0.196 C 
HETATM   12  O           1     -36.587   0.518 -15.000  0.00  0.00    -0.646 OA
HETATM   13  O           1     -34.963   1.156 -13.718  0.00  0.00    -0.646 OA
ENDBRANCH   6  11
ENDBRANCH   3   6
ENDBRANCH   1   2
BRANCH   1  14
HETATM   14  C           1     -33.068  -3.964 -11.537  0.00  0.00     0.044 C 
BRANCH  14  15
HETATM   15  C           1     -33.963  -4.604 -10.483  0.00  0.00     0.023 C 
BRANCH  15  16
HETATM   16  C           1     -34.728  -5.765 -11.104  0.00  0.00     0.138 C 
BRANCH  16  17
HETATM   17  N           1     -33.892  -6.975 -11.074  0.00  0.00    -0.227 N 
HETATM   18  C           1     -34.165  -7.913 -10.269  0.00  0.00     0.665 C 
HETATM   19  N           1     -33.446  -8.955 -10.244  0.00  0.00    -0.235 N 
HETATM   20  N           1     -35.184  -7.808  -9.469  0.00  0.00    -0.235 N 
HETATM   21  H           1     -33.672  -9.733  -9.576  0.00  0.00     0.174 HD
HETATM   22  H           1     -32.622  -9.040 -10.890  0.00  0.00     0.174 HD
HETATM   23  H           1     -35.410  -8.582  -8.804  0.00  0.00     0.174 HD
HETATM   24  H           1     -35.777  -6.948  -9.490  0.00  0.00     0.174 HD
HETATM   25  H           1     -33.070  -7.060 -11.720  0.00  0.00     0.177 HD
ENDBRANCH  16  17
ENDBRANCH  15  16
ENDBRANCH  14  15
ENDBRANCH   1  14
BRANCH   1  26
HETATM   26  N           1     -33.502  -1.992 -10.118  0.00  0.00    -0.067 N 
HETATM   27  H           1     -33.501  -2.816  -9.476  0.00  0.00     0.275 HD
HETATM   28  H           1     -32.742  -1.332  -9.839  0.00  0.00     0.275 HD
HETATM   29  H           1     -34.426  -1.506 -10.059  0.00  0.00     0.275 HD
ENDBRANCH   1  26
TORSDOF 10
ENDMDL
MODEL 4
REMARK VINA RESULT:      -6.4     13.554     16.476
REMARK  10 active torsions:
REMARK  status: ('A' for Active; 'I' for Inactive)
REMARK    1  A    between atoms: C_2  and  C_4 
REMARK    2  A    between atoms: C_4  and  C_5 
REMARK    3  A    between atoms: C_5  and  C_6 
REMARK    4  A    between atoms: C_5  and  N_9 
REMARK       I    between atoms: N_9  and  C_10 
REMARK    5  A    between atoms: C_10  and  C_11 
REMARK    6  A    between atoms: C_11  and  C_12 
REMARK    7  A    between atoms: C_11  and  N_19 
REMARK    8  A    between atoms: C_12  and  C_13 
REMARK    9  A    between atoms: C_13  and  C_14 
REMARK   10  A    between atoms: C_14  and  N_15 
REMARK       I    between atoms: N_15  and  C_16 
REMARK       I    between atoms: C_16  and  N_17 
ROOT
HETATM    1  C           1     -20.880  -5.749  -5.871  0.00  0.00     0.274 C 
ENDROOT
BRANCH   1   2
HETATM    2  C           1     -21.434  -6.653  -4.796  0.00  0.00     0.249 C 
HETATM    3  N           1     -20.938  -6.585  -3.521  0.00  0.00    -0.345 N 
HETATM    4  H           1     -20.200  -5.928  -3.300  0.00  0.00     0.163 HD
HETATM    5  O           1     -22.315  -7.435  -5.060  0.00  0.00    -0.271 OA
BRANCH   3   6
HETATM    6  C           1     -21.471  -7.452  -2.489  0.00  0.00     0.185 C 
BRANCH   6   7
HETATM    7  C           1     -20.323  -8.153  -1.775  0.00  0.00     0.040 C 
BRANCH   7   8
HETATM    8  C           1     -20.567  -9.658  -1.777  0.00  0.00    -0.020 C 
HETATM    9  C           1     -20.840 -10.128  -0.354  0.00  0.00     0.009 C 
HETATM   10  C           1     -21.767  -9.976  -2.657  0.00  0.00     0.009 C 
ENDBRANCH   7   8
ENDBRANCH   6   7
BRANCH   6  11
HETATM   11  C           1     -22.255  -6.630  -1.497  0.00  0.00     0.196 C 
HETATM   12  O           1     -22.822  -7.187  -0.533  0.00  0.00    -0.646 OA
HETATM   13  O           1     -22.337  -5.390  -1.639  0.00  0.00    -0.646 OA
ENDBRANCH   6  11
ENDBRANCH   3   6
ENDBRANCH   1   2
BRANCH   1  14
HETATM   14  C           1     -22.027  -5.061  -6.597  0.00  0.00     0.044 C 
BRANCH  14  15
HETATM   15  C           1     -21.487  -3.890  -7.407  0.00  0.00     0.023 C 
BRANCH  15  16
HETATM   16  C           1     -22.077  -3.927  -8.810  0.00  0.00     0.138 C 
BRANCH  16  17
HETATM   17  N           1     -23.492  -3.531  -8.758  0.00  0.00    -0.227 N 
HETATM   18  C           1     -24.274  -3.852  -9.700  0.00  0.00     0.665 C 
HETATM   19  N           1     -25.493  -3.511  -9.656  0.00  0.00    -0.235 N 
HETATM   20  N           1     -23.826  -4.532 -10.714  0.00  0.00    -0.235 N 
HETATM   21  H           1     -26.141  -3.777 -10.438  0.00  0.00     0.174 HD
HETATM   22  H           1     -25.854  -2.961  -8.838  0.00  0.00     0.174 HD
HETATM   23  H           1     -24.472  -4.797 -11.492  0.00  0.00     0.174 HD
HETATM   24  H           1     -22.821  -4.813 -10.751  0.00  0.00     0.174 HD
HETATM   25  H           1     -23.853  -2.982  -7.940  0.00  0.00     0.177 HD
ENDBRANCH  16  17
ENDBRANCH  15  16
ENDBRANCH  14  15
ENDBRANCH   1  14
BRANCH   1  26
HETATM   26  N           1     -20.087  -6.565  -6.849  0.00  0.00    -0.067 N 
HETATM   27  H           1     -19.254  -6.972  -6.368  0.00  0.00     0.275 HD
HETATM   28  H           1     -20.685  -7.337  -7.223  0.00  0.00     0.275 HD
HETATM   29  H           1     -19.771  -5.955  -7.636  0.00  0.00     0.275 HD
ENDBRANCH   1  26
TORSDOF 10
ENDMDL
MODEL 5
REMARK VINA RESULT:      -6.3      8.911     11.342
REMARK  10 active torsions:
REMARK  status: ('A' for Active; 'I' for Inactive)
REMARK    1  A    between atoms: C_2  and  C_4 
REMARK    2  A    between atoms: C_4  and  C_5 
REMARK    3  A    between atoms: C_5  and  C_6 
REMARK    4  A    between atoms: C_5  and  N_9 
REMARK       I    between atoms: N_9  and  C_10 
REMARK    5  A    between atoms: C_10  and  C_11 
REMARK    6  A    between atoms: C_11  and  C_12 
REMARK    7  A    between atoms: C_11  and  N_19 
REMARK    8  A    between atoms: C_12  and  C_13 
REMARK    9  A    between atoms: C_13  and  C_14 
REMARK   10  A    between atoms: C_14  and  N_15 
REMARK       I    between atoms: N_15  and  C_16 
REMARK       I    between atoms: C_16  and  N_17 
ROOT
HETATM    1  C           1     -28.999  -5.361 -16.605  0.00  0.00     0.274 C 
ENDROOT
BRANCH   1   2
HETATM    2  C           1     -27.884  -6.366 -16.759  0.00  0.00     0.249 C 
HETATM    3  N           1     -26.782  -6.057 -17.512  0.00  0.00    -0.345 N 
HETATM    4  H           1     -26.718  -5.155 -17.967  0.00  0.00     0.163 HD
HETATM    5  O           1     -27.961  -7.442 -16.216  0.00  0.00    -0.271 OA
BRANCH   3   6
HETATM    6  C           1     -25.711  -7.022 -17.659  0.00  0.00     0.185 C 
BRANCH   6   7
HETATM    7  C           1     -24.836  -6.631 -18.842  0.00  0.00     0.040 C 
BRANCH   7   8
HETATM    8  C           1     -25.441  -7.184 -20.127  0.00  0.00    -0.020 C 
HETATM    9  C           1     -25.892  -6.030 -21.012  0.00  0.00     0.009 C 
HETATM   10  C           1     -24.397  -8.012 -20.863  0.00  0.00     0.009 C 
ENDBRANCH   7   8
ENDBRANCH   6   7
BRANCH   6  11
HETATM   11  C           1     -24.878  -7.043 -16.401  0.00  0.00     0.196 C 
HETATM   12  O           1     -24.227  -8.067 -16.099  0.00  0.00    -0.646 OA
HETATM   13  O           1     -24.838  -6.036 -15.661  0.00  0.00    -0.646 OA
ENDBRANCH   6  11
ENDBRANCH   3   6
ENDBRANCH   1   2
BRANCH   1  14
HETATM   14  C           1     -28.430  -3.952 -16.695  0.00  0.00     0.044 C 
BRANCH  14  15
HETATM   15  C           1     -29.469  -3.022 -17.309  0.00  0.00     0.023 C 
BRANCH  15  16
HETATM   16  C           1     -30.625  -3.844 -17.860  0.00  0.00     0.138 C 
BRANCH  16  17
HETATM   17  N           1     -31.882  -3.103 -17.687  0.00  0.00    -0.227 N 
HETATM   18  C           1     -32.883  -3.668 -17.156  0.00  0.00     0.665 C 
HETATM   19  N           1     -33.966  -3.029 -17.006  0.00  0.00    -0.235 N 
HETATM   20  N           1     -32.799  -4.905 -16.764  0.00  0.00    -0.235 N 
HETATM   21  H           1     -34.796  -3.498 -16.567  0.00  0.00     0.174 HD
HETATM   22  H           1     -34.034  -2.030 -17.324  0.00  0.00     0.174 HD
HETATM   23  H           1     -33.625  -5.371 -16.326  0.00  0.00     0.174 HD
HETATM   24  H           1     -31.906  -5.432 -16.888  0.00  0.00     0.174 HD
HETATM   25  H           1     -31.950  -2.104 -18.003  0.00  0.00     0.177 HD
ENDBRANCH  16  17
ENDBRANCH  15  16
ENDBRANCH  14  15
ENDBRANCH   1  14
BRANCH   1  26
HETATM   26  N           1     -29.660  -5.549 -15.271  0.00  0.00    -0.067 N 
HETATM   27  H           1     -28.932  -5.739 -14.546  0.00  0.00     0.275 HD
HETATM   28  H           1     -30.185  -4.682 -15.018  0.00  0.00     0.275 HD
HETATM   29  H           1     -30.322  -6.357 -15.321  0.00  0.00     0.275 HD
ENDBRANCH   1  26
TORSDOF 10
ENDMDL
MODEL 6
REMARK VINA RESULT:      -6.3     14.032     16.954
REMARK  10 active torsions:
REMARK  status: ('A' for Active; 'I' for Inactive)
REMARK    1  A    between atoms: C_2  and  C_4 
REMARK    2  A    between atoms: C_4  and  C_5 
REMARK    3  A    between atoms: C_5  and  C_6 
REMARK    4  A    between atoms: C_5  and  N_9 
REMARK       I    between atoms: N_9  and  C_10 
REMARK    5  A    between atoms: C_10  and  C_11 
REMARK    6  A    between atoms: C_11  and  C_12 
REMARK    7  A    between atoms: C_11  and  N_19 
REMARK    8  A    between atoms: C_12  and  C_13 
REMARK    9  A    between atoms: C_13  and  C_14 
REMARK   10  A    between atoms: C_14  and  N_15 
REMARK       I    between atoms: N_15  and  C_16 
REMARK       I    between atoms: C_16  and  N_17 
ROOT
HETATM    1  C           1     -21.509  -7.044  -5.696  0.00  0.00     0.274 C 
ENDROOT
BRANCH   1   2
HETATM    2  C           1     -20.822  -7.872  -4.636  0.00  0.00     0.249 C 
HETATM    3  N           1     -21.551  -8.410  -3.609  0.00  0.00    -0.345 N 
HETATM    4  H           1     -22.549  -8.251  -3.560  0.00  0.00     0.163 HD
HETATM    5  O           1     -19.631  -8.061  -4.696  0.00  0.00    -0.271 OA
BRANCH   3   6
HETATM    6  C           1     -20.891  -9.205  -2.593  0.00  0.00     0.185 C 
BRANCH   6   7
HETATM    7  C           1     -20.783  -8.395  -1.307  0.00  0.00     0.040 C 
BRANCH   7   8
HETATM    8  C           1     -22.152  -7.833  -0.944  0.00  0.00    -0.020 C 
HETATM    9  C           1     -22.422  -8.073   0.536  0.00  0.00     0.009 C 
HETATM   10  C           1     -22.179  -6.338  -1.229  0.00  0.00     0.009 C 
ENDBRANCH   7   8
ENDBRANCH   6   7
BRANCH   6  11
HETATM   11  C           1     -21.694 -10.456  -2.334  0.00  0.00     0.196 C 
HETATM   12  O           1     -22.697 -10.711  -3.035  0.00  0.00    -0.646 OA
HETATM   13  O           1     -21.355 -11.238  -1.419  0.00  0.00    -0.646 OA
ENDBRANCH   6  11
ENDBRANCH   3   6
ENDBRANCH   1   2
BRANCH   1  14
HETATM   14  C           1     -20.482  -6.173  -6.405  0.00  0.00     0.044 C 
BRANCH  14  15
HETATM   15  C           1     -20.996  -4.741  -6.483  0.00  0.00     0.023 C 
BRANCH  15  16
HETATM   16  C           1     -21.412  -4.428  -7.914  0.00  0.00     0.138 C 
BRANCH  16  17
HETATM   17  N           1     -22.813  -3.981  -7.931  0.00  0.00    -0.227 N 
HETATM   18  C           1     -23.369  -3.683  -9.028  0.00  0.00     0.665 C 
HETATM   19  N           1     -24.575  -3.298  -9.043  0.00  0.00    -0.235 N 
HETATM   20  N           1     -22.702  -3.774 -10.141  0.00  0.00    -0.235 N 
HETATM   21  H           1     -25.036  -3.051  -9.954  0.00  0.00     0.174 HD
HETATM   22  H           1     -25.113  -3.224  -8.145  0.00  0.00     0.174 HD
HETATM   23  H           1     -23.161  -3.529 -11.047  0.00  0.00     0.174 HD
HETATM   24  H           1     -21.707  -4.091 -10.128  0.00  0.00     0.174 HD
HETATM   25  H           1     -23.351  -3.908  -7.033  0.00  0.00     0.177 HD
ENDBRANCH  16  17
ENDBRANCH  15  16
ENDBRANCH  14  15
ENDBRANCH   1  14
BRANCH   1  26
HETATM   26  N           1     -22.546  -6.171  -5.053  0.00  0.00    -0.067 N 
HETATM   27  H           1     -22.089  -5.317  -4.663  0.00  0.00     0.275 HD
HETATM   28  H           1     -23.256  -5.891  -5.766  0.00  0.00     0.275 HD
HETATM   29  H           1     -23.015  -6.699  -4.281  0.00  0.00     0.275 HD
ENDBRANCH   1  26
TORSDOF 10
ENDMDL
MODEL 7
REMARK VINA RESULT:      -6.2      9.735     11.990
REMARK  10 active torsions:
REMARK  status: ('A' for Active; 'I' for Inactive)
REMARK    1  A    between atoms: C_2  and  C_4 
REMARK    2  A    between atoms: C_4  and  C_5 
REMARK    3  A    between atoms: C_5  and  C_6 
REMARK    4  A    between atoms: C_5  and  N_9 
REMARK       I    between atoms: N_9  and  C_10 
REMARK    5  A    between atoms: C_10  and  C_11 
REMARK    6  A    between atoms: C_11  and  C_12 
REMARK    7  A    between atoms: C_11  and  N_19 
REMARK    8  A    between atoms: C_12  and  C_13 
REMARK    9  A    between atoms: C_13  and  C_14 
REMARK   10  A    between atoms: C_14  and  N_15 
REMARK       I    between atoms: N_15  and  C_16 
REMARK       I    between atoms: C_16  and  N_17 
ROOT
HETATM    1  C           1     -27.718  -6.099 -16.672  0.00  0.00     0.274 C 
ENDROOT
BRANCH   1   2
HETATM    2  C           1     -27.680  -6.047 -18.180  0.00  0.00     0.249 C 
HETATM    3  N           1     -26.914  -6.943 -18.877  0.00  0.00    -0.345 N 
HETATM    4  H           1     -26.372  -7.639 -18.380  0.00  0.00     0.163 HD
HETATM    5  O           1     -28.326  -5.216 -18.772  0.00  0.00    -0.271 OA
BRANCH   3   6
HETATM    6  C           1     -26.878  -6.893 -20.325  0.00  0.00     0.185 C 
BRANCH   6   7
HETATM    7  C           1     -25.444  -6.676 -20.789  0.00  0.00     0.040 C 
BRANCH   7   8
HETATM    8  C           1     -24.522  -7.646 -20.061  0.00  0.00    -0.020 C 
HETATM    9  C           1     -23.493  -8.199 -21.039  0.00  0.00     0.009 C 
HETATM   10  C           1     -23.808  -6.917 -18.931  0.00  0.00     0.009 C 
ENDBRANCH   7   8
ENDBRANCH   6   7
BRANCH   6  11
HETATM   11  C           1     -27.397  -8.193 -20.886  0.00  0.00     0.196 C 
HETATM   12  O           1     -28.475  -8.668 -20.467  0.00  0.00    -0.646 OA
HETATM   13  O           1     -26.750  -8.797 -21.769  0.00  0.00    -0.646 OA
ENDBRANCH   6  11
ENDBRANCH   3   6
ENDBRANCH   1   2
BRANCH   1  14
HETATM   14  C           1     -28.526  -4.922 -16.143  0.00  0.00     0.044 C 
BRANCH  14  15
HETATM   15  C           1     -29.874  -5.418 -15.635  0.00  0.00     0.023 C 
BRANCH  15  16
HETATM   16  C           1     -30.785  -5.715 -16.818  0.00  0.00     0.138 C 
BRANCH  16  17
HETATM   17  N           1     -31.990  -4.877 -16.733  0.00  0.00    -0.227 N 
HETATM   18  C           1     -32.042  -3.778 -17.357  0.00  0.00     0.665 C 
HETATM   19  N           1     -33.079  -3.056 -17.284  0.00  0.00    -0.235 N 
HETATM   20  N           1     -31.029  -3.389 -18.074  0.00  0.00    -0.235 N 
HETATM   21  H           1     -33.122  -2.143 -17.801  0.00  0.00     0.174 HD
HETATM   22  H           1     -33.897  -3.369 -16.704  0.00  0.00     0.174 HD
HETATM   23  H           1     -31.071  -2.481 -18.590  0.00  0.00     0.174 HD
HETATM   24  H           1     -30.173  -3.984 -18.134  0.00  0.00     0.174 HD
HETATM   25  H           1     -32.807  -5.192 -16.154  0.00  0.00     0.177 HD
ENDBRANCH  16  17
ENDBRANCH  15  16
ENDBRANCH  14  15
ENDBRANCH   1  14
BRANCH   1  26
HETATM   26  N           1     -26.319  -6.026 -16.135  0.00  0.00    -0.067 N 
HETATM   27  H           1     -26.258  -6.571 -15.246  0.00  0.00     0.275 HD
HETATM   28  H           1     -25.656  -6.427 -16.836  0.00  0.00     0.275 HD
HETATM   29  H           1     -26.069  -5.028 -15.949  0.00  0.00     0.275 HD
ENDBRANCH   1  26
TORSDOF 10
ENDMDL
MODEL 8
REMARK VINA RESULT:      -6.1     14.319     17.385
REMARK  10 active torsions:
REMARK  status: ('A' for Active; 'I' for Inactive)
REMARK    1  A    between atoms: C_2  and  C_4 
REMARK    2  A    between atoms: C_4  and  C_5 
REMARK    3  A    between atoms: C_5  and  C_6 
REMARK    4  A    between atoms: C_5  and  N_9 
REMARK       I    between atoms: N_9  and  C_10 
REMARK    5  A    between atoms: C_10  and  C_11 
REMARK    6  A    between atoms: C_11  and  C_12 
REMARK    7  A    between atoms: C_11  and  N_19 
REMARK    8  A    between atoms: C_12  and  C_13 
REMARK    9  A    between atoms: C_13  and  C_14 
REMARK   10  A    between atoms: C_14  and  N_15 
REMARK       I    between atoms: N_15  and  C_16 
REMARK       I    between atoms: C_16  and  N_17 
ROOT
HETATM    1  C           1     -20.198  -7.431  -5.047  0.00  0.00     0.274 C 
ENDROOT
BRANCH   1   2
HETATM    2  C           1     -21.025  -8.101  -3.977  0.00  0.00     0.249 C 
HETATM    3  N           1     -20.815  -7.796  -2.658  0.00  0.00    -0.345 N 
HETATM    4  H           1     -20.105  -7.122  -2.402  0.00  0.00     0.163 HD
HETATM    5  O           1     -21.873  -8.904  -4.284  0.00  0.00    -0.271 OA
BRANCH   3   6
HETATM    6  C           1     -21.610  -8.439  -1.631  0.00  0.00     0.185 C 
BRANCH   6   7
HETATM    7  C           1     -20.740  -9.422  -0.859  0.00  0.00     0.040 C 
BRANCH   7   8
HETATM    8  C           1     -21.417 -10.787  -0.830  0.00  0.00    -0.020 C 
HETATM    9  C           1     -21.441 -11.310   0.600  0.00  0.00     0.009 C 
HETATM   10  C           1     -22.843 -10.656  -1.347  0.00  0.00     0.009 C 
ENDBRANCH   7   8
ENDBRANCH   6   7
BRANCH   6  11
HETATM   11  C           1     -22.151  -7.395  -0.687  0.00  0.00     0.196 C 
HETATM   12  O           1     -22.581  -6.310  -1.134  0.00  0.00    -0.646 OA
HETATM   13  O           1     -22.170  -7.615   0.544  0.00  0.00    -0.646 OA
ENDBRANCH   6  11
ENDBRANCH   3   6
ENDBRANCH   1   2
BRANCH   1  14
HETATM   14  C           1     -21.110  -6.629  -5.966  0.00  0.00     0.044 C 
BRANCH  14  15
HETATM   15  C           1     -20.877  -5.140  -5.742  0.00  0.00     0.023 C 
BRANCH  15  16
HETATM   16  C           1     -21.015  -4.399  -7.064  0.00  0.00     0.138 C 
BRANCH  16  17
HETATM   17  N           1     -22.415  -3.996  -7.257  0.00  0.00    -0.227 N 
HETATM   18  C           1     -22.965  -4.138  -8.389  0.00  0.00     0.665 C 
HETATM   19  N           1     -24.171  -3.791  -8.555  0.00  0.00    -0.235 N 
HETATM   20  N           1     -22.291  -4.642  -9.380  0.00  0.00    -0.235 N 
HETATM   21  H           1     -24.627  -3.909  -9.494  0.00  0.00     0.174 HD
HETATM   22  H           1     -24.715  -3.384  -7.755  0.00  0.00     0.174 HD
HETATM   23  H           1     -22.745  -4.759 -10.314  0.00  0.00     0.174 HD
HETATM   24  H           1     -21.296  -4.928  -9.243  0.00  0.00     0.174 HD
HETATM   25  H           1     -22.959  -3.590  -6.457  0.00  0.00     0.177 HD
ENDBRANCH  16  17
ENDBRANCH  15  16
ENDBRANCH  14  15
ENDBRANCH   1  14
BRANCH   1  26
HETATM   26  N           1     -19.476  -8.475  -5.846  0.00  0.00    -0.067 N 
HETATM   27  H           1     -19.663  -8.327  -6.863  0.00  0.00     0.275 HD
HETATM   28  H           1     -18.449  -8.401  -5.667  0.00  0.00     0.275 HD
HETATM   29  H           1     -19.813  -9.424  -5.565  0.00  0.00     0.275 HD
ENDBRANCH   1  26
TORSDOF 10
ENDMDL
MODEL 9
REMARK VINA RESULT:      -6.0     14.949     17.897
REMARK  10 active torsions:
REMARK  status: ('A' for Active; 'I' for Inactive)
REMARK    1  A    between atoms: C_2  and  C_4 
REMARK    2  A    between atoms: C_4  and  C_5 
REMARK    3  A    between atoms: C_5  and  C_6 
REMARK    4  A    between atoms: C_5  and  N_9 
REMARK       I    between atoms: N_9  and  C_10 
REMARK    5  A    between atoms: C_10  and  C_11 
REMARK    6  A    between atoms: C_11  and  C_12 
REMARK    7  A    between atoms: C_11  and  N_19 
REMARK    8  A    between atoms: C_12  and  C_13 
REMARK    9  A    between atoms: C_13  and  C_14 
REMARK   10  A    between atoms: C_14  and  N_15 
REMARK       I    between atoms: N_15  and  C_16 
REMARK       I    between atoms: C_16  and  N_17 
ROOT
HETATM    1  C           1     -21.331  -6.935  -5.671  0.00  0.00     0.274 C 
ENDROOT
BRANCH   1   2
HETATM    2  C           1     -20.816  -8.209  -5.046  0.00  0.00     0.249 C 
HETATM    3  N           1     -20.386  -8.209  -3.746  0.00  0.00    -0.345 N 
HETATM    4  H           1     -20.412  -7.354  -3.205  0.00  0.00     0.163 HD
HETATM    5  O           1     -20.786  -9.229  -5.692  0.00  0.00    -0.271 OA
BRANCH   3   6
HETATM    6  C           1     -19.893  -9.433  -3.146  0.00  0.00     0.185 C 
BRANCH   6   7
HETATM    7  C           1     -18.470  -9.215  -2.649  0.00  0.00     0.040 C 
BRANCH   7   8
HETATM    8  C           1     -17.484  -9.591  -3.750  0.00  0.00    -0.020 C 
HETATM    9  C           1     -16.079  -9.662  -3.168  0.00  0.00     0.009 C 
HETATM   10  C           1     -17.864 -10.946  -4.330  0.00  0.00     0.009 C 
ENDBRANCH   7   8
ENDBRANCH   6   7
BRANCH   6  11
HETATM   11  C           1     -20.778  -9.816  -1.986  0.00  0.00     0.196 C 
HETATM   12  O           1     -21.970  -9.442  -1.959  0.00  0.00    -0.646 OA
HETATM   13  O           1     -20.319 -10.509  -1.051  0.00  0.00    -0.646 OA
ENDBRANCH   6  11
ENDBRANCH   3   6
ENDBRANCH   1   2
BRANCH   1  14
HETATM   14  C           1     -20.161  -6.131  -6.221  0.00  0.00     0.044 C 
BRANCH  14  15
HETATM   15  C           1     -20.424  -4.645  -6.013  0.00  0.00     0.023 C 
BRANCH  15  16
HETATM   16  C           1     -20.810  -4.007  -7.340  0.00  0.00     0.138 C 
BRANCH  16  17
HETATM   17  N           1     -22.267  -3.817  -7.388  0.00  0.00    -0.227 N 
HETATM   18  C           1     -22.898  -4.027  -8.465  0.00  0.00     0.665 C 
HETATM   19  N           1     -24.153  -3.863  -8.506  0.00  0.00    -0.235 N 
HETATM   20  N           1     -22.257  -4.411  -9.529  0.00  0.00    -0.235 N 
HETATM   21  H           1     -24.676  -4.037  -9.400  0.00  0.00     0.174 HD
HETATM   22  H           1     -24.670  -3.552  -7.647  0.00  0.00     0.174 HD
HETATM   23  H           1     -22.778  -4.584 -10.419  0.00  0.00     0.174 HD
HETATM   24  H           1     -21.222  -4.545  -9.495  0.00  0.00     0.174 HD
HETATM   25  H           1     -22.784  -3.507  -6.528  0.00  0.00     0.177 HD
ENDBRANCH  16  17
ENDBRANCH  15  16
ENDBRANCH  14  15
ENDBRANCH   1  14
BRANCH   1  26
HETATM   26  N           1     -22.050  -6.126  -4.633  0.00  0.00    -0.067 N 
HETATM   27  H           1     -21.408  -5.939  -3.830  0.00  0.00     0.275 HD
HETATM   28  H           1     -22.358  -5.219  -5.051  0.00  0.00     0.275 HD
HETATM   29  H           1     -22.886  -6.656  -4.295  0.00  0.00     0.275 HD
ENDBRANCH   1  26
TORSDOF 10
ENDMDL
