MODEL 1
REMARK VINA RESULT:      -6.1      0.000      0.000
REMARK  10 active torsions:
REMARK  status: ('A' for Active; 'I' for Inactive)
REMARK       I    between atoms: C_4  and  N_5 
REMARK    1  A    between atoms: C_4  and  C_19 
REMARK    2  A    between atoms: N_5  and  C_8 
REMARK    3  A    between atoms: C_8  and  C_20 
REMARK    4  A    between atoms: C_8  and  C_9 
REMARK    5  A    between atoms: N_10  and  C_11 
REMARK    6  A    between atoms: C_11  and  C_21 
REMARK    7  A    between atoms: C_13  and  C_18 
REMARK    8  A    between atoms: N_15  and  C_19 
REMARK    9  A    between atoms: C_18  and  C_19 
REMARK   10  A    between atoms: C_20  and  C_21 
ROOT
HETATM    1  C           1     -34.010  -2.466 -11.713  0.00  0.00     0.249 C 
HETATM    2  N           1     -34.804  -1.734 -12.554  0.00  0.00    -0.345 N 
HETATM    3  O           1     -33.462  -1.928 -10.780  0.00  0.00    -0.271 OA
HETATM    4  H           1     -35.262  -2.184 -13.336  0.00  0.00     0.163 HD
ENDROOT
BRANCH   2   5
HETATM    5  C           1     -34.988  -0.314 -12.326  0.00  0.00     0.185 C 
BRANCH   5   6
HETATM    6  C           1     -35.020   0.414 -13.662  0.00  0.00     0.038 C 
BRANCH   6   7
HETATM    7  C           1     -35.487  -0.542 -14.752  0.00  0.00     0.030 C 
BRANCH   7   8
HETATM    8  C           1     -36.484   0.168 -15.659  0.00  0.00     0.230 C 
BRANCH   8   9
HETATM    9  N           1     -37.720   0.505 -14.879  0.00  0.00    -0.079 N 
HETATM   10  H           1     -37.606   1.444 -14.435  0.00  0.00     0.274 HD
HETATM   11  H           1     -37.870  -0.216 -14.138  0.00  0.00     0.274 HD
HETATM   12  H           1     -38.543   0.521 -15.522  0.00  0.00     0.274 HD
ENDBRANCH   8   9
ENDBRANCH   7   8
ENDBRANCH   6   7
ENDBRANCH   5   6
BRANCH   5  13
HETATM   13  C           1     -36.290  -0.088 -11.596  0.00  0.00     0.196 C 
HETATM   14  O           1     -36.305   0.572 -10.535  0.00  0.00    -0.646 OA
HETATM   15  O           1     -37.353  -0.560 -12.054  0.00  0.00    -0.646 OA
ENDBRANCH   5  13
ENDBRANCH   2   5
BRANCH   1  16
HETATM   16  C           1     -33.817  -3.943 -11.951  0.00  0.00     0.278 C 
BRANCH  16  17
HETATM   17  N           1     -32.365  -4.224 -12.203  0.00  0.00    -0.066 N 
HETATM   18  H           1     -32.187  -5.249 -12.101  0.00  0.00     0.275 HD
HETATM   19  H           1     -32.116  -3.920 -13.172  0.00  0.00     0.275 HD
HETATM   20  H           1     -31.784  -3.699 -11.512  0.00  0.00     0.275 HD
ENDBRANCH  16  17
BRANCH  16  21
HETATM   21  C           1     -34.278  -4.720 -10.725  0.00  0.00     0.021 C 
HETATM   22  C           1     -35.794  -4.631 -10.606  0.00  0.00     0.012 C 
BRANCH  21  23
HETATM   23  C           1     -33.865  -6.179 -10.865  0.00  0.00     0.002 C 
HETATM   24  C           1     -34.766  -7.048  -9.998  0.00  0.00     0.005 C 
ENDBRANCH  21  23
ENDBRANCH  16  21
ENDBRANCH   1  16
TORSDOF 10
ENDMDL
MODEL 2
REMARK VINA RESULT:      -6.0      2.138      6.411
REMARK  10 active torsions:
REMARK  status: ('A' for Active; 'I' for Inactive)
REMARK       I    between atoms: C_4  and  N_5 
REMARK    1  A    between atoms: C_4  and  C_19 
REMARK    2  A    between atoms: N_5  and  C_8 
REMARK    3  A    between atoms: C_8  and  C_20 
REMARK    4  A    between atoms: C_8  and  C_9 
REMARK    5  A    between atoms: N_10  and  C_11 
REMARK    6  A    between atoms: C_11  and  C_21 
REMARK    7  A    between atoms: C_13  and  C_18 
REMARK    8  A    between atoms: N_15  and  C_19 
REMARK    9  A    between atoms: C_18  and  C_19 
REMARK   10  A    between atoms: C_20  and  C_21 
ROOT
HETATM    1  C           1     -35.205  -2.011 -11.045  0.00  0.00     0.249 C 
HETATM    2  N           1     -35.258  -3.255 -11.616  0.00  0.00    -0.345 N 
HETATM    3  O           1     -34.308  -1.734 -10.284  0.00  0.00    -0.271 OA
HETATM    4  H           1     -36.009  -3.487 -12.253  0.00  0.00     0.163 HD
ENDROOT
BRANCH   2   5
HETATM    5  C           1     -34.238  -4.238 -11.308  0.00  0.00     0.185 C 
BRANCH   5   6
HETATM    6  C           1     -34.870  -5.621 -11.244  0.00  0.00     0.038 C 
BRANCH   6   7
HETATM    7  C           1     -34.182  -6.446 -10.164  0.00  0.00     0.030 C 
BRANCH   7   8
HETATM    8  C           1     -34.742  -7.863 -10.173  0.00  0.00     0.230 C 
BRANCH   8   9
HETATM    9  N           1     -33.611  -8.849 -10.201  0.00  0.00    -0.079 N 
HETATM   10  H           1     -33.361  -9.062 -11.193  0.00  0.00     0.274 HD
HETATM   11  H           1     -33.904  -9.727  -9.718  0.00  0.00     0.274 HD
HETATM   12  H           1     -32.782  -8.442  -9.712  0.00  0.00     0.274 HD
ENDBRANCH   8   9
ENDBRANCH   7   8
ENDBRANCH   6   7
ENDBRANCH   5   6
BRANCH   5  13
HETATM   13  C           1     -33.179  -4.217 -12.383  0.00  0.00     0.196 C 
HETATM   14  O           1     -33.479  -3.881 -13.549  0.00  0.00    -0.646 OA
HETATM   15  O           1     -32.001  -4.535 -12.108  0.00  0.00    -0.646 OA
ENDBRANCH   5  13
ENDBRANCH   2   5
BRANCH   1  16
HETATM   16  C           1     -36.266  -0.988 -11.365  0.00  0.00     0.278 C 
BRANCH  16  17
HETATM   17  N           1     -36.094   0.206 -10.474  0.00  0.00    -0.066 N 
HETATM   18  H           1     -36.530   0.011  -9.544  0.00  0.00     0.275 HD
HETATM   19  H           1     -35.075   0.402 -10.348  0.00  0.00     0.275 HD
HETATM   20  H           1     -36.558   1.035 -10.908  0.00  0.00     0.275 HD
ENDBRANCH  16  17
BRANCH  16  21
HETATM   21  C           1     -36.136  -0.558 -12.820  0.00  0.00     0.021 C 
HETATM   22  C           1     -37.481  -0.047 -13.321  0.00  0.00     0.012 C 
BRANCH  21  23
HETATM   23  C           1     -35.099   0.553 -12.930  0.00  0.00     0.002 C 
HETATM   24  C           1     -34.964   0.980 -14.385  0.00  0.00     0.005 C 
ENDBRANCH  21  23
ENDBRANCH  16  21
ENDBRANCH   1  16
TORSDOF 10
ENDMDL
MODEL 3
REMARK VINA RESULT:      -6.0     10.210     11.577
REMARK  10 active torsions:
REMARK  status: ('A' for Active; 'I' for Inactive)
REMARK       I    between atoms: C_4  and  N_5 
REMARK    1  A    between atoms: C_4  and  C_19 
REMARK    2  A    between atoms: N_5  and  C_8 
REMARK    3  A    between atoms: C_8  and  C_20 
REMARK    4  A    between atoms: C_8  and  C_9 
REMARK    5  A    between atoms: N_10  and  C_11 
REMARK    6  A    between atoms: C_11  and  C_21 
REMARK    7  A    between atoms: C_13  and  C_18 
REMARK    8  A    between atoms: N_15  and  C_19 
REMARK    9  A    between atoms: C_18  and  C_19 
REMARK   10  A    between atoms: C_20  and  C_21 
ROOT
HETATM    1  C           1     -26.251  -6.340 -18.247  0.00  0.00     0.249 C 
HETATM    2  N           1     -27.483  -6.581 -18.794  0.00  0.00    -0.345 N 
HETATM    3  O           1     -26.164  -5.873 -17.136  0.00  0.00    -0.271 OA
HETATM    4  H           1     -27.556  -6.971 -19.724  0.00  0.00     0.163 HD
ENDROOT
BRANCH   2   5
HETATM    5  C           1     -28.683  -6.276 -18.039  0.00  0.00     0.185 C 
BRANCH   5   6
HETATM    6  C           1     -29.285  -4.974 -18.547  0.00  0.00     0.038 C 
BRANCH   6   7
HETATM    7  C           1     -29.645  -4.084 -17.364  0.00  0.00     0.030 C 
BRANCH   7   8
HETATM    8  C           1     -31.147  -3.823 -17.363  0.00  0.00     0.230 C 
BRANCH   8   9
HETATM    9  N           1     -31.823  -4.795 -16.441  0.00  0.00    -0.079 N 
HETATM   10  H           1     -32.829  -4.532 -16.337  0.00  0.00     0.274 HD
HETATM   11  H           1     -31.356  -4.769 -15.506  0.00  0.00     0.274 HD
HETATM   12  H           1     -31.753  -5.758 -16.839  0.00  0.00     0.274 HD
ENDBRANCH   8   9
ENDBRANCH   7   8
ENDBRANCH   6   7
ENDBRANCH   5   6
BRANCH   5  13
HETATM   13  C           1     -29.682  -7.394 -18.212  0.00  0.00     0.196 C 
HETATM   14  O           1     -30.723  -7.414 -17.520  0.00  0.00    -0.646 OA
HETATM   15  O           1     -29.469  -8.300 -19.047  0.00  0.00    -0.646 OA
ENDBRANCH   5  13
ENDBRANCH   2   5
BRANCH   1  16
HETATM   16  C           1     -25.002  -6.656 -19.033  0.00  0.00     0.278 C 
BRANCH  16  17
HETATM   17  N           1     -24.205  -7.699 -18.306  0.00  0.00    -0.066 N 
HETATM   18  H           1     -24.398  -8.637 -18.726  0.00  0.00     0.275 HD
HETATM   19  H           1     -23.187  -7.480 -18.392  0.00  0.00     0.275 HD
HETATM   20  H           1     -24.478  -7.706 -17.298  0.00  0.00     0.275 HD
ENDBRANCH  16  17
BRANCH  16  21
HETATM   21  C           1     -25.386  -7.179 -20.410  0.00  0.00     0.021 C 
HETATM   22  C           1     -25.438  -6.021 -21.398  0.00  0.00     0.012 C 
BRANCH  21  23
HETATM   23  C           1     -24.351  -8.196 -20.873  0.00  0.00     0.002 C 
HETATM   24  C           1     -23.940  -7.887 -22.306  0.00  0.00     0.005 C 
ENDBRANCH  21  23
ENDBRANCH  16  21
ENDBRANCH   1  16
TORSDOF 10
ENDMDL
MODEL 4
REMARK VINA RESULT:      -5.5     13.926     16.693
REMARK  10 active torsions:
REMARK  status: ('A' for Active; 'I' for Inactive)
REMARK       I    between atoms: C_4  and  N_5 
REMARK    1  A    between atoms: C_4  and  C_19 
REMARK    2  A    between atoms: N_5  and  C_8 
REMARK    3  A    between atoms: C_8  and  C_20 
REMARK    4  A    between atoms: C_8  and  C_9 
REMARK    5  A    between atoms: N_10  and  C_11 
REMARK    6  A    between atoms: C_11  and  C_21 
REMARK    7  A    between atoms: C_13  and  C_18 
REMARK    8  A    between atoms: N_15  and  C_19 
REMARK    9  A    between atoms: C_18  and  C_19 
REMARK   10  A    between atoms: C_20  and  C_21 
ROOT
HETATM    1  C           1     -21.544  -5.070  -6.758  0.00  0.00     0.249 C 
HETATM    2  N           1     -21.629  -6.299  -6.162  0.00  0.00    -0.345 N 
HETATM    3  O           1     -20.932  -4.178  -6.219  0.00  0.00    -0.271 OA
HETATM    4  H           1     -22.143  -7.046  -6.613  0.00  0.00     0.163 HD
ENDROOT
BRANCH   2   5
HETATM    5  C           1     -20.983  -6.532  -4.885  0.00  0.00     0.185 C 
BRANCH   5   6
HETATM    6  C           1     -22.041  -6.771  -3.817  0.00  0.00     0.038 C 
BRANCH   6   7
HETATM    7  C           1     -21.677  -5.995  -2.558  0.00  0.00     0.030 C 
BRANCH   7   8
HETATM    8  C           1     -22.156  -6.762  -1.332  0.00  0.00     0.230 C 
BRANCH   8   9
HETATM    9  N           1     -21.545  -8.132  -1.327  0.00  0.00    -0.079 N 
HETATM   10  H           1     -22.053  -8.737  -0.643  0.00  0.00     0.274 HD
HETATM   11  H           1     -20.539  -8.062  -1.054  0.00  0.00     0.274 HD
HETATM   12  H           1     -21.618  -8.549  -2.282  0.00  0.00     0.274 HD
ENDBRANCH   8   9
ENDBRANCH   7   8
ENDBRANCH   6   7
ENDBRANCH   5   6
BRANCH   5  13
HETATM   13  C           1     -20.088  -7.744  -4.989  0.00  0.00     0.196 C 
HETATM   14  O           1     -19.959  -8.511  -4.010  0.00  0.00    -0.646 OA
HETATM   15  O           1     -19.477  -7.981  -6.054  0.00  0.00    -0.646 OA
ENDBRANCH   5  13
ENDBRANCH   2   5
BRANCH   1  16
HETATM   16  C           1     -22.218  -4.826  -8.086  0.00  0.00     0.278 C 
BRANCH  16  17
HETATM   17  N           1     -23.510  -4.097  -7.866  0.00  0.00    -0.066 N 
HETATM   18  H           1     -23.316  -3.079  -7.731  0.00  0.00     0.275 HD
HETATM   19  H           1     -24.129  -4.228  -8.698  0.00  0.00     0.275 HD
HETATM   20  H           1     -23.983  -4.477  -7.015  0.00  0.00     0.275 HD
ENDBRANCH  16  17
BRANCH  16  21
HETATM   21  C           1     -21.307  -3.987  -8.972  0.00  0.00     0.021 C 
HETATM   22  C           1     -20.080  -4.803  -9.358  0.00  0.00     0.012 C 
BRANCH  21  23
HETATM   23  C           1     -22.061  -3.578 -10.231  0.00  0.00     0.002 C 
HETATM   24  C           1     -21.216  -3.898 -11.456  0.00  0.00     0.005 C 
ENDBRANCH  21  23
ENDBRANCH  16  21
ENDBRANCH   1  16
TORSDOF 10
ENDMDL
MODEL 5
REMARK VINA RESULT:      -5.5     10.021     11.500
REMARK  10 active torsions:
REMARK  status: ('A' for Active; 'I' for Inactive)
REMARK       I    between atoms: C_4  and  N_5 
REMARK    1  A    between atoms: C_4  and  C_19 
REMARK    2  A    between atoms: N_5  and  C_8 
REMARK    3  A    between atoms: C_8  and  C_20 
REMARK    4  A    between atoms: C_8  and  C_9 
REMARK    5  A    between atoms: N_10  and  C_11 
REMARK    6  A    between atoms: C_11  and  C_21 
REMARK    7  A    between atoms: C_13  and  C_18 
REMARK    8  A    between atoms: N_15  and  C_19 
REMARK    9  A    between atoms: C_18  and  C_19 
REMARK   10  A    between atoms: C_20  and  C_21 
ROOT
HETATM    1  C           1     -25.405  -6.520 -17.973  0.00  0.00     0.249 C 
HETATM    2  N           1     -26.730  -6.207 -17.828  0.00  0.00    -0.345 N 
HETATM    3  O           1     -24.694  -6.603 -17.000  0.00  0.00    -0.271 OA
HETATM    4  H           1     -27.325  -6.137 -18.643  0.00  0.00     0.163 HD
ENDROOT
BRANCH   2   5
HETATM    5  C           1     -27.280  -5.975 -16.507  0.00  0.00     0.185 C 
BRANCH   5   6
HETATM    6  C           1     -28.251  -4.804 -16.560  0.00  0.00     0.038 C 
BRANCH   6   7
HETATM    7  C           1     -28.826  -4.683 -17.965  0.00  0.00     0.030 C 
BRANCH   7   8
HETATM    8  C           1     -30.156  -3.943 -17.908  0.00  0.00     0.230 C 
BRANCH   8   9
HETATM    9  N           1     -29.913  -2.500 -17.577  0.00  0.00    -0.079 N 
HETATM   10  H           1     -30.657  -2.161 -16.928  0.00  0.00     0.274 HD
HETATM   11  H           1     -29.932  -1.934 -18.456  0.00  0.00     0.274 HD
HETATM   12  H           1     -28.979  -2.401 -17.120  0.00  0.00     0.274 HD
ENDBRANCH   8   9
ENDBRANCH   7   8
ENDBRANCH   6   7
ENDBRANCH   5   6
BRANCH   5  13
HETATM   13  C           1     -28.008  -7.213 -16.042  0.00  0.00     0.196 C 
HETATM   14  O           1     -28.938  -7.687 -16.731  0.00  0.00    -0.646 OA
HETATM   15  O           1     -27.682  -7.764 -14.968  0.00  0.00    -0.646 OA
ENDBRANCH   5  13
ENDBRANCH   2   5
BRANCH   1  16
HETATM   16  C           1     -24.833  -6.761 -19.348  0.00  0.00     0.278 C 
BRANCH  16  17
HETATM   17  N           1     -24.113  -8.077 -19.367  0.00  0.00    -0.066 N 
HETATM   18  H           1     -24.247  -8.533 -20.298  0.00  0.00     0.275 HD
HETATM   19  H           1     -23.093  -7.918 -19.199  0.00  0.00     0.275 HD
HETATM   20  H           1     -24.497  -8.695 -18.618  0.00  0.00     0.275 HD
ENDBRANCH  16  17
BRANCH  16  21
HETATM   21  C           1     -25.959  -6.785 -20.371  0.00  0.00     0.021 C 
HETATM   22  C           1     -25.701  -5.727 -21.437  0.00  0.00     0.012 C 
BRANCH  21  23
HETATM   23  C           1     -26.022  -8.159 -21.025  0.00  0.00     0.002 C 
HETATM   24  C           1     -27.472  -8.611 -21.123  0.00  0.00     0.005 C 
ENDBRANCH  21  23
ENDBRANCH  16  21
ENDBRANCH   1  16
TORSDOF 10
ENDMDL
MODEL 6
REMARK VINA RESULT:      -5.5     14.027     16.151
REMARK  10 active torsions:
REMARK  status: ('A' for Active; 'I' for Inactive)
REMARK       I    between atoms: C_4  and  N_5 
REMARK    1  A    between atoms: C_4  and  C_19 
REMARK    2  A    between atoms: N_5  and  C_8 
REMARK    3  A    between atoms: C_8  and  C_20 
REMARK    4  A    between atoms: C_8  and  C_9 
REMARK    5  A    between atoms: N_10  and  C_11 
REMARK    6  A    between atoms: C_11  and  C_21 
REMARK    7  A    between atoms: C_13  and  C_18 
REMARK    8  A    between atoms: N_15  and  C_19 
REMARK    9  A    between atoms: C_18  and  C_19 
REMARK   10  A    between atoms: C_20  and  C_21 
ROOT
HETATM    1  C           1     -21.562  -6.609  -4.240  0.00  0.00     0.249 C 
HETATM    2  N           1     -21.114  -5.583  -5.028  0.00  0.00    -0.345 N 
HETATM    3  O           1     -22.162  -7.533  -4.736  0.00  0.00    -0.271 OA
HETATM    4  H           1     -20.612  -4.808  -4.613  0.00  0.00     0.163 HD
ENDROOT
BRANCH   2   5
HETATM    5  C           1     -21.357  -5.606  -6.457  0.00  0.00     0.185 C 
BRANCH   5   6
HETATM    6  C           1     -21.882  -4.249  -6.905  0.00  0.00     0.038 C 
BRANCH   6   7
HETATM    7  C           1     -23.260  -4.418  -7.532  0.00  0.00     0.030 C 
BRANCH   7   8
HETATM    8  C           1     -23.268  -3.787  -8.919  0.00  0.00     0.230 C 
BRANCH   8   9
HETATM    9  N           1     -24.637  -3.252  -9.218  0.00  0.00    -0.079 N 
HETATM   10  H           1     -24.928  -3.556 -10.174  0.00  0.00     0.274 HD
HETATM   11  H           1     -24.618  -2.208  -9.174  0.00  0.00     0.274 HD
HETATM   12  H           1     -25.315  -3.618  -8.513  0.00  0.00     0.274 HD
ENDBRANCH   8   9
ENDBRANCH   7   8
ENDBRANCH   6   7
ENDBRANCH   5   6
BRANCH   5  13
HETATM   13  C           1     -20.068  -5.912  -7.181  0.00  0.00     0.196 C 
HETATM   14  O           1     -19.674  -5.160  -8.099  0.00  0.00    -0.646 OA
HETATM   15  O           1     -19.395  -6.916  -6.863  0.00  0.00    -0.646 OA
ENDBRANCH   5  13
ENDBRANCH   2   5
BRANCH   1  16
HETATM   16  C           1     -21.310  -6.585  -2.754  0.00  0.00     0.278 C 
BRANCH  16  17
HETATM   17  N           1     -22.340  -5.723  -2.085  0.00  0.00    -0.066 N 
HETATM   18  H           1     -22.358  -4.784  -2.544  0.00  0.00     0.275 HD
HETATM   19  H           1     -23.280  -6.173  -2.173  0.00  0.00     0.275 HD
HETATM   20  H           1     -22.100  -5.612  -1.075  0.00  0.00     0.275 HD
ENDBRANCH  16  17
BRANCH  16  21
HETATM   21  C           1     -21.397  -8.000  -2.199  0.00  0.00     0.021 C 
HETATM   22  C           1     -19.993  -8.559  -2.010  0.00  0.00     0.012 C 
BRANCH  21  23
HETATM   23  C           1     -22.118  -7.977  -0.858  0.00  0.00     0.002 C 
HETATM   24  C           1     -21.242  -8.630   0.202  0.00  0.00     0.005 C 
ENDBRANCH  21  23
ENDBRANCH  16  21
ENDBRANCH   1  16
TORSDOF 10
ENDMDL
MODEL 7
REMARK VINA RESULT:      -5.4      1.657      5.900
REMARK  10 active torsions:
REMARK  status: ('A' for Active; 'I' for Inactive)
REMARK       I    between atoms: C_4  and  N_5 
REMARK    1  A    between atoms: C_4  and  C_19 
REMARK    2  A    between atoms: N_5  and  C_8 
REMARK    3  A    between atoms: C_8  and  C_20 
REMARK    4  A    between atoms: C_8  and  C_9 
REMARK    5  A    between atoms: N_10  and  C_11 
REMARK    6  A    between atoms: C_11  and  C_21 
REMARK    7  A    between atoms: C_13  and  C_18 
REMARK    8  A    between atoms: N_15  and  C_19 
REMARK    9  A    between atoms: C_18  and  C_19 
REMARK   10  A    between atoms: C_20  and  C_21 
ROOT
HETATM    1  C           1     -35.877  -0.905 -13.053  0.00  0.00     0.249 C 
HETATM    2  N           1     -34.831  -1.788 -13.073  0.00  0.00    -0.345 N 
HETATM    3  O           1     -36.717  -0.983 -12.189  0.00  0.00    -0.271 OA
HETATM    4  H           1     -34.127  -1.723 -13.797  0.00  0.00     0.163 HD
ENDROOT
BRANCH   2   5
HETATM    5  C           1     -34.732  -2.817 -12.056  0.00  0.00     0.185 C 
BRANCH   5   6
HETATM    6  C           1     -34.281  -4.122 -12.697  0.00  0.00     0.038 C 
BRANCH   6   7
HETATM    7  C           1     -34.957  -5.294 -11.996  0.00  0.00     0.030 C 
BRANCH   7   8
HETATM    8  C           1     -33.945  -6.005 -11.105  0.00  0.00     0.230 C 
BRANCH   8   9
HETATM    9  N           1     -34.465  -7.365 -10.744  0.00  0.00    -0.079 N 
HETATM   10  H           1     -33.664  -8.028 -10.645  0.00  0.00     0.274 HD
HETATM   11  H           1     -35.107  -7.702 -11.496  0.00  0.00     0.274 HD
HETATM   12  H           1     -34.985  -7.310  -9.840  0.00  0.00     0.274 HD
ENDBRANCH   8   9
ENDBRANCH   7   8
ENDBRANCH   6   7
ENDBRANCH   5   6
BRANCH   5  13
HETATM   13  C           1     -33.727  -2.395 -11.011  0.00  0.00     0.196 C 
HETATM   14  O           1     -32.542  -2.785 -11.091  0.00  0.00    -0.646 OA
HETATM   15  O           1     -34.080  -1.656 -10.066  0.00  0.00    -0.646 OA
ENDBRANCH   5  13
ENDBRANCH   2   5
BRANCH   1  16
HETATM   16  C           1     -35.981   0.165 -14.111  0.00  0.00     0.278 C 
BRANCH  16  17
HETATM   17  N           1     -34.605   0.624 -14.495  0.00  0.00    -0.066 N 
HETATM   18  H           1     -34.328   0.175 -15.398  0.00  0.00     0.275 HD
HETATM   19  H           1     -34.604   1.663 -14.608  0.00  0.00     0.275 HD
HETATM   20  H           1     -33.926   0.353 -13.750  0.00  0.00     0.275 HD
ENDBRANCH  16  17
BRANCH  16  21
HETATM   21  C           1     -36.688  -0.398 -15.336  0.00  0.00     0.021 C 
HETATM   22  C           1     -37.872   0.491 -15.694  0.00  0.00     0.012 C 
BRANCH  21  23
HETATM   23  C           1     -35.715  -0.442 -16.508  0.00  0.00     0.002 C 
HETATM   24  C           1     -35.246  -1.873 -16.727  0.00  0.00     0.005 C 
ENDBRANCH  21  23
ENDBRANCH  16  21
ENDBRANCH   1  16
TORSDOF 10
ENDMDL
MODEL 8
REMARK VINA RESULT:      -5.3     13.600     15.642
REMARK  10 active torsions:
REMARK  status: ('A' for Active; 'I' for Inactive)
REMARK       I    between atoms: C_4  and  N_5 
REMARK    1  A    between atoms: C_4  and  C_19 
REMARK    2  A    between atoms: N_5  and  C_8 
REMARK    3  A    between atoms: C_8  and  C_20 
REMARK    4  A    between atoms: C_8  and  C_9 
REMARK    5  A    between atoms: N_10  and  C_11 
REMARK    6  A    between atoms: C_11  and  C_21 
REMARK    7  A    between atoms: C_13  and  C_18 
REMARK    8  A    between atoms: N_15  and  C_19 
REMARK    9  A    between atoms: C_18  and  C_19 
REMARK   10  A    between atoms: C_20  and  C_21 
ROOT
HETATM    1  C           1     -21.632  -7.115  -5.342  0.00  0.00     0.249 C 
HETATM    2  N           1     -21.876  -5.800  -5.633  0.00  0.00    -0.345 N 
HETATM    3  O           1     -21.105  -7.827  -6.164  0.00  0.00    -0.271 OA
HETATM    4  H           1     -22.319  -5.203  -4.946  0.00  0.00     0.163 HD
ENDROOT
BRANCH   2   5
HETATM    5  C           1     -21.501  -5.261  -6.926  0.00  0.00     0.185 C 
BRANCH   5   6
HETATM    6  C           1     -22.552  -4.259  -7.383  0.00  0.00     0.038 C 
BRANCH   6   7
HETATM    7  C           1     -23.029  -4.624  -8.783  0.00  0.00     0.030 C 
BRANCH   7   8
HETATM    8  C           1     -23.862  -3.481  -9.350  0.00  0.00     0.230 C 
BRANCH   8   9
HETATM    9  N           1     -25.196  -4.005  -9.792  0.00  0.00    -0.079 N 
HETATM   10  H           1     -25.074  -4.588 -10.650  0.00  0.00     0.274 HD
HETATM   11  H           1     -25.831  -3.202 -10.002  0.00  0.00     0.274 HD
HETATM   12  H           1     -25.611  -4.587  -9.030  0.00  0.00     0.274 HD
ENDBRANCH   8   9
ENDBRANCH   7   8
ENDBRANCH   6   7
ENDBRANCH   5   6
BRANCH   5  13
HETATM   13  C           1     -20.163  -4.572  -6.814  0.00  0.00     0.196 C 
HETATM   14  O           1     -19.589  -4.497  -5.706  0.00  0.00    -0.646 OA
HETATM   15  O           1     -19.628  -4.075  -7.829  0.00  0.00    -0.646 OA
ENDBRANCH   5  13
ENDBRANCH   2   5
BRANCH   1  16
HETATM   16  C           1     -22.023  -7.675  -3.998  0.00  0.00     0.278 C 
BRANCH  16  17
HETATM   17  N           1     -21.731  -9.146  -3.965  0.00  0.00    -0.066 N 
HETATM   18  H           1     -22.568  -9.674  -4.304  0.00  0.00     0.275 HD
HETATM   19  H           1     -20.914  -9.353  -4.584  0.00  0.00     0.275 HD
HETATM   20  H           1     -21.510  -9.436  -2.987  0.00  0.00     0.275 HD
ENDBRANCH  16  17
BRANCH  16  21
HETATM   21  C           1     -21.227  -6.977  -2.904  0.00  0.00     0.021 C 
HETATM   22  C           1     -22.172  -6.169  -2.024  0.00  0.00     0.012 C 
BRANCH  21  23
HETATM   23  C           1     -20.508  -8.018  -2.056  0.00  0.00     0.002 C 
HETATM   24  C           1     -21.144  -8.075  -0.674  0.00  0.00     0.005 C 
ENDBRANCH  21  23
ENDBRANCH  16  21
ENDBRANCH   1  16
TORSDOF 10
ENDMDL
MODEL 9
REMARK VINA RESULT:      -5.3     14.462     17.220
REMARK  10 active torsions:
REMARK  status: ('A' for Active; 'I' for Inactive)
REMARK       I    between atoms: C_4  and  N_5 
REMARK    1  A    between atoms: C_4  and  C_19 
REMARK    2  A    between atoms: N_5  and  C_8 
REMARK    3  A    between atoms: C_8  and  C_20 
REMARK    4  A    between atoms: C_8  and  C_9 
REMARK    5  A    between atoms: N_10  and  C_11 
REMARK    6  A    between atoms: C_11  and  C_21 
REMARK    7  A    between atoms: C_13  and  C_18 
REMARK    8  A    between atoms: N_15  and  C_19 
REMARK    9  A    between atoms: C_18  and  C_19 
REMARK   10  A    between atoms: C_20  and  C_21 
ROOT
HETATM    1  C           1     -21.721  -5.553  -5.812  0.00  0.00     0.249 C 
HETATM    2  N           1     -20.986  -6.393  -5.020  0.00  0.00    -0.345 N 
HETATM    3  O           1     -22.928  -5.607  -5.792  0.00  0.00    -0.271 OA
HETATM    4  H           1     -19.975  -6.349  -5.037  0.00  0.00     0.163 HD
ENDROOT
BRANCH   2   5
HETATM    5  C           1     -21.656  -7.347  -4.156  0.00  0.00     0.185 C 
BRANCH   5   6
HETATM    6  C           1     -20.942  -8.689  -4.233  0.00  0.00     0.038 C 
BRANCH   6   7
HETATM    7  C           1     -19.644  -8.531  -5.017  0.00  0.00     0.030 C 
BRANCH   7   8
HETATM    8  C           1     -18.539  -9.329  -4.336  0.00  0.00     0.230 C 
BRANCH   8   9
HETATM    9  N           1     -18.698  -9.235  -2.847  0.00  0.00    -0.079 N 
HETATM   10  H           1     -19.589  -9.703  -2.563  0.00  0.00     0.274 HD
HETATM   11  H           1     -18.725  -8.230  -2.563  0.00  0.00     0.274 HD
HETATM   12  H           1     -17.892  -9.708  -2.381  0.00  0.00     0.274 HD
ENDBRANCH   8   9
ENDBRANCH   7   8
ENDBRANCH   6   7
ENDBRANCH   5   6
BRANCH   5  13
HETATM   13  C           1     -21.628  -6.842  -2.734  0.00  0.00     0.196 C 
HETATM   14  O           1     -20.835  -7.344  -1.908  0.00  0.00    -0.646 OA
HETATM   15  O           1     -22.397  -5.922  -2.382  0.00  0.00    -0.646 OA
ENDBRANCH   5  13
ENDBRANCH   2   5
BRANCH   1  16
HETATM   16  C           1     -21.025  -4.562  -6.711  0.00  0.00     0.278 C 
BRANCH  16  17
HETATM   17  N           1     -19.540  -4.696  -6.548  0.00  0.00    -0.066 N 
HETATM   18  H           1     -19.088  -4.717  -7.491  0.00  0.00     0.275 HD
HETATM   19  H           1     -19.175  -3.882  -6.003  0.00  0.00     0.275 HD
HETATM   20  H           1     -19.324  -5.582  -6.039  0.00  0.00     0.275 HD
ENDBRANCH  16  17
BRANCH  16  21
HETATM   21  C           1     -21.403  -4.836  -8.160  0.00  0.00     0.021 C 
HETATM   22  C           1     -22.383  -3.773  -8.640  0.00  0.00     0.012 C 
BRANCH  21  23
HETATM   23  C           1     -20.151  -4.801  -9.026  0.00  0.00     0.002 C 
HETATM   24  C           1     -20.500  -4.252 -10.403  0.00  0.00     0.005 C 
ENDBRANCH  21  23
ENDBRANCH  16  21
ENDBRANCH   1  16
TORSDOF 10
ENDMDL
