MODEL 1
REMARK VINA RESULT:      -5.9      0.000      0.000
REMARK  10 active torsions:
REMARK  status: ('A' for Active; 'I' for Inactive)
REMARK    1  A    between atoms: O_1  and  C_2 
REMARK    2  A    between atoms: C_2  and  C_3 
REMARK    3  A    between atoms: C_3  and  C_4 
REMARK    4  A    between atoms: C_3  and  N_18 
REMARK    5  A    between atoms: N_9  and  C_16 
REMARK    6  A    between atoms: O_12  and  P_13 
REMARK    7  A    between atoms: P_13  and  O_14 
REMARK    8  A    between atoms: O_14  and  C_15 
REMARK    9  A    between atoms: C_15  and  C_16 
REMARK   10  A    between atoms: C_16  and  C_17 
REMARK       I    between atoms: C_17  and  N_18 
ROOT
HETATM    1  C           1     -21.095  -5.575  -7.102  0.00  0.00     0.298 C 
ENDROOT
BRANCH   1   2
HETATM    2  N           1     -19.819  -6.157  -7.635  0.00  0.00    -0.064 N 
HETATM    3  H           1     -19.665  -7.102  -7.216  0.00  0.00     0.275 HD
HETATM    4  H           1     -19.882  -6.243  -8.674  0.00  0.00     0.275 HD
HETATM    5  H           1     -19.020  -5.532  -7.384  0.00  0.00     0.275 HD
ENDBRANCH   1   2
BRANCH   1   6
HETATM    6  C           1     -20.839  -4.957  -5.734  0.00  0.00     0.224 C 
BRANCH   6   7
HETATM    7  O           1     -20.567  -5.972  -4.806  0.00  0.00    -0.287 OA
BRANCH   7   8
HETATM    8  P           1     -21.844  -6.574  -4.021  0.00  0.00     0.406 P 
HETATM    9  O           1     -21.678  -8.036  -3.860  0.00  0.00    -0.624 OA
HETATM   10  O           1     -23.073  -6.299  -4.799  0.00  0.00    -0.624 OA
BRANCH   8  11
HETATM   11  O           1     -21.961  -5.882  -2.568  0.00  0.00    -0.300 OA
HETATM   12  H           1     -21.793  -4.968  -2.717  0.00  0.00     0.223 HD
ENDBRANCH   8  11
ENDBRANCH   7   8
ENDBRANCH   6   7
ENDBRANCH   1   6
BRANCH   1  13
HETATM   13  C           1     -21.596  -4.513  -8.050  0.00  0.00     0.251 C 
HETATM   14  O           1     -21.568  -3.350  -7.723  0.00  0.00    -0.271 OA
HETATM   15  N           1     -22.082  -4.866  -9.280  0.00  0.00    -0.343 N 
HETATM   16  H           1     -22.104  -5.840  -9.555  0.00  0.00     0.163 HD
BRANCH  15  17
HETATM   17  C           1     -22.563  -3.845 -10.190  0.00  0.00     0.209 C 
BRANCH  17  18
HETATM   18  C           1     -21.955  -4.068 -11.569  0.00  0.00     0.200 C 
BRANCH  18  19
HETATM   19  O           1     -22.912  -4.647 -12.414  0.00  0.00    -0.398 OA
HETATM   20  H           1     -23.342  -5.323 -11.918  0.00  0.00     0.209 HD
ENDBRANCH  18  19
ENDBRANCH  17  18
BRANCH  17  21
HETATM   21  C           1     -24.066  -3.924 -10.284  0.00  0.00     0.198 C 
HETATM   22  O           1     -24.663  -4.952  -9.899  0.00  0.00    -0.646 OA
HETATM   23  O           1     -24.715  -2.961 -10.747  0.00  0.00    -0.646 OA
ENDBRANCH  17  21
ENDBRANCH  15  17
ENDBRANCH   1  13
TORSDOF 10
ENDMDL
MODEL 2
REMARK VINA RESULT:      -5.8      0.897      1.367
REMARK  10 active torsions:
REMARK  status: ('A' for Active; 'I' for Inactive)
REMARK    1  A    between atoms: O_1  and  C_2 
REMARK    2  A    between atoms: C_2  and  C_3 
REMARK    3  A    between atoms: C_3  and  C_4 
REMARK    4  A    between atoms: C_3  and  N_18 
REMARK    5  A    between atoms: N_9  and  C_16 
REMARK    6  A    between atoms: O_12  and  P_13 
REMARK    7  A    between atoms: P_13  and  O_14 
REMARK    8  A    between atoms: O_14  and  C_15 
REMARK    9  A    between atoms: C_15  and  C_16 
REMARK   10  A    between atoms: C_16  and  C_17 
REMARK       I    between atoms: C_17  and  N_18 
ROOT
HETATM    1  C           1     -20.421  -5.179  -7.682  0.00  0.00     0.298 C 
ENDROOT
BRANCH   1   2
HETATM    2  N           1     -19.056  -4.649  -7.357  0.00  0.00    -0.064 N 
HETATM    3  H           1     -18.435  -5.438  -7.070  0.00  0.00     0.275 HD
HETATM    4  H           1     -18.655  -4.179  -8.201  0.00  0.00     0.275 HD
HETATM    5  H           1     -19.127  -3.960  -6.575  0.00  0.00     0.275 HD
ENDBRANCH   1   2
BRANCH   1   6
HETATM    6  C           1     -21.341  -4.981  -6.484  0.00  0.00     0.224 C 
BRANCH   6   7
HETATM    7  O           1     -20.710  -5.462  -5.327  0.00  0.00    -0.287 OA
BRANCH   7   8
HETATM    8  P           1     -21.617  -6.381  -4.357  0.00  0.00     0.406 P 
HETATM    9  O           1     -23.008  -6.407  -4.863  0.00  0.00    -0.624 OA
HETATM   10  O           1     -21.600  -5.818  -2.988  0.00  0.00    -0.624 OA
BRANCH   8  11
HETATM   11  O           1     -21.026  -7.883  -4.328  0.00  0.00    -0.300 OA
HETATM   12  H           1     -20.291  -7.846  -3.741  0.00  0.00     0.223 HD
ENDBRANCH   8  11
ENDBRANCH   7   8
ENDBRANCH   6   7
ENDBRANCH   1   6
BRANCH   1  13
HETATM   13  C           1     -20.978  -4.437  -8.872  0.00  0.00     0.251 C 
HETATM   14  O           1     -20.275  -3.673  -9.490  0.00  0.00    -0.271 OA
HETATM   15  N           1     -22.279  -4.629  -9.252  0.00  0.00    -0.343 N 
HETATM   16  H           1     -22.868  -5.269  -8.735  0.00  0.00     0.163 HD
BRANCH  15  17
HETATM   17  C           1     -22.813  -3.916 -10.396  0.00  0.00     0.209 C 
BRANCH  17  18
HETATM   18  C           1     -22.335  -4.585 -11.678  0.00  0.00     0.200 C 
BRANCH  18  19
HETATM   19  O           1     -23.442  -4.962 -12.450  0.00  0.00    -0.398 OA
HETATM   20  H           1     -24.116  -4.323 -12.294  0.00  0.00     0.209 HD
ENDBRANCH  18  19
ENDBRANCH  17  18
BRANCH  17  21
HETATM   21  C           1     -24.321  -3.943 -10.346  0.00  0.00     0.198 C 
HETATM   22  O           1     -24.909  -4.864  -9.740  0.00  0.00    -0.646 OA
HETATM   23  O           1     -24.981  -3.044 -10.911  0.00  0.00    -0.646 OA
ENDBRANCH  17  21
ENDBRANCH  15  17
ENDBRANCH   1  13
TORSDOF 10
ENDMDL
MODEL 3
REMARK VINA RESULT:      -5.6      2.596      6.655
REMARK  10 active torsions:
REMARK  status: ('A' for Active; 'I' for Inactive)
REMARK    1  A    between atoms: O_1  and  C_2 
REMARK    2  A    between atoms: C_2  and  C_3 
REMARK    3  A    between atoms: C_3  and  C_4 
REMARK    4  A    between atoms: C_3  and  N_18 
REMARK    5  A    between atoms: N_9  and  C_16 
REMARK    6  A    between atoms: O_12  and  P_13 
REMARK    7  A    between atoms: P_13  and  O_14 
REMARK    8  A    between atoms: O_14  and  C_15 
REMARK    9  A    between atoms: C_15  and  C_16 
REMARK   10  A    between atoms: C_16  and  C_17 
REMARK       I    between atoms: C_17  and  N_18 
ROOT
HETATM    1  C           1     -22.303  -4.397  -7.519  0.00  0.00     0.298 C 
ENDROOT
BRANCH   1   2
HETATM    2  N           1     -21.909  -2.950  -7.515  0.00  0.00    -0.064 N 
HETATM    3  H           1     -22.082  -2.539  -8.460  0.00  0.00     0.275 HD
HETATM    4  H           1     -22.475  -2.436  -6.803  0.00  0.00     0.275 HD
HETATM    5  H           1     -20.893  -2.866  -7.282  0.00  0.00     0.275 HD
ENDBRANCH   1   2
BRANCH   1   6
HETATM    6  C           1     -22.177  -4.954  -8.931  0.00  0.00     0.224 C 
BRANCH   6   7
HETATM    7  O           1     -23.437  -4.954  -9.547  0.00  0.00    -0.287 OA
BRANCH   7   8
HETATM    8  P           1     -23.591  -4.000 -10.841  0.00  0.00     0.406 P 
HETATM    9  O           1     -22.489  -3.012 -10.858  0.00  0.00    -0.624 OA
HETATM   10  O           1     -24.889  -3.291 -10.777  0.00  0.00    -0.624 OA
BRANCH   8  11
HETATM   11  O           1     -23.532  -4.896 -12.183  0.00  0.00    -0.300 OA
HETATM   12  H           1     -23.776  -4.310 -12.879  0.00  0.00     0.223 HD
ENDBRANCH   8  11
ENDBRANCH   7   8
ENDBRANCH   6   7
ENDBRANCH   1   6
BRANCH   1  13
HETATM   13  C           1     -21.396  -5.167  -6.590  0.00  0.00     0.251 C 
HETATM   14  O           1     -20.214  -5.247  -6.830  0.00  0.00    -0.271 OA
HETATM   15  N           1     -21.911  -5.773  -5.476  0.00  0.00    -0.343 N 
HETATM   16  H           1     -22.900  -5.706  -5.275  0.00  0.00     0.163 HD
BRANCH  15  17
HETATM   17  C           1     -21.038  -6.512  -4.585  0.00  0.00     0.209 C 
BRANCH  17  18
HETATM   18  C           1     -21.294  -6.075  -3.148  0.00  0.00     0.200 C 
BRANCH  18  19
HETATM   19  O           1     -22.674  -6.056  -2.904  0.00  0.00    -0.398 OA
HETATM   20  H           1     -23.101  -6.051  -3.744  0.00  0.00     0.209 HD
ENDBRANCH  18  19
ENDBRANCH  17  18
BRANCH  17  21
HETATM   21  C           1     -21.317  -7.989  -4.719  0.00  0.00     0.198 C 
HETATM   22  O           1     -21.671  -8.651  -3.720  0.00  0.00    -0.646 OA
HETATM   23  O           1     -21.194  -8.550  -5.830  0.00  0.00    -0.646 OA
ENDBRANCH  17  21
ENDBRANCH  15  17
ENDBRANCH   1  13
TORSDOF 10
ENDMDL
MODEL 4
REMARK VINA RESULT:      -5.6      2.486      6.111
REMARK  10 active torsions:
REMARK  status: ('A' for Active; 'I' for Inactive)
REMARK    1  A    between atoms: O_1  and  C_2 
REMARK    2  A    between atoms: C_2  and  C_3 
REMARK    3  A    between atoms: C_3  and  C_4 
REMARK    4  A    between atoms: C_3  and  N_18 
REMARK    5  A    between atoms: N_9  and  C_16 
REMARK    6  A    between atoms: O_12  and  P_13 
REMARK    7  A    between atoms: P_13  and  O_14 
REMARK    8  A    between atoms: O_14  and  C_15 
REMARK    9  A    between atoms: C_15  and  C_16 
REMARK   10  A    between atoms: C_16  and  C_17 
REMARK       I    between atoms: C_17  and  N_18 
ROOT
HETATM    1  C           1     -21.082  -4.302  -7.395  0.00  0.00     0.298 C 
ENDROOT
BRANCH   1   2
HETATM    2  N           1     -19.608  -4.390  -7.133  0.00  0.00    -0.064 N 
HETATM    3  H           1     -19.198  -3.428  -7.117  0.00  0.00     0.275 HD
HETATM    4  H           1     -19.444  -4.853  -6.210  0.00  0.00     0.275 HD
HETATM    5  H           1     -19.152  -4.948  -7.890  0.00  0.00     0.275 HD
ENDBRANCH   1   2
BRANCH   1   6
HETATM    6  C           1     -21.363  -4.676  -8.844  0.00  0.00     0.224 C 
BRANCH   6   7
HETATM    7  O           1     -22.054  -3.629  -9.472  0.00  0.00    -0.287 OA
BRANCH   7   8
HETATM    8  P           1     -23.617  -3.897  -9.779  0.00  0.00     0.406 P 
HETATM    9  O           1     -23.778  -5.248 -10.364  0.00  0.00    -0.624 OA
HETATM   10  O           1     -24.111  -2.882 -10.737  0.00  0.00    -0.624 OA
BRANCH   8  11
HETATM   11  O           1     -24.462  -3.799  -8.407  0.00  0.00    -0.300 OA
HETATM   12  H           1     -24.141  -3.026  -7.977  0.00  0.00     0.223 HD
ENDBRANCH   8  11
ENDBRANCH   7   8
ENDBRANCH   6   7
ENDBRANCH   1   6
BRANCH   1  13
HETATM   13  C           1     -21.812  -5.253  -6.478  0.00  0.00     0.251 C 
HETATM   14  O           1     -22.994  -5.107  -6.275  0.00  0.00    -0.271 OA
HETATM   15  N           1     -21.136  -6.281  -5.878  0.00  0.00    -0.343 N 
HETATM   16  H           1     -20.146  -6.403  -6.049  0.00  0.00     0.163 HD
BRANCH  15  17
HETATM   17  C           1     -21.838  -7.194  -4.997  0.00  0.00     0.209 C 
BRANCH  17  18
HETATM   18  C           1     -21.320  -8.609  -5.218  0.00  0.00     0.200 C 
BRANCH  18  19
HETATM   19  O           1     -19.966  -8.560  -5.581  0.00  0.00    -0.398 OA
HETATM   20  H           1     -19.840  -9.206  -6.254  0.00  0.00     0.209 HD
ENDBRANCH  18  19
ENDBRANCH  17  18
BRANCH  17  21
HETATM   21  C           1     -21.602  -6.789  -3.563  0.00  0.00     0.198 C 
HETATM   22  O           1     -20.638  -7.268  -2.929  0.00  0.00    -0.646 OA
HETATM   23  O           1     -22.372  -5.974  -3.009  0.00  0.00    -0.646 OA
ENDBRANCH  17  21
ENDBRANCH  15  17
ENDBRANCH   1  13
TORSDOF 10
ENDMDL
MODEL 5
REMARK VINA RESULT:      -5.2      3.372      5.068
REMARK  10 active torsions:
REMARK  status: ('A' for Active; 'I' for Inactive)
REMARK    1  A    between atoms: O_1  and  C_2 
REMARK    2  A    between atoms: C_2  and  C_3 
REMARK    3  A    between atoms: C_3  and  C_4 
REMARK    4  A    between atoms: C_3  and  N_18 
REMARK    5  A    between atoms: N_9  and  C_16 
REMARK    6  A    between atoms: O_12  and  P_13 
REMARK    7  A    between atoms: P_13  and  O_14 
REMARK    8  A    between atoms: O_14  and  C_15 
REMARK    9  A    between atoms: C_15  and  C_16 
REMARK   10  A    between atoms: C_16  and  C_17 
REMARK       I    between atoms: C_17  and  N_18 
ROOT
HETATM    1  C           1     -21.352  -6.714  -2.796  0.00  0.00     0.298 C 
ENDROOT
BRANCH   1   2
HETATM    2  N           1     -22.451  -5.888  -2.196  0.00  0.00    -0.064 N 
HETATM    3  H           1     -23.136  -6.514  -1.716  0.00  0.00     0.275 HD
HETATM    4  H           1     -22.047  -5.218  -1.504  0.00  0.00     0.275 HD
HETATM    5  H           1     -22.939  -5.356  -2.953  0.00  0.00     0.275 HD
ENDBRANCH   1   2
BRANCH   1   6
HETATM    6  C           1     -21.430  -8.134  -2.251  0.00  0.00     0.224 C 
BRANCH   6   7
HETATM    7  O           1     -20.815  -8.187  -0.992  0.00  0.00    -0.287 OA
BRANCH   7   8
HETATM    8  P           1     -21.753  -8.663   0.233  0.00  0.00     0.406 P 
HETATM    9  O           1     -21.026  -8.476   1.510  0.00  0.00    -0.624 OA
HETATM   10  O           1     -22.095 -10.093   0.064  0.00  0.00    -0.624 OA
BRANCH   8  11
HETATM   11  O           1     -23.107  -7.783   0.251  0.00  0.00    -0.300 OA
HETATM   12  H           1     -23.788  -8.378  -0.012  0.00  0.00     0.223 HD
ENDBRANCH   8  11
ENDBRANCH   7   8
ENDBRANCH   6   7
ENDBRANCH   1   6
BRANCH   1  13
HETATM   13  C           1     -21.506  -6.740  -4.297  0.00  0.00     0.251 C 
HETATM   14  O           1     -21.696  -7.789  -4.866  0.00  0.00    -0.271 OA
HETATM   15  N           1     -21.430  -5.576  -5.014  0.00  0.00    -0.343 N 
HETATM   16  H           1     -21.271  -4.698  -4.537  0.00  0.00     0.163 HD
BRANCH  15  17
HETATM   17  C           1     -21.578  -5.602  -6.456  0.00  0.00     0.209 C 
BRANCH  17  18
HETATM   18  C           1     -22.659  -4.613  -6.872  0.00  0.00     0.200 C 
BRANCH  18  19
HETATM   19  O           1     -22.060  -3.456  -7.390  0.00  0.00    -0.398 OA
HETATM   20  H           1     -22.737  -2.969  -7.827  0.00  0.00     0.209 HD
ENDBRANCH  18  19
ENDBRANCH  17  18
BRANCH  17  21
HETATM   21  C           1     -20.269  -5.219  -7.102  0.00  0.00     0.198 C 
HETATM   22  O           1     -19.383  -4.652  -6.429  0.00  0.00    -0.646 OA
HETATM   23  O           1     -20.072  -5.470  -8.311  0.00  0.00    -0.646 OA
ENDBRANCH  17  21
ENDBRANCH  15  17
ENDBRANCH   1  13
TORSDOF 10
ENDMDL
MODEL 6
REMARK VINA RESULT:      -4.8      4.709      7.955
REMARK  10 active torsions:
REMARK  status: ('A' for Active; 'I' for Inactive)
REMARK    1  A    between atoms: O_1  and  C_2 
REMARK    2  A    between atoms: C_2  and  C_3 
REMARK    3  A    between atoms: C_3  and  C_4 
REMARK    4  A    between atoms: C_3  and  N_18 
REMARK    5  A    between atoms: N_9  and  C_16 
REMARK    6  A    between atoms: O_12  and  P_13 
REMARK    7  A    between atoms: P_13  and  O_14 
REMARK    8  A    between atoms: O_14  and  C_15 
REMARK    9  A    between atoms: C_15  and  C_16 
REMARK   10  A    between atoms: C_16  and  C_17 
REMARK       I    between atoms: C_17  and  N_18 
ROOT
HETATM    1  C           1     -19.936  -8.772  -4.560  0.00  0.00     0.298 C 
ENDROOT
BRANCH   1   2
HETATM    2  N           1     -19.591 -10.186  -4.924  0.00  0.00    -0.064 N 
HETATM    3  H           1     -19.021 -10.192  -5.800  0.00  0.00     0.275 HD
HETATM    4  H           1     -19.042 -10.622  -4.149  0.00  0.00     0.275 HD
HETATM    5  H           1     -20.470 -10.730  -5.079  0.00  0.00     0.275 HD
ENDBRANCH   1   2
BRANCH   1   6
HETATM    6  C           1     -21.234  -8.373  -5.249  0.00  0.00     0.224 C 
BRANCH   6   7
HETATM    7  O           1     -20.988  -7.308  -6.128  0.00  0.00    -0.287 OA
BRANCH   7   8
HETATM    8  P           1     -21.388  -5.839  -5.589  0.00  0.00     0.406 P 
HETATM    9  O           1     -20.160  -5.033  -5.401  0.00  0.00    -0.624 OA
HETATM   10  O           1     -22.098  -5.965  -4.297  0.00  0.00    -0.624 OA
BRANCH   8  11
HETATM   11  O           1     -22.349  -5.113  -6.664  0.00  0.00    -0.300 OA
HETATM   12  H           1     -22.057  -4.218  -6.688  0.00  0.00     0.223 HD
ENDBRANCH   8  11
ENDBRANCH   7   8
ENDBRANCH   6   7
ENDBRANCH   1   6
BRANCH   1  13
HETATM   13  C           1     -20.105  -8.667  -3.064  0.00  0.00     0.251 C 
HETATM   14  O           1     -19.172  -8.898  -2.333  0.00  0.00    -0.271 OA
HETATM   15  N           1     -21.317  -8.309  -2.536  0.00  0.00    -0.343 N 
HETATM   16  H           1     -22.098  -8.114  -3.148  0.00  0.00     0.163 HD
BRANCH  15  17
HETATM   17  C           1     -21.479  -8.208  -1.098  0.00  0.00     0.209 C 
BRANCH  17  18
HETATM   18  C           1     -22.439  -7.070  -0.776  0.00  0.00     0.200 C 
BRANCH  18  19
HETATM   19  O           1     -23.418  -7.524   0.119  0.00  0.00    -0.398 OA
HETATM   20  H           1     -23.829  -6.760   0.486  0.00  0.00     0.209 HD
ENDBRANCH  18  19
ENDBRANCH  17  18
BRANCH  17  21
HETATM   21  C           1     -22.036  -9.504  -0.563  0.00  0.00     0.198 C 
HETATM   22  O           1     -22.902 -10.127  -1.214  0.00  0.00    -0.646 OA
HETATM   23  O           1     -21.631  -9.954   0.530  0.00  0.00    -0.646 OA
ENDBRANCH  17  21
ENDBRANCH  15  17
ENDBRANCH   1  13
TORSDOF 10
ENDMDL
MODEL 7
REMARK VINA RESULT:      -4.8      3.810      6.768
REMARK  10 active torsions:
REMARK  status: ('A' for Active; 'I' for Inactive)
REMARK    1  A    between atoms: O_1  and  C_2 
REMARK    2  A    between atoms: C_2  and  C_3 
REMARK    3  A    between atoms: C_3  and  C_4 
REMARK    4  A    between atoms: C_3  and  N_18 
REMARK    5  A    between atoms: N_9  and  C_16 
REMARK    6  A    between atoms: O_12  and  P_13 
REMARK    7  A    between atoms: P_13  and  O_14 
REMARK    8  A    between atoms: O_14  and  C_15 
REMARK    9  A    between atoms: C_15  and  C_16 
REMARK   10  A    between atoms: C_16  and  C_17 
REMARK       I    between atoms: C_17  and  N_18 
ROOT
HETATM    1  C           1     -21.955  -6.847  -4.901  0.00  0.00     0.298 C 
ENDROOT
BRANCH   1   2
HETATM    2  N           1     -22.159  -6.100  -3.616  0.00  0.00    -0.064 N 
HETATM    3  H           1     -23.134  -6.258  -3.273  0.00  0.00     0.275 HD
HETATM    4  H           1     -21.478  -6.442  -2.902  0.00  0.00     0.275 HD
HETATM    5  H           1     -22.011  -5.079  -3.780  0.00  0.00     0.275 HD
ENDBRANCH   1   2
BRANCH   1   6
HETATM    6  C           1     -20.937  -6.109  -5.761  0.00  0.00     0.224 C 
BRANCH   6   7
HETATM    7  O           1     -21.404  -6.036  -7.081  0.00  0.00    -0.287 OA
BRANCH   7   8
HETATM    8  P           1     -21.922  -4.587  -7.570  0.00  0.00     0.406 P 
HETATM    9  O           1     -21.779  -4.484  -9.039  0.00  0.00    -0.624 OA
HETATM   10  O           1     -21.115  -3.531  -6.919  0.00  0.00    -0.624 OA
BRANCH   8  11
HETATM   11  O           1     -23.474  -4.404  -7.165  0.00  0.00    -0.300 OA
HETATM   12  H           1     -23.490  -3.665  -6.582  0.00  0.00     0.223 HD
ENDBRANCH   8  11
ENDBRANCH   7   8
ENDBRANCH   6   7
ENDBRANCH   1   6
BRANCH   1  13
HETATM   13  C           1     -21.447  -8.236  -4.599  0.00  0.00     0.251 C 
HETATM   14  O           1     -21.588  -8.703  -3.494  0.00  0.00    -0.271 OA
HETATM   15  N           1     -20.827  -8.966  -5.577  0.00  0.00    -0.343 N 
HETATM   16  H           1     -20.709  -8.576  -6.503  0.00  0.00     0.163 HD
BRANCH  15  17
HETATM   17  C           1     -20.339 -10.301  -5.285  0.00  0.00     0.209 C 
BRANCH  17  18
HETATM   18  C           1     -21.040 -11.304  -6.192  0.00  0.00     0.200 C 
BRANCH  18  19
HETATM   19  O           1     -20.130 -11.792  -7.141  0.00  0.00    -0.398 OA
HETATM   20  H           1     -20.627 -12.009  -7.911  0.00  0.00     0.209 HD
ENDBRANCH  18  19
ENDBRANCH  17  18
BRANCH  17  21
HETATM   21  C           1     -18.851 -10.356  -5.527  0.00  0.00     0.198 C 
HETATM   22  O           1     -18.162 -11.244  -4.982  0.00  0.00    -0.646 OA
HETATM   23  O           1     -18.308  -9.512  -6.273  0.00  0.00    -0.646 OA
ENDBRANCH  17  21
ENDBRANCH  15  17
ENDBRANCH   1  13
TORSDOF 10
ENDMDL
MODEL 8
REMARK VINA RESULT:      -4.7      4.607      8.425
REMARK  10 active torsions:
REMARK  status: ('A' for Active; 'I' for Inactive)
REMARK    1  A    between atoms: O_1  and  C_2 
REMARK    2  A    between atoms: C_2  and  C_3 
REMARK    3  A    between atoms: C_3  and  C_4 
REMARK    4  A    between atoms: C_3  and  N_18 
REMARK    5  A    between atoms: N_9  and  C_16 
REMARK    6  A    between atoms: O_12  and  P_13 
REMARK    7  A    between atoms: P_13  and  O_14 
REMARK    8  A    between atoms: O_14  and  C_15 
REMARK    9  A    between atoms: C_15  and  C_16 
REMARK   10  A    between atoms: C_16  and  C_17 
REMARK       I    between atoms: C_17  and  N_18 
ROOT
HETATM    1  C           1     -20.868  -7.727  -3.753  0.00  0.00     0.298 C 
ENDROOT
BRANCH   1   2
HETATM    2  N           1     -21.669  -8.667  -4.604  0.00  0.00    -0.064 N 
HETATM    3  H           1     -21.060  -9.455  -4.922  0.00  0.00     0.275 HD
HETATM    4  H           1     -22.468  -9.047  -4.047  0.00  0.00     0.275 HD
HETATM    5  H           1     -22.036  -8.155  -5.438  0.00  0.00     0.275 HD
ENDBRANCH   1   2
BRANCH   1   6
HETATM    6  C           1     -21.570  -6.377  -3.688  0.00  0.00     0.224 C 
BRANCH   6   7
HETATM    7  O           1     -22.286  -6.165  -4.875  0.00  0.00    -0.287 OA
BRANCH   7   8
HETATM    8  P           1     -21.449  -5.533  -6.103  0.00  0.00     0.406 P 
HETATM    9  O           1     -22.330  -4.643  -6.892  0.00  0.00    -0.624 OA
HETATM   10  O           1     -20.945  -6.623  -6.968  0.00  0.00    -0.624 OA
BRANCH   8  11
HETATM   11  O           1     -20.203  -4.683  -5.527  0.00  0.00    -0.300 OA
HETATM   12  H           1     -20.090  -3.972  -6.134  0.00  0.00     0.223 HD
ENDBRANCH   8  11
ENDBRANCH   7   8
ENDBRANCH   6   7
ENDBRANCH   1   6
BRANCH   1  13
HETATM   13  C           1     -20.739  -8.296  -2.361  0.00  0.00     0.251 C 
HETATM   14  O           1     -19.693  -8.781  -2.001  0.00  0.00    -0.271 OA
HETATM   15  N           1     -21.808  -8.262  -1.506  0.00  0.00    -0.343 N 
HETATM   16  H           1     -22.684  -7.855  -1.807  0.00  0.00     0.163 HD
BRANCH  15  17
HETATM   17  C           1     -21.684  -8.809  -0.169  0.00  0.00     0.209 C 
BRANCH  17  18
HETATM   18  C           1     -22.354  -7.870   0.826  0.00  0.00     0.200 C 
BRANCH  18  19
HETATM   19  O           1     -23.711  -7.736   0.502  0.00  0.00    -0.398 OA
HETATM   20  H           1     -23.912  -8.412  -0.122  0.00  0.00     0.209 HD
ENDBRANCH  18  19
ENDBRANCH  17  18
BRANCH  17  21
HETATM   21  C           1     -22.353 -10.160  -0.115  0.00  0.00     0.198 C 
HETATM   22  O           1     -21.778 -11.120   0.441  0.00  0.00    -0.646 OA
HETATM   23  O           1     -23.482 -10.319  -0.626  0.00  0.00    -0.646 OA
ENDBRANCH  17  21
ENDBRANCH  15  17
ENDBRANCH   1  13
TORSDOF 10
ENDMDL
MODEL 9
REMARK VINA RESULT:      -4.6      4.193      8.097
REMARK  10 active torsions:
REMARK  status: ('A' for Active; 'I' for Inactive)
REMARK    1  A    between atoms: O_1  and  C_2 
REMARK    2  A    between atoms: C_2  and  C_3 
REMARK    3  A    between atoms: C_3  and  C_4 
REMARK    4  A    between atoms: C_3  and  N_18 
REMARK    5  A    between atoms: N_9  and  C_16 
REMARK    6  A    between atoms: O_12  and  P_13 
REMARK    7  A    between atoms: P_13  and  O_14 
REMARK    8  A    between atoms: O_14  and  C_15 
REMARK    9  A    between atoms: C_15  and  C_16 
REMARK   10  A    between atoms: C_16  and  C_17 
REMARK       I    between atoms: C_17  and  N_18 
ROOT
HETATM    1  C           1     -20.800  -7.595  -4.545  0.00  0.00     0.298 C 
ENDROOT
BRANCH   1   2
HETATM    2  N           1     -20.282  -8.329  -5.747  0.00  0.00    -0.064 N 
HETATM    3  H           1     -21.049  -8.907  -6.159  0.00  0.00     0.275 HD
HETATM    4  H           1     -19.944  -7.641  -6.457  0.00  0.00     0.275 HD
HETATM    5  H           1     -19.493  -8.952  -5.461  0.00  0.00     0.275 HD
ENDBRANCH   1   2
BRANCH   1   6
HETATM    6  C           1     -21.876  -6.607  -4.978  0.00  0.00     0.224 C 
BRANCH   6   7
HETATM    7  O           1     -21.279  -5.384  -5.316  0.00  0.00    -0.287 OA
BRANCH   7   8
HETATM    8  P           1     -21.427  -4.928  -6.858  0.00  0.00     0.406 P 
HETATM    9  O           1     -21.174  -6.089  -7.741  0.00  0.00    -0.624 OA
HETATM   10  O           1     -20.444  -3.861  -7.151  0.00  0.00    -0.624 OA
BRANCH   8  11
HETATM   11  O           1     -22.919  -4.370  -7.116  0.00  0.00    -0.300 OA
HETATM   12  H           1     -23.482  -5.116  -7.005  0.00  0.00     0.223 HD
ENDBRANCH   8  11
ENDBRANCH   7   8
ENDBRANCH   6   7
ENDBRANCH   1   6
BRANCH   1  13
HETATM   13  C           1     -21.386  -8.583  -3.568  0.00  0.00     0.251 C 
HETATM   14  O           1     -21.948  -9.573  -3.974  0.00  0.00    -0.271 OA
HETATM   15  N           1     -21.282  -8.360  -2.221  0.00  0.00    -0.343 N 
HETATM   16  H           1     -20.811  -7.531  -1.880  0.00  0.00     0.163 HD
BRANCH  15  17
HETATM   17  C           1     -21.846  -9.310  -1.282  0.00  0.00     0.209 C 
BRANCH  17  18
HETATM   18  C           1     -20.722 -10.100  -0.625  0.00  0.00     0.200 C 
BRANCH  18  19
HETATM   19  O           1     -20.821  -9.983   0.769  0.00  0.00    -0.398 OA
HETATM   20  H           1     -20.812 -10.858   1.118  0.00  0.00     0.209 HD
ENDBRANCH  18  19
ENDBRANCH  17  18
BRANCH  17  21
HETATM   21  C           1     -22.627  -8.569  -0.225  0.00  0.00     0.198 C 
HETATM   22  O           1     -23.627  -9.102   0.301  0.00  0.00    -0.646 OA
HETATM   23  O           1     -22.273  -7.422   0.124  0.00  0.00    -0.646 OA
ENDBRANCH  17  21
ENDBRANCH  15  17
ENDBRANCH   1  13
TORSDOF 10
ENDMDL
