MODEL 1
REMARK VINA RESULT:      -7.6      0.000      0.000
REMARK  8 active torsions:
REMARK  status: ('A' for Active; 'I' for Inactive)
REMARK    1  A    between atoms: C_1  and  C_24 
REMARK    2  A    between atoms: C_1  and  C_2 
REMARK    3  A    between atoms: C_1  and  N_17 
REMARK    4  A    between atoms: C_5  and  C_13 
REMARK    5  A    between atoms: C_5  and  C_18 
REMARK    6  A    between atoms: N_6  and  C_13 
REMARK       I    between atoms: C_8  and  N_17 
REMARK    7  A    between atoms: C_8  and  C_13 
REMARK    8  A    between atoms: C_23  and  C_24 
ROOT
HETATM    1  C           1     -21.495  -6.333  -5.482  0.00  0.00     0.278 C 
ENDROOT
BRANCH   1   2
HETATM    2  C           1     -20.942  -5.086  -6.160  0.00  0.00     0.083 C 
BRANCH   2   3
HETATM    3  C           1     -21.862  -4.669  -7.265  0.00  0.00    -0.028 A 
HETATM    4  C           1     -21.499  -4.464  -8.625  0.00  0.00    -0.002 A 
HETATM    5  C           1     -22.655  -4.086  -9.306  0.00  0.00     0.042 A 
HETATM    6  C           1     -20.291  -4.564  -9.342  0.00  0.00     0.014 A 
HETATM    7  N           1     -23.679  -4.065  -8.386  0.00  0.00    -0.365 N 
HETATM    8  C           1     -22.666  -3.801 -10.678  0.00  0.00     0.030 A 
HETATM    9  C           1     -23.210  -4.416  -7.148  0.00  0.00     0.096 A 
HETATM   10  H           1     -24.675  -3.816  -8.601  0.00  0.00     0.165 HD
HETATM   11  C           1     -21.454  -3.908 -11.369  0.00  0.00     0.002 A 
HETATM   12  C           1     -20.283  -4.282 -10.714  0.00  0.00     0.001 A 
ENDBRANCH   2   3
ENDBRANCH   1   2
BRANCH   1  13
HETATM   13  N           1     -21.864  -6.009  -4.064  0.00  0.00    -0.066 N 
HETATM   14  H           1     -20.996  -5.844  -3.507  0.00  0.00     0.275 HD
HETATM   15  H           1     -22.456  -5.147  -4.048  0.00  0.00     0.275 HD
HETATM   16  H           1     -22.397  -6.807  -3.652  0.00  0.00     0.275 HD
ENDBRANCH   1  13
BRANCH   1  17
HETATM   17  C           1     -20.447  -7.418  -5.492  0.00  0.00     0.249 C 
HETATM   18  N           1     -20.467  -8.399  -4.537  0.00  0.00    -0.344 N 
HETATM   19  H           1     -21.186  -8.396  -3.824  0.00  0.00     0.163 HD
HETATM   20  O           1     -19.591  -7.423  -6.343  0.00  0.00    -0.271 OA
BRANCH  18  21
HETATM   21  C           1     -19.460  -9.443  -4.547  0.00  0.00     0.189 C 
BRANCH  21  22
HETATM   22  C           1     -18.995  -9.714  -3.123  0.00  0.00     0.014 C 
HETATM   23  C           1     -17.500  -9.442  -3.017  0.00  0.00     0.012 C 
BRANCH  22  24
HETATM   24  C           1     -19.745  -8.801  -2.161  0.00  0.00     0.002 C 
HETATM   25  C           1     -20.548  -9.645  -1.181  0.00  0.00     0.005 C 
ENDBRANCH  22  24
ENDBRANCH  21  22
BRANCH  21  26
HETATM   26  C           1     -20.049 -10.703  -5.131  0.00  0.00     0.197 C 
HETATM   27  O           1     -20.103 -10.852  -6.372  0.00  0.00    -0.646 OA
HETATM   28  O           1     -20.483 -11.599  -4.375  0.00  0.00    -0.646 OA
ENDBRANCH  21  26
ENDBRANCH  18  21
ENDBRANCH   1  17
TORSDOF 8
ENDMDL
MODEL 2
REMARK VINA RESULT:      -7.3      3.109      7.927
REMARK  8 active torsions:
REMARK  status: ('A' for Active; 'I' for Inactive)
REMARK    1  A    between atoms: C_1  and  C_24 
REMARK    2  A    between atoms: C_1  and  C_2 
REMARK    3  A    between atoms: C_1  and  N_17 
REMARK    4  A    between atoms: C_5  and  C_13 
REMARK    5  A    between atoms: C_5  and  C_18 
REMARK    6  A    between atoms: N_6  and  C_13 
REMARK       I    between atoms: C_8  and  N_17 
REMARK    7  A    between atoms: C_8  and  C_13 
REMARK    8  A    between atoms: C_23  and  C_24 
ROOT
HETATM    1  C           1     -21.056  -5.353  -6.304  0.00  0.00     0.278 C 
ENDROOT
BRANCH   1   2
HETATM    2  C           1     -22.251  -5.964  -5.584  0.00  0.00     0.083 C 
BRANCH   2   3
HETATM    3  C           1     -21.790  -7.106  -4.733  0.00  0.00    -0.028 A 
HETATM    4  C           1     -21.834  -7.165  -3.312  0.00  0.00    -0.002 A 
HETATM    5  C           1     -21.309  -8.401  -2.935  0.00  0.00     0.042 A 
HETATM    6  C           1     -22.273  -6.279  -2.309  0.00  0.00     0.014 A 
HETATM    7  N           1     -20.961  -9.062  -4.092  0.00  0.00    -0.365 N 
HETATM    8  C           1     -21.199  -8.799  -1.597  0.00  0.00     0.030 A 
HETATM    9  C           1     -21.247  -8.288  -5.185  0.00  0.00     0.096 A 
HETATM   10  H           1     -20.537 -10.021  -4.130  0.00  0.00     0.165 HD
HETATM   11  C           1     -21.642  -7.903  -0.618  0.00  0.00     0.002 A 
HETATM   12  C           1     -22.170  -6.662  -0.966  0.00  0.00     0.001 A 
ENDBRANCH   2   3
ENDBRANCH   1   2
BRANCH   1  13
HETATM   13  N           1     -20.139  -4.717  -5.301  0.00  0.00    -0.066 N 
HETATM   14  H           1     -19.396  -4.179  -5.800  0.00  0.00     0.275 HD
HETATM   15  H           1     -20.687  -4.069  -4.692  0.00  0.00     0.275 HD
HETATM   16  H           1     -19.698  -5.460  -4.714  0.00  0.00     0.275 HD
ENDBRANCH   1  13
BRANCH   1  17
HETATM   17  C           1     -21.537  -4.306  -7.279  0.00  0.00     0.249 C 
HETATM   18  N           1     -22.176  -4.683  -8.429  0.00  0.00    -0.344 N 
HETATM   19  H           1     -22.326  -5.665  -8.626  0.00  0.00     0.163 HD
HETATM   20  O           1     -21.358  -3.135  -7.043  0.00  0.00    -0.271 OA
BRANCH  18  21
HETATM   21  C           1     -22.637  -3.676  -9.365  0.00  0.00     0.189 C 
BRANCH  21  22
HETATM   22  C           1     -21.862  -3.802 -10.670  0.00  0.00     0.014 C 
HETATM   23  C           1     -22.248  -2.661 -11.601  0.00  0.00     0.012 C 
BRANCH  22  24
HETATM   24  C           1     -20.368  -3.738 -10.381  0.00  0.00     0.002 C 
HETATM   25  C           1     -19.758  -5.123 -10.549  0.00  0.00     0.005 C 
ENDBRANCH  22  24
ENDBRANCH  21  22
BRANCH  21  26
HETATM   26  C           1     -24.108  -3.878  -9.634  0.00  0.00     0.197 C 
HETATM   27  O           1     -24.914  -2.942  -9.439  0.00  0.00    -0.646 OA
HETATM   28  O           1     -24.522  -4.981 -10.052  0.00  0.00    -0.646 OA
ENDBRANCH  21  26
ENDBRANCH  18  21
ENDBRANCH   1  17
TORSDOF 8
ENDMDL
MODEL 3
REMARK VINA RESULT:      -7.1      2.232      2.960
REMARK  8 active torsions:
REMARK  status: ('A' for Active; 'I' for Inactive)
REMARK    1  A    between atoms: C_1  and  C_24 
REMARK    2  A    between atoms: C_1  and  C_2 
REMARK    3  A    between atoms: C_1  and  N_17 
REMARK    4  A    between atoms: C_5  and  C_13 
REMARK    5  A    between atoms: C_5  and  C_18 
REMARK    6  A    between atoms: N_6  and  C_13 
REMARK       I    between atoms: C_8  and  N_17 
REMARK    7  A    between atoms: C_8  and  C_13 
REMARK    8  A    between atoms: C_23  and  C_24 
ROOT
HETATM    1  C           1     -20.473  -6.057  -5.890  0.00  0.00     0.278 C 
ENDROOT
BRANCH   1   2
HETATM    2  C           1     -20.838  -4.582  -5.998  0.00  0.00     0.083 C 
BRANCH   2   3
HETATM    3  C           1     -21.803  -4.388  -7.126  0.00  0.00    -0.028 A 
HETATM    4  C           1     -21.464  -4.158  -8.489  0.00  0.00    -0.002 A 
HETATM    5  C           1     -22.661  -4.034  -9.194  0.00  0.00     0.042 A 
HETATM    6  C           1     -20.248  -4.042  -9.190  0.00  0.00     0.014 A 
HETATM    7  N           1     -23.684  -4.185  -8.285  0.00  0.00    -0.365 N 
HETATM    8  C           1     -22.704  -3.800 -10.574  0.00  0.00     0.030 A 
HETATM    9  C           1     -23.176  -4.399  -7.031  0.00  0.00     0.096 A 
HETATM   10  H           1     -24.706  -4.142  -8.519  0.00  0.00     0.165 HD
HETATM   11  C           1     -21.484  -3.689 -11.249  0.00  0.00     0.002 A 
HETATM   12  C           1     -20.273  -3.808 -10.570  0.00  0.00     0.001 A 
ENDBRANCH   2   3
ENDBRANCH   1   2
BRANCH   1  13
HETATM   13  N           1     -20.696  -6.725  -7.215  0.00  0.00    -0.066 N 
HETATM   14  H           1     -20.645  -7.762  -7.096  0.00  0.00     0.275 HD
HETATM   15  H           1     -21.640  -6.464  -7.581  0.00  0.00     0.275 HD
HETATM   16  H           1     -19.962  -6.415  -7.890  0.00  0.00     0.275 HD
ENDBRANCH   1  13
BRANCH   1  17
HETATM   17  C           1     -21.338  -6.715  -4.844  0.00  0.00     0.249 C 
HETATM   18  N           1     -20.797  -7.091  -3.644  0.00  0.00    -0.344 N 
HETATM   19  H           1     -19.815  -6.926  -3.459  0.00  0.00     0.163 HD
HETATM   20  O           1     -22.509  -6.910  -5.066  0.00  0.00    -0.271 OA
BRANCH  18  21
HETATM   21  C           1     -21.629  -7.723  -2.639  0.00  0.00     0.189 C 
BRANCH  21  22
HETATM   22  C           1     -20.829  -8.803  -1.923  0.00  0.00     0.014 C 
HETATM   23  C           1     -21.569 -10.130  -2.017  0.00  0.00     0.012 C 
BRANCH  22  24
HETATM   24  C           1     -19.459  -8.938  -2.578  0.00  0.00     0.002 C 
HETATM   25  C           1     -18.877 -10.309  -2.259  0.00  0.00     0.005 C 
ENDBRANCH  22  24
ENDBRANCH  21  22
BRANCH  21  26
HETATM   26  C           1     -22.083  -6.688  -1.640  0.00  0.00     0.197 C 
HETATM   27  O           1     -22.471  -7.042  -0.505  0.00  0.00    -0.646 OA
HETATM   28  O           1     -22.071  -5.476  -1.946  0.00  0.00    -0.646 OA
ENDBRANCH  21  26
ENDBRANCH  18  21
ENDBRANCH   1  17
TORSDOF 8
ENDMDL
MODEL 4
REMARK VINA RESULT:      -7.0      2.517      7.892
REMARK  8 active torsions:
REMARK  status: ('A' for Active; 'I' for Inactive)
REMARK    1  A    between atoms: C_1  and  C_24 
REMARK    2  A    between atoms: C_1  and  C_2 
REMARK    3  A    between atoms: C_1  and  N_17 
REMARK    4  A    between atoms: C_5  and  C_13 
REMARK    5  A    between atoms: C_5  and  C_18 
REMARK    6  A    between atoms: N_6  and  C_13 
REMARK       I    between atoms: C_8  and  N_17 
REMARK    7  A    between atoms: C_8  and  C_13 
REMARK    8  A    between atoms: C_23  and  C_24 
ROOT
HETATM    1  C           1     -20.519  -7.932  -4.979  0.00  0.00     0.278 C 
ENDROOT
BRANCH   1   2
HETATM    2  C           1     -20.088  -8.099  -3.527  0.00  0.00     0.083 C 
BRANCH   2   3
HETATM    3  C           1     -21.000  -9.069  -2.844  0.00  0.00    -0.028 A 
HETATM    4  C           1     -21.777  -8.811  -1.680  0.00  0.00    -0.002 A 
HETATM    5  C           1     -22.476  -9.982  -1.386  0.00  0.00     0.042 A 
HETATM    6  C           1     -21.952  -7.689  -0.847  0.00  0.00     0.014 A 
HETATM    7  N           1     -22.130 -10.911  -2.341  0.00  0.00    -0.365 N 
HETATM    8  C           1     -23.346 -10.089  -0.294  0.00  0.00     0.030 A 
HETATM    9  C           1     -21.238 -10.369  -3.228  0.00  0.00     0.096 A 
HETATM   10  H           1     -22.496 -11.894  -2.384  0.00  0.00     0.165 HD
HETATM   11  C           1     -23.504  -8.961   0.519  0.00  0.00     0.002 A 
HETATM   12  C           1     -22.818  -7.779   0.249  0.00  0.00     0.001 A 
ENDBRANCH   2   3
ENDBRANCH   1   2
BRANCH   1  13
HETATM   13  N           1     -19.435  -8.440  -5.883  0.00  0.00    -0.066 N 
HETATM   14  H           1     -19.251  -9.447  -5.675  0.00  0.00     0.275 HD
HETATM   15  H           1     -19.738  -8.341  -6.878  0.00  0.00     0.275 HD
HETATM   16  H           1     -18.563  -7.887  -5.726  0.00  0.00     0.275 HD
ENDBRANCH   1  13
BRANCH   1  17
HETATM   17  C           1     -20.769  -6.473  -5.266  0.00  0.00     0.249 C 
HETATM   18  N           1     -20.884  -6.039  -6.559  0.00  0.00    -0.344 N 
HETATM   19  H           1     -20.802  -6.698  -7.323  0.00  0.00     0.163 HD
HETATM   20  O           1     -20.869  -5.686  -4.355  0.00  0.00    -0.271 OA
BRANCH  18  21
HETATM   21  C           1     -21.125  -4.636  -6.835  0.00  0.00     0.189 C 
BRANCH  21  22
HETATM   22  C           1     -20.222  -4.179  -7.973  0.00  0.00     0.014 C 
HETATM   23  C           1     -18.783  -4.109  -7.481  0.00  0.00     0.012 C 
BRANCH  22  24
HETATM   24  C           1     -20.317  -5.171  -9.126  0.00  0.00     0.002 C 
HETATM   25  C           1     -20.239  -4.422 -10.449  0.00  0.00     0.005 C 
ENDBRANCH  22  24
ENDBRANCH  21  22
BRANCH  21  26
HETATM   26  C           1     -22.568  -4.442  -7.231  0.00  0.00     0.197 C 
HETATM   27  O           1     -23.482  -4.863  -6.489  0.00  0.00    -0.646 OA
HETATM   28  O           1     -22.850  -3.861  -8.302  0.00  0.00    -0.646 OA
ENDBRANCH  21  26
ENDBRANCH  18  21
ENDBRANCH   1  17
TORSDOF 8
ENDMDL
MODEL 5
REMARK VINA RESULT:      -7.0      2.444      7.900
REMARK  8 active torsions:
REMARK  status: ('A' for Active; 'I' for Inactive)
REMARK    1  A    between atoms: C_1  and  C_24 
REMARK    2  A    between atoms: C_1  and  C_2 
REMARK    3  A    between atoms: C_1  and  N_17 
REMARK    4  A    between atoms: C_5  and  C_13 
REMARK    5  A    between atoms: C_5  and  C_18 
REMARK    6  A    between atoms: N_6  and  C_13 
REMARK       I    between atoms: C_8  and  N_17 
REMARK    7  A    between atoms: C_8  and  C_13 
REMARK    8  A    between atoms: C_23  and  C_24 
ROOT
HETATM    1  C           1     -21.826  -5.854  -5.116  0.00  0.00     0.278 C 
ENDROOT
BRANCH   1   2
HETATM    2  C           1     -20.994  -6.894  -4.378  0.00  0.00     0.083 C 
BRANCH   2   3
HETATM    3  C           1     -21.498  -7.033  -2.975  0.00  0.00    -0.028 A 
HETATM    4  C           1     -21.771  -8.254  -2.300  0.00  0.00    -0.002 A 
HETATM    5  C           1     -22.219  -7.925  -1.020  0.00  0.00     0.042 A 
HETATM    6  C           1     -21.682  -9.613  -2.658  0.00  0.00     0.014 A 
HETATM    7  N           1     -22.213  -6.551  -0.931  0.00  0.00    -0.365 N 
HETATM    8  C           1     -22.582  -8.892  -0.075  0.00  0.00     0.030 A 
HETATM    9  C           1     -21.779  -6.002  -2.108  0.00  0.00     0.096 A 
HETATM   10  H           1     -22.500  -6.004  -0.083  0.00  0.00     0.165 HD
HETATM   11  C           1     -22.484 -10.235  -0.453  0.00  0.00     0.002 A 
HETATM   12  C           1     -22.041 -10.593  -1.725  0.00  0.00     0.001 A 
ENDBRANCH   2   3
ENDBRANCH   1   2
BRANCH   1  13
HETATM   13  N           1     -23.284  -6.155  -4.927  0.00  0.00    -0.066 N 
HETATM   14  H           1     -23.770  -6.122  -5.851  0.00  0.00     0.275 HD
HETATM   15  H           1     -23.391  -7.108  -4.512  0.00  0.00     0.275 HD
HETATM   16  H           1     -23.705  -5.446  -4.286  0.00  0.00     0.275 HD
ENDBRANCH   1  13
BRANCH   1  17
HETATM   17  C           1     -21.493  -5.892  -6.587  0.00  0.00     0.249 C 
HETATM   18  N           1     -21.886  -4.868  -7.406  0.00  0.00    -0.344 N 
HETATM   19  H           1     -22.401  -4.085  -7.024  0.00  0.00     0.163 HD
HETATM   20  O           1     -20.878  -6.827  -7.042  0.00  0.00    -0.271 OA
BRANCH  18  21
HETATM   21  C           1     -21.565  -4.906  -8.820  0.00  0.00     0.189 C 
BRANCH  21  22
HETATM   22  C           1     -22.522  -4.000  -9.582  0.00  0.00     0.014 C 
HETATM   23  C           1     -22.767  -4.574 -10.971  0.00  0.00     0.012 C 
BRANCH  22  24
HETATM   24  C           1     -23.844  -3.910  -8.830  0.00  0.00     0.002 C 
HETATM   25  C           1     -24.905  -3.301  -9.737  0.00  0.00     0.005 C 
ENDBRANCH  22  24
ENDBRANCH  21  22
BRANCH  21  26
HETATM   26  C           1     -20.149  -4.428  -9.025  0.00  0.00     0.197 C 
HETATM   27  O           1     -19.516  -4.769 -10.048  0.00  0.00    -0.646 OA
HETATM   28  O           1     -19.608  -3.690  -8.174  0.00  0.00    -0.646 OA
ENDBRANCH  21  26
ENDBRANCH  18  21
ENDBRANCH   1  17
TORSDOF 8
ENDMDL
MODEL 6
REMARK VINA RESULT:      -7.0     14.289     15.549
REMARK  8 active torsions:
REMARK  status: ('A' for Active; 'I' for Inactive)
REMARK    1  A    between atoms: C_1  and  C_24 
REMARK    2  A    between atoms: C_1  and  C_2 
REMARK    3  A    between atoms: C_1  and  N_17 
REMARK    4  A    between atoms: C_5  and  C_13 
REMARK    5  A    between atoms: C_5  and  C_18 
REMARK    6  A    between atoms: N_6  and  C_13 
REMARK       I    between atoms: C_8  and  N_17 
REMARK    7  A    between atoms: C_8  and  C_13 
REMARK    8  A    between atoms: C_23  and  C_24 
ROOT
HETATM    1  C           1     -33.184  -4.541 -16.598  0.00  0.00     0.278 C 
ENDROOT
BRANCH   1   2
HETATM    2  C           1     -31.712  -4.590 -16.214  0.00  0.00     0.083 C 
BRANCH   2   3
HETATM    3  C           1     -31.011  -5.614 -17.050  0.00  0.00    -0.028 A 
HETATM    4  C           1     -29.621  -5.640 -17.354  0.00  0.00    -0.002 A 
HETATM    5  C           1     -29.397  -6.759 -18.157  0.00  0.00     0.042 A 
HETATM    6  C           1     -28.530  -4.815 -17.020  0.00  0.00     0.014 A 
HETATM    7  N           1     -30.612  -7.383 -18.329  0.00  0.00    -0.365 N 
HETATM    8  C           1     -28.129  -7.097 -18.645  0.00  0.00     0.030 A 
HETATM    9  C           1     -31.595  -6.699 -17.664  0.00  0.00     0.096 A 
HETATM   10  H           1     -30.764  -8.258 -18.889  0.00  0.00     0.165 HD
HETATM   11  C           1     -27.061  -6.262 -18.301  0.00  0.00     0.002 A 
HETATM   12  C           1     -27.255  -5.138 -17.501  0.00  0.00     0.001 A 
ENDBRANCH   2   3
ENDBRANCH   1   2
BRANCH   1  13
HETATM   13  N           1     -33.463  -3.270 -17.346  0.00  0.00    -0.066 N 
HETATM   14  H           1     -34.173  -3.453 -18.091  0.00  0.00     0.275 HD
HETATM   15  H           1     -33.833  -2.551 -16.684  0.00  0.00     0.275 HD
HETATM   16  H           1     -32.581  -2.922 -17.783  0.00  0.00     0.275 HD
ENDBRANCH   1  13
BRANCH   1  17
HETATM   17  C           1     -34.033  -4.585 -15.352  0.00  0.00     0.249 C 
HETATM   18  N           1     -33.589  -3.995 -14.199  0.00  0.00    -0.344 N 
HETATM   19  H           1     -32.691  -3.528 -14.183  0.00  0.00     0.163 HD
HETATM   20  O           1     -35.105  -5.142 -15.371  0.00  0.00    -0.271 OA
BRANCH  18  21
HETATM   21  C           1     -34.405  -4.039 -13.001  0.00  0.00     0.189 C 
BRANCH  21  22
HETATM   22  C           1     -33.532  -4.390 -11.804  0.00  0.00     0.014 C 
HETATM   23  C           1     -32.872  -3.127 -11.269  0.00  0.00     0.012 C 
BRANCH  22  24
HETATM   24  C           1     -34.394  -5.013 -10.713  0.00  0.00     0.002 C 
HETATM   25  C           1     -34.122  -6.510 -10.642  0.00  0.00     0.005 C 
ENDBRANCH  22  24
ENDBRANCH  21  22
BRANCH  21  26
HETATM   26  C           1     -35.042  -2.689 -12.779  0.00  0.00     0.197 C 
HETATM   27  O           1     -35.828  -2.518 -11.821  0.00  0.00    -0.646 OA
HETATM   28  O           1     -34.784  -1.741 -13.552  0.00  0.00    -0.646 OA
ENDBRANCH  21  26
ENDBRANCH  18  21
ENDBRANCH   1  17
TORSDOF 8
ENDMDL
MODEL 7
REMARK VINA RESULT:      -6.8      1.745      2.493
REMARK  8 active torsions:
REMARK  status: ('A' for Active; 'I' for Inactive)
REMARK    1  A    between atoms: C_1  and  C_24 
REMARK    2  A    between atoms: C_1  and  C_2 
REMARK    3  A    between atoms: C_1  and  N_17 
REMARK    4  A    between atoms: C_5  and  C_13 
REMARK    5  A    between atoms: C_5  and  C_18 
REMARK    6  A    between atoms: N_6  and  C_13 
REMARK       I    between atoms: C_8  and  N_17 
REMARK    7  A    between atoms: C_8  and  C_13 
REMARK    8  A    between atoms: C_23  and  C_24 
ROOT
HETATM    1  C           1     -21.577  -6.753  -5.112  0.00  0.00     0.278 C 
ENDROOT
BRANCH   1   2
HETATM    2  C           1     -20.777  -5.840  -6.032  0.00  0.00     0.083 C 
BRANCH   2   3
HETATM    3  C           1     -21.705  -5.152  -6.984  0.00  0.00    -0.028 A 
HETATM    4  C           1     -21.398  -4.758  -8.316  0.00  0.00    -0.002 A 
HETATM    5  C           1     -22.542  -4.154  -8.839  0.00  0.00     0.042 A 
HETATM    6  C           1     -20.252  -4.857  -9.128  0.00  0.00     0.014 A 
HETATM    7  N           1     -23.503  -4.186  -7.854  0.00  0.00    -0.365 N 
HETATM    8  C           1     -22.598  -3.643 -10.141  0.00  0.00     0.030 A 
HETATM    9  C           1     -23.007  -4.787  -6.727  0.00  0.00     0.096 A 
HETATM   10  H           1     -24.476  -3.804  -7.951  0.00  0.00     0.165 HD
HETATM   11  C           1     -21.447  -3.753 -10.929  0.00  0.00     0.002 A 
HETATM   12  C           1     -20.291  -4.350 -10.432  0.00  0.00     0.001 A 
ENDBRANCH   2   3
ENDBRANCH   1   2
BRANCH   1  13
HETATM   13  N           1     -22.031  -5.977  -3.911  0.00  0.00    -0.066 N 
HETATM   14  H           1     -22.346  -6.639  -3.167  0.00  0.00     0.275 HD
HETATM   15  H           1     -21.237  -5.401  -3.550  0.00  0.00     0.275 HD
HETATM   16  H           1     -22.823  -5.351  -4.180  0.00  0.00     0.275 HD
ENDBRANCH   1  13
BRANCH   1  17
HETATM   17  C           1     -20.712  -7.905  -4.668  0.00  0.00     0.249 C 
HETATM   18  N           1     -20.294  -8.839  -5.577  0.00  0.00    -0.344 N 
HETATM   19  H           1     -20.565  -8.756  -6.549  0.00  0.00     0.163 HD
HETATM   20  O           1     -20.387  -8.004  -3.508  0.00  0.00    -0.271 OA
BRANCH  18  21
HETATM   21  C           1     -19.462  -9.947  -5.149  0.00  0.00     0.189 C 
BRANCH  21  22
HETATM   22  C           1     -19.868 -11.208  -5.899  0.00  0.00     0.014 C 
HETATM   23  C           1     -19.249 -12.423  -5.223  0.00  0.00     0.012 C 
BRANCH  22  24
HETATM   24  C           1     -21.386 -11.339  -5.886  0.00  0.00     0.002 C 
HETATM   25  C           1     -21.797 -12.567  -6.688  0.00  0.00     0.005 C 
ENDBRANCH  22  24
ENDBRANCH  21  22
BRANCH  21  26
HETATM   26  C           1     -18.016  -9.632  -5.443  0.00  0.00     0.197 C 
HETATM   27  O           1     -17.159  -9.719  -4.536  0.00  0.00    -0.646 OA
HETATM   28  O           1     -17.674  -9.283  -6.594  0.00  0.00    -0.646 OA
ENDBRANCH  21  26
ENDBRANCH  18  21
ENDBRANCH   1  17
TORSDOF 8
ENDMDL
MODEL 8
REMARK VINA RESULT:      -6.7      2.535      3.610
REMARK  8 active torsions:
REMARK  status: ('A' for Active; 'I' for Inactive)
REMARK    1  A    between atoms: C_1  and  C_24 
REMARK    2  A    between atoms: C_1  and  C_2 
REMARK    3  A    between atoms: C_1  and  N_17 
REMARK    4  A    between atoms: C_5  and  C_13 
REMARK    5  A    between atoms: C_5  and  C_18 
REMARK    6  A    between atoms: N_6  and  C_13 
REMARK       I    between atoms: C_8  and  N_17 
REMARK    7  A    between atoms: C_8  and  C_13 
REMARK    8  A    between atoms: C_23  and  C_24 
ROOT
HETATM    1  C           1     -20.794  -7.080  -4.713  0.00  0.00     0.278 C 
ENDROOT
BRANCH   1   2
HETATM    2  C           1     -21.218  -5.632  -4.924  0.00  0.00     0.083 C 
BRANCH   2   3
HETATM    3  C           1     -20.762  -5.170  -6.273  0.00  0.00    -0.028 A 
HETATM    4  C           1     -21.598  -4.715  -7.330  0.00  0.00    -0.002 A 
HETATM    5  C           1     -20.765  -4.384  -8.399  0.00  0.00     0.042 A 
HETATM    6  C           1     -22.989  -4.553  -7.478  0.00  0.00     0.014 A 
HETATM    7  N           1     -19.472  -4.632  -7.997  0.00  0.00    -0.365 N 
HETATM    8  C           1     -21.256  -3.897  -9.617  0.00  0.00     0.030 A 
HETATM    9  C           1     -19.459  -5.108  -6.712  0.00  0.00     0.096 A 
HETATM   10  H           1     -18.619  -4.479  -8.589  0.00  0.00     0.165 HD
HETATM   11  C           1     -22.641  -3.744  -9.740  0.00  0.00     0.002 A 
HETATM   12  C           1     -23.497  -4.068  -8.689  0.00  0.00     0.001 A 
ENDBRANCH   2   3
ENDBRANCH   1   2
BRANCH   1  13
HETATM   13  N           1     -21.268  -7.912  -5.868  0.00  0.00    -0.066 N 
HETATM   14  H           1     -22.300  -8.057  -5.793  0.00  0.00     0.275 HD
HETATM   15  H           1     -21.051  -7.419  -6.764  0.00  0.00     0.275 HD
HETATM   16  H           1     -20.784  -8.837  -5.853  0.00  0.00     0.275 HD
ENDBRANCH   1  13
BRANCH   1  17
HETATM   17  C           1     -21.401  -7.602  -3.436  0.00  0.00     0.249 C 
HETATM   18  N           1     -21.363  -8.942  -3.156  0.00  0.00    -0.344 N 
HETATM   19  H           1     -20.926  -9.582  -3.807  0.00  0.00     0.163 HD
HETATM   20  O           1     -21.921  -6.838  -2.658  0.00  0.00    -0.271 OA
BRANCH  18  21
HETATM   21  C           1     -21.947  -9.443  -1.927  0.00  0.00     0.189 C 
BRANCH  21  22
HETATM   22  C           1     -22.462 -10.859  -2.150  0.00  0.00     0.014 C 
HETATM   23  C           1     -23.705 -11.086  -1.301  0.00  0.00     0.012 C 
BRANCH  22  24
HETATM   24  C           1     -22.811 -11.046  -3.621  0.00  0.00     0.002 C 
HETATM   25  C           1     -22.225 -12.361  -4.119  0.00  0.00     0.005 C 
ENDBRANCH  22  24
ENDBRANCH  21  22
BRANCH  21  26
HETATM   26  C           1     -20.898  -9.456  -0.842  0.00  0.00     0.197 C 
HETATM   27  O           1     -20.013 -10.339  -0.837  0.00  0.00    -0.646 OA
HETATM   28  O           1     -20.914  -8.583   0.053  0.00  0.00    -0.646 OA
ENDBRANCH  21  26
ENDBRANCH  18  21
ENDBRANCH   1  17
TORSDOF 8
ENDMDL
MODEL 9
REMARK VINA RESULT:      -6.4      2.144      3.481
REMARK  8 active torsions:
REMARK  status: ('A' for Active; 'I' for Inactive)
REMARK    1  A    between atoms: C_1  and  C_24 
REMARK    2  A    between atoms: C_1  and  C_2 
REMARK    3  A    between atoms: C_1  and  N_17 
REMARK    4  A    between atoms: C_5  and  C_13 
REMARK    5  A    between atoms: C_5  and  C_18 
REMARK    6  A    between atoms: N_6  and  C_13 
REMARK       I    between atoms: C_8  and  N_17 
REMARK    7  A    between atoms: C_8  and  C_13 
REMARK    8  A    between atoms: C_23  and  C_24 
ROOT
HETATM    1  C           1     -20.480  -8.284  -4.476  0.00  0.00     0.278 C 
ENDROOT
BRANCH   1   2
HETATM    2  C           1     -21.173  -7.055  -3.904  0.00  0.00     0.083 C 
BRANCH   2   3
HETATM    3  C           1     -21.725  -6.227  -5.022  0.00  0.00    -0.028 A 
HETATM    4  C           1     -20.965  -5.508  -5.986  0.00  0.00    -0.002 A 
HETATM    5  C           1     -21.873  -4.878  -6.838  0.00  0.00     0.042 A 
HETATM    6  C           1     -19.587  -5.331  -6.214  0.00  0.00     0.014 A 
HETATM    7  N           1     -23.135  -5.209  -6.400  0.00  0.00    -0.365 N 
HETATM    8  C           1     -21.470  -4.078  -7.914  0.00  0.00     0.030 A 
HETATM    9  C           1     -23.057  -6.024  -5.302  0.00  0.00     0.096 A 
HETATM   10  H           1     -24.029  -4.884  -6.844  0.00  0.00     0.165 HD
HETATM   11  C           1     -20.096  -3.918  -8.121  0.00  0.00     0.002 A 
HETATM   12  C           1     -19.166  -4.533  -7.285  0.00  0.00     0.001 A 
ENDBRANCH   2   3
ENDBRANCH   1   2
BRANCH   1  13
HETATM   13  N           1     -21.148  -8.682  -5.760  0.00  0.00    -0.066 N 
HETATM   14  H           1     -21.783  -9.492  -5.586  0.00  0.00     0.275 HD
HETATM   15  H           1     -21.704  -7.876  -6.125  0.00  0.00     0.275 HD
HETATM   16  H           1     -20.422  -8.951  -6.460  0.00  0.00     0.275 HD
ENDBRANCH   1  13
BRANCH   1  17
HETATM   17  C           1     -20.574  -9.421  -3.489  0.00  0.00     0.249 C 
HETATM   18  N           1     -21.558  -9.423  -2.537  0.00  0.00    -0.344 N 
HETATM   19  H           1     -22.223  -8.661  -2.496  0.00  0.00     0.163 HD
HETATM   20  O           1     -19.781 -10.331  -3.539  0.00  0.00    -0.271 OA
BRANCH  18  21
HETATM   21  C           1     -21.647 -10.516  -1.589  0.00  0.00     0.189 C 
BRANCH  21  22
HETATM   22  C           1     -21.884  -9.959  -0.191  0.00  0.00     0.014 C 
HETATM   23  C           1     -20.785 -10.447   0.742  0.00  0.00     0.012 C 
BRANCH  22  24
HETATM   24  C           1     -21.867  -8.436  -0.243  0.00  0.00     0.002 C 
HETATM   25  C           1     -23.091  -7.890   0.480  0.00  0.00     0.005 C 
ENDBRANCH  22  24
ENDBRANCH  21  22
BRANCH  21  26
HETATM   26  C           1     -22.795 -11.419  -1.970  0.00  0.00     0.197 C 
HETATM   27  O           1     -23.935 -11.213  -1.501  0.00  0.00    -0.646 OA
HETATM   28  O           1     -22.606 -12.373  -2.756  0.00  0.00    -0.646 OA
ENDBRANCH  21  26
ENDBRANCH  18  21
ENDBRANCH   1  17
TORSDOF 8
ENDMDL
