MODEL 1
REMARK VINA RESULT:      -5.8      0.000      0.000
REMARK  10 active torsions:
REMARK  status: ('A' for Active; 'I' for Inactive)
REMARK    1  A    between atoms: N_8  and  C_15 
REMARK    2  A    between atoms: O_11  and  P_12 
REMARK    3  A    between atoms: P_12  and  O_13 
REMARK    4  A    between atoms: O_13  and  C_14 
REMARK    5  A    between atoms: C_14  and  C_15 
REMARK    6  A    between atoms: C_15  and  C_16 
REMARK       I    between atoms: C_16  and  N_17 
REMARK    7  A    between atoms: N_17  and  C_21 
REMARK    8  A    between atoms: C_20  and  C_21 
REMARK    9  A    between atoms: C_21  and  C_23 
REMARK   10  A    between atoms: O_22  and  C_23 
ROOT
HETATM    1  C           1     -25.873  -7.300 -19.735  0.00  0.00     0.298 C 
ENDROOT
BRANCH   1   2
HETATM    2  N           1     -25.301  -7.155 -21.113  0.00  0.00    -0.064 N 
HETATM    3  H           1     -26.009  -6.707 -21.739  0.00  0.00     0.275 HD
HETATM    4  H           1     -25.053  -8.098 -21.488  0.00  0.00     0.275 HD
HETATM    5  H           1     -24.444  -6.559 -21.075  0.00  0.00     0.275 HD
ENDBRANCH   1   2
BRANCH   1   6
HETATM    6  C           1     -24.806  -6.957 -18.705  0.00  0.00     0.224 C 
BRANCH   6   7
HETATM    7  O           1     -25.387  -6.237 -17.651  0.00  0.00    -0.287 OA
BRANCH   7   8
HETATM    8  P           1     -25.248  -6.895 -16.183  0.00  0.00     0.406 P 
HETATM    9  O           1     -24.243  -7.980 -16.222  0.00  0.00    -0.624 OA
HETATM   10  O           1     -24.819  -5.858 -15.217  0.00  0.00    -0.624 OA
BRANCH   8  11
HETATM   11  O           1     -26.675  -7.498 -15.726  0.00  0.00    -0.300 OA
HETATM   12  H           1     -26.984  -7.986 -16.470  0.00  0.00     0.223 HD
ENDBRANCH   8  11
ENDBRANCH   7   8
ENDBRANCH   6   7
ENDBRANCH   1   6
BRANCH   1  13
HETATM   13  C           1     -27.046  -6.364 -19.576  0.00  0.00     0.251 C 
HETATM   14  O           1     -27.267  -5.524 -20.417  0.00  0.00    -0.271 OA
HETATM   15  N           1     -27.861  -6.466 -18.482  0.00  0.00    -0.342 N 
HETATM   16  H           1     -27.677  -7.170 -17.778  0.00  0.00     0.163 HD
BRANCH  15  17
HETATM   17  C           1     -28.989  -5.568 -18.330  0.00  0.00     0.214 C 
BRANCH  17  18
HETATM   18  C           1     -28.638  -4.486 -17.337  0.00  0.00     0.199 C 
HETATM   19  O           1     -27.996  -4.771 -16.303  0.00  0.00    -0.646 OA
HETATM   20  O           1     -28.989  -3.306 -17.549  0.00  0.00    -0.646 OA
ENDBRANCH  17  18
BRANCH  17  21
HETATM   21  C           1     -30.196  -6.349 -17.825  0.00  0.00     0.147 C 
HETATM   22  C           1     -29.769  -7.766 -17.466  0.00  0.00     0.042 C 
BRANCH  21  23
HETATM   23  O           1     -30.718  -5.716 -16.689  0.00  0.00    -0.393 OA
HETATM   24  H           1     -30.001  -5.587 -16.092  0.00  0.00     0.210 HD
ENDBRANCH  21  23
ENDBRANCH  17  21
ENDBRANCH  15  17
ENDBRANCH   1  13
TORSDOF 10
ENDMDL
MODEL 2
REMARK VINA RESULT:      -5.7      5.375      7.290
REMARK  10 active torsions:
REMARK  status: ('A' for Active; 'I' for Inactive)
REMARK    1  A    between atoms: N_8  and  C_15 
REMARK    2  A    between atoms: O_11  and  P_12 
REMARK    3  A    between atoms: P_12  and  O_13 
REMARK    4  A    between atoms: O_13  and  C_14 
REMARK    5  A    between atoms: C_14  and  C_15 
REMARK    6  A    between atoms: C_15  and  C_16 
REMARK       I    between atoms: C_16  and  N_17 
REMARK    7  A    between atoms: N_17  and  C_21 
REMARK    8  A    between atoms: C_20  and  C_21 
REMARK    9  A    between atoms: C_21  and  C_23 
REMARK   10  A    between atoms: O_22  and  C_23 
ROOT
HETATM    1  C           1     -33.001  -4.547 -16.650  0.00  0.00     0.298 C 
ENDROOT
BRANCH   1   2
HETATM    2  N           1     -33.089  -3.232 -17.364  0.00  0.00    -0.064 N 
HETATM    3  H           1     -34.084  -3.042 -17.622  0.00  0.00     0.275 HD
HETATM    4  H           1     -32.504  -3.266 -18.230  0.00  0.00     0.275 HD
HETATM    5  H           1     -32.740  -2.471 -16.739  0.00  0.00     0.275 HD
ENDBRANCH   1   2
BRANCH   1   6
HETATM    6  C           1     -31.555  -4.811 -16.251  0.00  0.00     0.224 C 
BRANCH   6   7
HETATM    7  O           1     -30.814  -5.170 -17.387  0.00  0.00    -0.287 OA
BRANCH   7   8
HETATM    8  P           1     -29.502  -4.278 -17.686  0.00  0.00     0.406 P 
HETATM    9  O           1     -28.541  -4.424 -16.571  0.00  0.00    -0.624 OA
HETATM   10  O           1     -28.872  -4.737 -18.945  0.00  0.00    -0.624 OA
BRANCH   8  11
HETATM   11  O           1     -29.926  -2.727 -17.833  0.00  0.00    -0.300 OA
HETATM   12  H           1     -30.689  -2.733 -18.386  0.00  0.00     0.223 HD
ENDBRANCH   8  11
ENDBRANCH   7   8
ENDBRANCH   6   7
ENDBRANCH   1   6
BRANCH   1  13
HETATM   13  C           1     -33.865  -4.507 -15.414  0.00  0.00     0.251 C 
HETATM   14  O           1     -35.002  -4.914 -15.459  0.00  0.00    -0.271 OA
HETATM   15  N           1     -33.362  -4.012 -14.241  0.00  0.00    -0.342 N 
HETATM   16  H           1     -32.409  -3.671 -14.204  0.00  0.00     0.163 HD
BRANCH  15  17
HETATM   17  C           1     -34.192  -3.974 -13.054  0.00  0.00     0.214 C 
BRANCH  17  18
HETATM   18  C           1     -34.651  -2.557 -12.806  0.00  0.00     0.199 C 
HETATM   19  O           1     -34.635  -2.088 -11.647  0.00  0.00    -0.646 OA
HETATM   20  O           1     -35.049  -1.854 -13.759  0.00  0.00    -0.646 OA
ENDBRANCH  17  18
BRANCH  17  21
HETATM   21  C           1     -33.387  -4.464 -11.856  0.00  0.00     0.147 C 
HETATM   22  C           1     -34.090  -5.661 -11.229  0.00  0.00     0.042 C 
BRANCH  21  23
HETATM   23  O           1     -32.106  -4.842 -12.279  0.00  0.00    -0.393 OA
HETATM   24  H           1     -31.624  -5.089 -11.508  0.00  0.00     0.210 HD
ENDBRANCH  21  23
ENDBRANCH  17  21
ENDBRANCH  15  17
ENDBRANCH   1  13
TORSDOF 10
ENDMDL
MODEL 3
REMARK VINA RESULT:      -5.6      5.353      8.244
REMARK  10 active torsions:
REMARK  status: ('A' for Active; 'I' for Inactive)
REMARK    1  A    between atoms: N_8  and  C_15 
REMARK    2  A    between atoms: O_11  and  P_12 
REMARK    3  A    between atoms: P_12  and  O_13 
REMARK    4  A    between atoms: O_13  and  C_14 
REMARK    5  A    between atoms: C_14  and  C_15 
REMARK    6  A    between atoms: C_15  and  C_16 
REMARK       I    between atoms: C_16  and  N_17 
REMARK    7  A    between atoms: N_17  and  C_21 
REMARK    8  A    between atoms: C_20  and  C_21 
REMARK    9  A    between atoms: C_21  and  C_23 
REMARK   10  A    between atoms: O_22  and  C_23 
ROOT
HETATM    1  C           1     -33.699  -4.056 -16.413  0.00  0.00     0.298 C 
ENDROOT
BRANCH   1   2
HETATM    2  N           1     -33.591  -4.161 -14.921  0.00  0.00    -0.064 N 
HETATM    3  H           1     -33.250  -5.115 -14.663  0.00  0.00     0.275 HD
HETATM    4  H           1     -34.530  -3.999 -14.492  0.00  0.00     0.275 HD
HETATM    5  H           1     -32.919  -3.443 -14.568  0.00  0.00     0.275 HD
ENDBRANCH   1   2
BRANCH   1   6
HETATM    6  C           1     -34.452  -2.785 -16.779  0.00  0.00     0.224 C 
BRANCH   6   7
HETATM    7  O           1     -35.103  -2.283 -15.642  0.00  0.00    -0.287 OA
BRANCH   7   8
HETATM    8  P           1     -35.798  -0.835 -15.806  0.00  0.00     0.406 P 
HETATM    9  O           1     -36.950  -0.733 -14.884  0.00  0.00    -0.624 OA
HETATM   10  O           1     -34.813   0.223 -15.486  0.00  0.00    -0.624 OA
BRANCH   8  11
HETATM   11  O           1     -36.308  -0.651 -17.327  0.00  0.00    -0.300 OA
HETATM   12  H           1     -36.651   0.225 -17.365  0.00  0.00     0.223 HD
ENDBRANCH   8  11
ENDBRANCH   7   8
ENDBRANCH   6   7
ENDBRANCH   1   6
BRANCH   1  13
HETATM   13  C           1     -32.316  -4.013 -17.015  0.00  0.00     0.251 C 
HETATM   14  O           1     -32.005  -3.104 -17.748  0.00  0.00    -0.271 OA
HETATM   15  N           1     -31.414  -5.002 -16.730  0.00  0.00    -0.342 N 
HETATM   16  H           1     -31.675  -5.763 -16.116  0.00  0.00     0.163 HD
BRANCH  15  17
HETATM   17  C           1     -30.085  -4.960 -17.308  0.00  0.00     0.214 C 
BRANCH  17  18
HETATM   18  C           1     -29.773  -6.293 -17.945  0.00  0.00     0.199 C 
HETATM   19  O           1     -28.691  -6.458 -18.551  0.00  0.00    -0.646 OA
HETATM   20  O           1     -30.596  -7.230 -17.870  0.00  0.00    -0.646 OA
ENDBRANCH  17  18
BRANCH  17  21
HETATM   21  C           1     -29.065  -4.669 -16.214  0.00  0.00     0.147 C 
HETATM   22  C           1     -29.086  -5.794 -15.188  0.00  0.00     0.042 C 
BRANCH  21  23
HETATM   23  O           1     -27.786  -4.578 -16.782  0.00  0.00    -0.393 OA
HETATM   24  H           1     -27.174  -4.509 -16.070  0.00  0.00     0.210 HD
ENDBRANCH  21  23
ENDBRANCH  17  21
ENDBRANCH  15  17
ENDBRANCH   1  13
TORSDOF 10
ENDMDL
MODEL 4
REMARK VINA RESULT:      -5.2      3.557      6.488
REMARK  10 active torsions:
REMARK  status: ('A' for Active; 'I' for Inactive)
REMARK    1  A    between atoms: N_8  and  C_15 
REMARK    2  A    between atoms: O_11  and  P_12 
REMARK    3  A    between atoms: P_12  and  O_13 
REMARK    4  A    between atoms: O_13  and  C_14 
REMARK    5  A    between atoms: C_14  and  C_15 
REMARK    6  A    between atoms: C_15  and  C_16 
REMARK       I    between atoms: C_16  and  N_17 
REMARK    7  A    between atoms: N_17  and  C_21 
REMARK    8  A    between atoms: C_20  and  C_21 
REMARK    9  A    between atoms: C_21  and  C_23 
REMARK   10  A    between atoms: O_22  and  C_23 
ROOT
HETATM    1  C           1     -30.829  -4.058 -16.972  0.00  0.00     0.298 C 
ENDROOT
BRANCH   1   2
HETATM    2  N           1     -30.556  -3.245 -18.202  0.00  0.00    -0.064 N 
HETATM    3  H           1     -30.891  -2.266 -18.053  0.00  0.00     0.275 HD
HETATM    4  H           1     -31.058  -3.665 -19.016  0.00  0.00     0.275 HD
HETATM    5  H           1     -29.529  -3.236 -18.393  0.00  0.00     0.275 HD
ENDBRANCH   1   2
BRANCH   1   6
HETATM    6  C           1     -32.316  -4.378 -16.896  0.00  0.00     0.224 C 
BRANCH   6   7
HETATM    7  O           1     -32.741  -4.313 -15.561  0.00  0.00    -0.287 OA
BRANCH   7   8
HETATM    8  P           1     -34.307  -3.996 -15.332  0.00  0.00     0.406 P 
HETATM    9  O           1     -34.512  -3.493 -13.956  0.00  0.00    -0.624 OA
HETATM   10  O           1     -34.749  -2.972 -16.304  0.00  0.00    -0.624 OA
BRANCH   8  11
HETATM   11  O           1     -35.167  -5.346 -15.545  0.00  0.00    -0.300 OA
HETATM   12  H           1     -36.064  -5.061 -15.585  0.00  0.00     0.223 HD
ENDBRANCH   8  11
ENDBRANCH   7   8
ENDBRANCH   6   7
ENDBRANCH   1   6
BRANCH   1  13
HETATM   13  C           1     -30.040  -5.343 -17.033  0.00  0.00     0.251 C 
HETATM   14  O           1     -30.614  -6.406 -17.006  0.00  0.00    -0.271 OA
HETATM   15  N           1     -28.675  -5.304 -17.122  0.00  0.00    -0.342 N 
HETATM   16  H           1     -28.194  -4.414 -17.145  0.00  0.00     0.163 HD
BRANCH  15  17
HETATM   17  C           1     -27.916  -6.538 -17.182  0.00  0.00     0.214 C 
BRANCH  17  18
HETATM   18  C           1     -26.737  -6.449 -16.242  0.00  0.00     0.199 C 
HETATM   19  O           1     -26.480  -7.399 -15.471  0.00  0.00    -0.646 OA
HETATM   20  O           1     -26.021  -5.425 -16.234  0.00  0.00    -0.646 OA
ENDBRANCH  17  18
BRANCH  17  21
HETATM   21  C           1     -27.417  -6.759 -18.604  0.00  0.00     0.147 C 
HETATM   22  C           1     -27.937  -5.645 -19.503  0.00  0.00     0.042 C 
BRANCH  21  23
HETATM   23  O           1     -26.015  -6.751 -18.612  0.00  0.00    -0.393 OA
HETATM   24  H           1     -25.746  -5.848 -18.623  0.00  0.00     0.210 HD
ENDBRANCH  21  23
ENDBRANCH  17  21
ENDBRANCH  15  17
ENDBRANCH   1  13
TORSDOF 10
ENDMDL
MODEL 5
REMARK VINA RESULT:      -5.2      8.155     10.209
REMARK  10 active torsions:
REMARK  status: ('A' for Active; 'I' for Inactive)
REMARK    1  A    between atoms: N_8  and  C_15 
REMARK    2  A    between atoms: O_11  and  P_12 
REMARK    3  A    between atoms: P_12  and  O_13 
REMARK    4  A    between atoms: O_13  and  C_14 
REMARK    5  A    between atoms: C_14  and  C_15 
REMARK    6  A    between atoms: C_15  and  C_16 
REMARK       I    between atoms: C_16  and  N_17 
REMARK    7  A    between atoms: N_17  and  C_21 
REMARK    8  A    between atoms: C_20  and  C_21 
REMARK    9  A    between atoms: C_21  and  C_23 
REMARK   10  A    between atoms: O_22  and  C_23 
ROOT
HETATM    1  C           1     -33.797  -3.783 -15.584  0.00  0.00     0.298 C 
ENDROOT
BRANCH   1   2
HETATM    2  N           1     -33.638  -4.993 -16.454  0.00  0.00    -0.064 N 
HETATM    3  H           1     -32.725  -4.940 -16.961  0.00  0.00     0.275 HD
HETATM    4  H           1     -34.420  -5.029 -17.147  0.00  0.00     0.275 HD
HETATM    5  H           1     -33.658  -5.854 -15.862  0.00  0.00     0.275 HD
ENDBRANCH   1   2
BRANCH   1   6
HETATM    6  C           1     -34.739  -2.794 -16.257  0.00  0.00     0.224 C 
BRANCH   6   7
HETATM    7  O           1     -35.131  -1.816 -15.331  0.00  0.00    -0.287 OA
BRANCH   7   8
HETATM    8  P           1     -36.113  -0.663 -15.892  0.00  0.00     0.406 P 
HETATM    9  O           1     -37.428  -0.767 -15.222  0.00  0.00    -0.624 OA
HETATM   10  O           1     -35.520   0.665 -15.616  0.00  0.00    -0.624 OA
BRANCH   8  11
HETATM   11  O           1     -36.304  -0.846 -17.485  0.00  0.00    -0.300 OA
HETATM   12  H           1     -36.325  -1.777 -17.623  0.00  0.00     0.223 HD
ENDBRANCH   8  11
ENDBRANCH   7   8
ENDBRANCH   6   7
ENDBRANCH   1   6
BRANCH   1  13
HETATM   13  C           1     -34.368  -4.195 -14.249  0.00  0.00     0.251 C 
HETATM   14  O           1     -35.054  -5.186 -14.166  0.00  0.00    -0.271 OA
HETATM   15  N           1     -34.108  -3.448 -13.132  0.00  0.00    -0.342 N 
HETATM   16  H           1     -33.532  -2.618 -13.202  0.00  0.00     0.163 HD
BRANCH  15  17
HETATM   17  C           1     -34.655  -3.844 -11.850  0.00  0.00     0.214 C 
BRANCH  17  18
HETATM   18  C           1     -35.093  -2.616 -11.090  0.00  0.00     0.199 C 
HETATM   19  O           1     -36.309  -2.403 -10.893  0.00  0.00    -0.646 OA
HETATM   20  O           1     -34.240  -1.810 -10.659  0.00  0.00    -0.646 OA
ENDBRANCH  17  18
BRANCH  17  21
HETATM   21  C           1     -33.590  -4.584 -11.050  0.00  0.00     0.147 C 
HETATM   22  C           1     -34.174  -5.881 -10.507  0.00  0.00     0.042 C 
BRANCH  21  23
HETATM   23  O           1     -32.500  -4.874 -11.882  0.00  0.00    -0.393 OA
HETATM   24  H           1     -32.542  -4.276 -12.608  0.00  0.00     0.210 HD
ENDBRANCH  21  23
ENDBRANCH  17  21
ENDBRANCH  15  17
ENDBRANCH   1  13
TORSDOF 10
ENDMDL
MODEL 6
REMARK VINA RESULT:      -5.1     12.147     13.824
REMARK  10 active torsions:
REMARK  status: ('A' for Active; 'I' for Inactive)
REMARK    1  A    between atoms: N_8  and  C_15 
REMARK    2  A    between atoms: O_11  and  P_12 
REMARK    3  A    between atoms: P_12  and  O_13 
REMARK    4  A    between atoms: O_13  and  C_14 
REMARK    5  A    between atoms: C_14  and  C_15 
REMARK    6  A    between atoms: C_15  and  C_16 
REMARK       I    between atoms: C_16  and  N_17 
REMARK    7  A    between atoms: N_17  and  C_21 
REMARK    8  A    between atoms: C_20  and  C_21 
REMARK    9  A    between atoms: C_21  and  C_23 
REMARK   10  A    between atoms: O_22  and  C_23 
ROOT
HETATM    1  C           1     -21.642  -5.031  -6.712  0.00  0.00     0.298 C 
ENDROOT
BRANCH   1   2
HETATM    2  N           1     -20.790  -5.780  -7.692  0.00  0.00    -0.064 N 
HETATM    3  H           1     -20.831  -5.305  -8.623  0.00  0.00     0.275 HD
HETATM    4  H           1     -21.143  -6.759  -7.784  0.00  0.00     0.275 HD
HETATM    5  H           1     -19.802  -5.797  -7.353  0.00  0.00     0.275 HD
ENDBRANCH   1   2
BRANCH   1   6
HETATM    6  C           1     -22.862  -4.467  -7.427  0.00  0.00     0.224 C 
BRANCH   6   7
HETATM    7  O           1     -22.472  -3.919  -8.657  0.00  0.00    -0.287 OA
BRANCH   7   8
HETATM    8  P           1     -23.630  -3.794  -9.775  0.00  0.00     0.406 P 
HETATM    9  O           1     -23.089  -3.111 -10.972  0.00  0.00    -0.624 OA
HETATM   10  O           1     -24.102  -5.146 -10.149  0.00  0.00    -0.624 OA
BRANCH   8  11
HETATM   11  O           1     -24.864  -2.939  -9.180  0.00  0.00    -0.300 OA
HETATM   12  H           1     -25.020  -2.260  -9.813  0.00  0.00     0.223 HD
ENDBRANCH   8  11
ENDBRANCH   7   8
ENDBRANCH   6   7
ENDBRANCH   1   6
BRANCH   1  13
HETATM   13  C           1     -22.088  -5.967  -5.615  0.00  0.00     0.251 C 
HETATM   14  O           1     -23.261  -6.059  -5.341  0.00  0.00    -0.271 OA
HETATM   15  N           1     -21.166  -6.713  -4.934  0.00  0.00    -0.342 N 
HETATM   16  H           1     -20.183  -6.636  -5.165  0.00  0.00     0.163 HD
BRANCH  15  17
HETATM   17  C           1     -21.594  -7.614  -3.882  0.00  0.00     0.214 C 
BRANCH  17  18
HETATM   18  C           1     -21.414  -6.941  -2.542  0.00  0.00     0.199 C 
HETATM   19  O           1     -20.618  -7.420  -1.705  0.00  0.00    -0.646 OA
HETATM   20  O           1     -22.062  -5.908  -2.269  0.00  0.00    -0.646 OA
ENDBRANCH  17  18
BRANCH  17  21
HETATM   21  C           1     -20.757  -8.885  -3.929  0.00  0.00     0.147 C 
HETATM   22  C           1     -21.194  -9.737  -5.113  0.00  0.00     0.042 C 
BRANCH  21  23
HETATM   23  O           1     -19.404  -8.547  -4.070  0.00  0.00    -0.393 OA
HETATM   24  H           1     -19.374  -7.657  -4.376  0.00  0.00     0.210 HD
ENDBRANCH  21  23
ENDBRANCH  17  21
ENDBRANCH  15  17
ENDBRANCH   1  13
TORSDOF 10
ENDMDL
MODEL 7
REMARK VINA RESULT:      -5.0     13.978     15.483
REMARK  10 active torsions:
REMARK  status: ('A' for Active; 'I' for Inactive)
REMARK    1  A    between atoms: N_8  and  C_15 
REMARK    2  A    between atoms: O_11  and  P_12 
REMARK    3  A    between atoms: P_12  and  O_13 
REMARK    4  A    between atoms: O_13  and  C_14 
REMARK    5  A    between atoms: C_14  and  C_15 
REMARK    6  A    between atoms: C_15  and  C_16 
REMARK       I    between atoms: C_16  and  N_17 
REMARK    7  A    between atoms: N_17  and  C_21 
REMARK    8  A    between atoms: C_20  and  C_21 
REMARK    9  A    between atoms: C_21  and  C_23 
REMARK   10  A    between atoms: O_22  and  C_23 
ROOT
HETATM    1  C           1     -21.378  -6.658  -2.876  0.00  0.00     0.298 C 
ENDROOT
BRANCH   1   2
HETATM    2  N           1     -22.507  -5.830  -2.341  0.00  0.00    -0.064 N 
HETATM    3  H           1     -22.339  -5.623  -1.330  0.00  0.00     0.275 HD
HETATM    4  H           1     -23.404  -6.356  -2.444  0.00  0.00     0.275 HD
HETATM    5  H           1     -22.566  -4.934  -2.875  0.00  0.00     0.275 HD
ENDBRANCH   1   2
BRANCH   1   6
HETATM    6  C           1     -21.480  -8.073  -2.322  0.00  0.00     0.224 C 
BRANCH   6   7
HETATM    7  O           1     -20.943  -8.107  -1.026  0.00  0.00    -0.287 OA
BRANCH   7   8
HETATM    8  P           1     -21.971  -8.497   0.156  0.00  0.00     0.406 P 
HETATM    9  O           1     -22.408  -9.900  -0.013  0.00  0.00    -0.624 OA
HETATM   10  O           1     -21.297  -8.342   1.465  0.00  0.00    -0.624 OA
BRANCH   8  11
HETATM   11  O           1     -23.257  -7.521   0.095  0.00  0.00    -0.300 OA
HETATM   12  H           1     -23.057  -6.896  -0.579  0.00  0.00     0.223 HD
ENDBRANCH   8  11
ENDBRANCH   7   8
ENDBRANCH   6   7
ENDBRANCH   1   6
BRANCH   1  13
HETATM   13  C           1     -21.456  -6.701  -4.383  0.00  0.00     0.251 C 
HETATM   14  O           1     -21.496  -7.764  -4.955  0.00  0.00    -0.271 OA
HETATM   15  N           1     -21.483  -5.536  -5.101  0.00  0.00    -0.342 N 
HETATM   16  H           1     -21.449  -4.646  -4.620  0.00  0.00     0.163 HD
BRANCH  15  17
HETATM   17  C           1     -21.559  -5.577  -6.547  0.00  0.00     0.214 C 
BRANCH  17  18
HETATM   18  C           1     -20.171  -5.442  -7.127  0.00  0.00     0.199 C 
HETATM   19  O           1     -19.519  -4.389  -6.948  0.00  0.00    -0.646 OA
HETATM   20  O           1     -19.674  -6.380  -7.786  0.00  0.00    -0.646 OA
ENDBRANCH  17  18
BRANCH  17  21
HETATM   21  C           1     -22.430  -4.430  -7.043  0.00  0.00     0.147 C 
HETATM   22  C           1     -22.434  -4.417  -8.566  0.00  0.00     0.042 C 
BRANCH  21  23
HETATM   23  O           1     -23.739  -4.603  -6.573  0.00  0.00    -0.393 OA
HETATM   24  H           1     -24.106  -3.743  -6.459  0.00  0.00     0.210 HD
ENDBRANCH  21  23
ENDBRANCH  17  21
ENDBRANCH  15  17
ENDBRANCH   1  13
TORSDOF 10
ENDMDL
MODEL 8
REMARK VINA RESULT:      -4.9     13.878     15.530
REMARK  10 active torsions:
REMARK  status: ('A' for Active; 'I' for Inactive)
REMARK    1  A    between atoms: N_8  and  C_15 
REMARK    2  A    between atoms: O_11  and  P_12 
REMARK    3  A    between atoms: P_12  and  O_13 
REMARK    4  A    between atoms: O_13  and  C_14 
REMARK    5  A    between atoms: C_14  and  C_15 
REMARK    6  A    between atoms: C_15  and  C_16 
REMARK       I    between atoms: C_16  and  N_17 
REMARK    7  A    between atoms: N_17  and  C_21 
REMARK    8  A    between atoms: C_20  and  C_21 
REMARK    9  A    between atoms: C_21  and  C_23 
REMARK   10  A    between atoms: O_22  and  C_23 
ROOT
HETATM    1  C           1     -21.773  -6.926  -5.495  0.00  0.00     0.298 C 
ENDROOT
BRANCH   1   2
HETATM    2  N           1     -22.922  -6.210  -4.852  0.00  0.00    -0.064 N 
HETATM    3  H           1     -23.785  -6.353  -5.424  0.00  0.00     0.275 HD
HETATM    4  H           1     -22.707  -5.189  -4.794  0.00  0.00     0.275 HD
HETATM    5  H           1     -23.074  -6.588  -3.890  0.00  0.00     0.275 HD
ENDBRANCH   1   2
BRANCH   1   6
HETATM    6  C           1     -20.882  -5.918  -6.208  0.00  0.00     0.224 C 
BRANCH   6   7
HETATM    7  O           1     -21.350  -5.721  -7.515  0.00  0.00    -0.287 OA
BRANCH   7   8
HETATM    8  P           1     -22.047  -4.295  -7.810  0.00  0.00     0.406 P 
HETATM    9  O           1     -21.302  -3.227  -7.106  0.00  0.00    -0.624 OA
HETATM   10  O           1     -22.031  -4.031  -9.266  0.00  0.00    -0.624 OA
BRANCH   8  11
HETATM   11  O           1     -23.574  -4.322  -7.286  0.00  0.00    -0.300 OA
HETATM   12  H           1     -23.713  -3.477  -6.893  0.00  0.00     0.223 HD
ENDBRANCH   8  11
ENDBRANCH   7   8
ENDBRANCH   6   7
ENDBRANCH   1   6
BRANCH   1  13
HETATM   13  C           1     -20.973  -7.646  -4.437  0.00  0.00     0.251 C 
HETATM   14  O           1     -19.845  -8.008  -4.675  0.00  0.00    -0.271 OA
HETATM   15  N           1     -21.524  -7.887  -3.208  0.00  0.00    -0.342 N 
HETATM   16  H           1     -22.469  -7.583  -3.009  0.00  0.00     0.163 HD
BRANCH  15  17
HETATM   17  C           1     -20.755  -8.577  -2.191  0.00  0.00     0.214 C 
BRANCH  17  18
HETATM   18  C           1     -21.134 -10.039  -2.181  0.00  0.00     0.199 C 
HETATM   19  O           1     -20.258 -10.910  -1.993  0.00  0.00    -0.646 OA
HETATM   20  O           1     -22.323 -10.377  -2.361  0.00  0.00    -0.646 OA
ENDBRANCH  17  18
BRANCH  17  21
HETATM   21  C           1     -21.052  -7.966  -0.827  0.00  0.00     0.147 C 
HETATM   22  C           1     -22.265  -7.050  -0.936  0.00  0.00     0.042 C 
BRANCH  21  23
HETATM   23  O           1     -21.319  -8.988   0.094  0.00  0.00    -0.393 OA
HETATM   24  H           1     -21.816  -9.646  -0.362  0.00  0.00     0.210 HD
ENDBRANCH  21  23
ENDBRANCH  17  21
ENDBRANCH  15  17
ENDBRANCH   1  13
TORSDOF 10
ENDMDL
MODEL 9
REMARK VINA RESULT:      -4.7     14.726     16.259
REMARK  10 active torsions:
REMARK  status: ('A' for Active; 'I' for Inactive)
REMARK    1  A    between atoms: N_8  and  C_15 
REMARK    2  A    between atoms: O_11  and  P_12 
REMARK    3  A    between atoms: P_12  and  O_13 
REMARK    4  A    between atoms: O_13  and  C_14 
REMARK    5  A    between atoms: C_14  and  C_15 
REMARK    6  A    between atoms: C_15  and  C_16 
REMARK       I    between atoms: C_16  and  N_17 
REMARK    7  A    between atoms: N_17  and  C_21 
REMARK    8  A    between atoms: C_20  and  C_21 
REMARK    9  A    between atoms: C_21  and  C_23 
REMARK   10  A    between atoms: O_22  and  C_23 
ROOT
HETATM    1  C           1     -20.273  -8.491  -4.880  0.00  0.00     0.298 C 
ENDROOT
BRANCH   1   2
HETATM    2  N           1     -20.206  -9.852  -5.506  0.00  0.00    -0.064 N 
HETATM    3  H           1     -20.307 -10.582  -4.765  0.00  0.00     0.275 HD
HETATM    4  H           1     -19.287  -9.968  -5.989  0.00  0.00     0.275 HD
HETATM    5  H           1     -20.979  -9.953  -6.202  0.00  0.00     0.275 HD
ENDBRANCH   1   2
BRANCH   1   6
HETATM    6  C           1     -21.575  -7.811  -5.280  0.00  0.00     0.224 C 
BRANCH   6   7
HETATM    7  O           1     -21.488  -6.438  -5.011  0.00  0.00    -0.287 OA
BRANCH   7   8
HETATM    8  P           1     -21.165  -5.487  -6.275  0.00  0.00     0.406 P 
HETATM    9  O           1     -20.171  -4.464  -5.882  0.00  0.00    -0.624 OA
HETATM   10  O           1     -20.619  -6.308  -7.380  0.00  0.00    -0.624 OA
BRANCH   8  11
HETATM   11  O           1     -22.521  -4.761  -6.765  0.00  0.00    -0.300 OA
HETATM   12  H           1     -23.188  -5.064  -6.172  0.00  0.00     0.223 HD
ENDBRANCH   8  11
ENDBRANCH   7   8
ENDBRANCH   6   7
ENDBRANCH   1   6
BRANCH   1  13
HETATM   13  C           1     -20.215  -8.625  -3.378  0.00  0.00     0.251 C 
HETATM   14  O           1     -19.178  -8.933  -2.839  0.00  0.00    -0.271 OA
HETATM   15  N           1     -21.335  -8.397  -2.626  0.00  0.00    -0.342 N 
HETATM   16  H           1     -22.203  -8.139  -3.078  0.00  0.00     0.163 HD
BRANCH  15  17
HETATM   17  C           1     -21.279  -8.525  -1.183  0.00  0.00     0.214 C 
BRANCH  17  18
HETATM   18  C           1     -21.944  -9.815  -0.768  0.00  0.00     0.199 C 
HETATM   19  O           1     -22.783 -10.356  -1.520  0.00  0.00    -0.646 OA
HETATM   20  O           1     -21.656 -10.342   0.328  0.00  0.00    -0.646 OA
ENDBRANCH  17  18
BRANCH  17  21
HETATM   21  C           1     -22.005  -7.349  -0.541  0.00  0.00     0.147 C 
HETATM   22  C           1     -22.325  -6.308  -1.605  0.00  0.00     0.042 C 
BRANCH  21  23
HETATM   23  O           1     -23.195  -7.801   0.045  0.00  0.00    -0.393 OA
HETATM   24  H           1     -22.999  -8.006   0.943  0.00  0.00     0.210 HD
ENDBRANCH  21  23
ENDBRANCH  17  21
ENDBRANCH  15  17
ENDBRANCH   1  13
TORSDOF 10
ENDMDL
