MODEL 1
REMARK VINA RESULT:      -7.5      0.000      0.000
REMARK  9 active torsions:
REMARK  status: ('A' for Active; 'I' for Inactive)
REMARK    1  A    between atoms: C_1  and  C_2 
REMARK    2  A    between atoms: C_1  and  C_19 
REMARK    3  A    between atoms: C_2  and  C_9 
REMARK    4  A    between atoms: C_2  and  N_11 
REMARK       I    between atoms: N_11  and  C_29 
REMARK    5  A    between atoms: C_14  and  C_31 
REMARK       I    between atoms: C_14  and  N_15 
REMARK    6  A    between atoms: N_17  and  C_28 
REMARK    7  A    between atoms: C_27  and  C_28 
REMARK    8  A    between atoms: C_27  and  C_31 
REMARK    9  A    between atoms: C_28  and  C_29 
ROOT
HETATM    1  N           1     -20.065  -6.924  -6.595  0.00  0.00    -0.344 N 
HETATM    2  H           1     -20.004  -7.582  -7.361  0.00  0.00     0.163 HD
HETATM    3  O           1     -19.154  -4.915  -6.944  0.00  0.00    -0.271 OA
HETATM    4  C           1     -20.157  -5.582  -6.851  0.00  0.00     0.249 C 
ENDROOT
BRANCH   1   5
HETATM    5  C           1     -20.056  -7.401  -5.226  0.00  0.00     0.190 C 
BRANCH   5   6
HETATM    6  C           1     -21.469  -7.795  -4.817  0.00  0.00     0.077 C 
BRANCH   6   7
HETATM    7  C           1     -21.736  -7.324  -3.422  0.00  0.00    -0.028 A 
HETATM    8  C           1     -22.019  -6.031  -3.043  0.00  0.00     0.096 A 
HETATM    9  N           1     -22.198  -6.023  -1.685  0.00  0.00    -0.365 N 
HETATM   10  C           1     -22.034  -7.291  -1.175  0.00  0.00     0.042 A 
HETATM   11  H           1     -22.426  -5.171  -1.115  0.00  0.00     0.165 HD
HETATM   12  C           1     -22.122  -7.755   0.143  0.00  0.00     0.030 A 
HETATM   13  C           1     -21.742  -8.130  -2.250  0.00  0.00    -0.002 A 
HETATM   14  C           1     -21.905  -9.118   0.365  0.00  0.00     0.002 A 
HETATM   15  C           1     -21.611  -9.980  -0.690  0.00  0.00     0.001 A 
HETATM   16  C           1     -21.527  -9.499  -2.003  0.00  0.00     0.014 A 
ENDBRANCH   6   7
ENDBRANCH   5   6
BRANCH   5  17
HETATM   17  C           1     -19.148  -8.601  -5.119  0.00  0.00     0.197 C 
HETATM   18  O           1     -18.669  -8.926  -4.011  0.00  0.00    -0.646 OA
HETATM   19  O           1     -18.875  -9.272  -6.138  0.00  0.00    -0.646 OA
ENDBRANCH   5  17
ENDBRANCH   1   5
BRANCH   4  20
HETATM   20  C           1     -21.511  -4.936  -7.016  0.00  0.00     0.275 C 
BRANCH  20  21
HETATM   21  N           1     -21.387  -3.456  -6.800  0.00  0.00    -0.066 N 
HETATM   22  H           1     -20.874  -3.029  -7.604  0.00  0.00     0.275 HD
HETATM   23  H           1     -20.862  -3.277  -5.915  0.00  0.00     0.275 HD
HETATM   24  H           1     -22.340  -3.034  -6.731  0.00  0.00     0.275 HD
ENDBRANCH  20  21
BRANCH  20  25
HETATM   25  C           1     -22.033  -5.201  -8.422  0.00  0.00     0.052 C 
BRANCH  25  26
HETATM   26  C           1     -22.011  -3.907  -9.226  0.00  0.00     0.105 C 
BRANCH  26  27
HETATM   27  C           1     -23.404  -3.593  -9.712  0.00  0.00     0.215 C 
HETATM   28  N           1     -24.444  -3.542  -8.823  0.00  0.00    -0.370 N 
HETATM   29  H           1     -24.278  -3.715  -7.840  0.00  0.00     0.159 HD
HETATM   30  H           1     -25.378  -3.332  -9.150  0.00  0.00     0.159 HD
HETATM   31  O           1     -23.602  -3.388 -10.886  0.00  0.00    -0.274 OA
ENDBRANCH  26  27
ENDBRANCH  25  26
ENDBRANCH  20  25
ENDBRANCH   4  20
TORSDOF 9
ENDMDL
MODEL 2
REMARK VINA RESULT:      -7.4      1.320      1.986
REMARK  9 active torsions:
REMARK  status: ('A' for Active; 'I' for Inactive)
REMARK    1  A    between atoms: C_1  and  C_2 
REMARK    2  A    between atoms: C_1  and  C_19 
REMARK    3  A    between atoms: C_2  and  C_9 
REMARK    4  A    between atoms: C_2  and  N_11 
REMARK       I    between atoms: N_11  and  C_29 
REMARK    5  A    between atoms: C_14  and  C_31 
REMARK       I    between atoms: C_14  and  N_15 
REMARK    6  A    between atoms: N_17  and  C_28 
REMARK    7  A    between atoms: C_27  and  C_28 
REMARK    8  A    between atoms: C_27  and  C_31 
REMARK    9  A    between atoms: C_28  and  C_29 
ROOT
HETATM    1  N           1     -19.801  -7.047  -6.430  0.00  0.00    -0.344 N 
HETATM    2  H           1     -19.373  -7.432  -7.263  0.00  0.00     0.163 HD
HETATM    3  O           1     -19.535  -4.853  -6.108  0.00  0.00    -0.271 OA
HETATM    4  C           1     -20.266  -5.760  -6.433  0.00  0.00     0.249 C 
ENDROOT
BRANCH   1   5
HETATM    5  C           1     -19.924  -7.860  -5.236  0.00  0.00     0.190 C 
BRANCH   5   6
HETATM    6  C           1     -21.260  -8.591  -5.255  0.00  0.00     0.077 C 
BRANCH   6   7
HETATM    7  C           1     -21.554  -9.132  -3.891  0.00  0.00    -0.028 A 
HETATM    8  C           1     -21.627 -10.462  -3.545  0.00  0.00     0.096 A 
HETATM    9  N           1     -21.915 -10.531  -2.207  0.00  0.00    -0.365 N 
HETATM   10  C           1     -22.030  -9.265  -1.679  0.00  0.00     0.042 A 
HETATM   11  H           1     -22.032 -11.422  -1.664  0.00  0.00     0.165 HD
HETATM   12  C           1     -22.312  -8.853  -0.371  0.00  0.00     0.030 A 
HETATM   13  C           1     -21.807  -8.364  -2.721  0.00  0.00    -0.002 A 
HETATM   14  C           1     -22.366  -7.478  -0.124  0.00  0.00     0.002 A 
HETATM   15  C           1     -22.146  -6.554  -1.145  0.00  0.00     0.001 A 
HETATM   16  C           1     -21.866  -6.985  -2.448  0.00  0.00     0.014 A 
ENDBRANCH   6   7
ENDBRANCH   5   6
BRANCH   5  17
HETATM   17  C           1     -18.800  -8.865  -5.195  0.00  0.00     0.197 C 
HETATM   18  O           1     -18.418  -9.418  -6.248  0.00  0.00    -0.646 OA
HETATM   19  O           1     -18.251  -9.145  -4.108  0.00  0.00    -0.646 OA
ENDBRANCH   5  17
ENDBRANCH   1   5
BRANCH   4  20
HETATM   20  C           1     -21.690  -5.471  -6.841  0.00  0.00     0.275 C 
BRANCH  20  21
HETATM   21  N           1     -22.574  -5.511  -5.630  0.00  0.00    -0.066 N 
HETATM   22  H           1     -21.989  -5.657  -4.776  0.00  0.00     0.275 HD
HETATM   23  H           1     -23.257  -6.296  -5.724  0.00  0.00     0.275 HD
HETATM   24  H           1     -23.093  -4.608  -5.548  0.00  0.00     0.275 HD
ENDBRANCH  20  21
BRANCH  20  25
HETATM   25  C           1     -21.767  -4.090  -7.478  0.00  0.00     0.052 C 
BRANCH  25  26
HETATM   26  C           1     -21.822  -4.230  -8.994  0.00  0.00     0.105 C 
BRANCH  26  27
HETATM   27  C           1     -23.147  -3.715  -9.499  0.00  0.00     0.215 C 
HETATM   28  N           1     -24.224  -3.655  -8.656  0.00  0.00    -0.370 N 
HETATM   29  H           1     -24.131  -3.955  -7.694  0.00  0.00     0.159 HD
HETATM   30  H           1     -25.113  -3.310  -8.994  0.00  0.00     0.159 HD
HETATM   31  O           1     -23.259  -3.357 -10.647  0.00  0.00    -0.274 OA
ENDBRANCH  26  27
ENDBRANCH  25  26
ENDBRANCH  20  25
ENDBRANCH   4  20
TORSDOF 9
ENDMDL
MODEL 3
REMARK VINA RESULT:      -7.4      2.404      7.815
REMARK  9 active torsions:
REMARK  status: ('A' for Active; 'I' for Inactive)
REMARK    1  A    between atoms: C_1  and  C_2 
REMARK    2  A    between atoms: C_1  and  C_19 
REMARK    3  A    between atoms: C_2  and  C_9 
REMARK    4  A    between atoms: C_2  and  N_11 
REMARK       I    between atoms: N_11  and  C_29 
REMARK    5  A    between atoms: C_14  and  C_31 
REMARK       I    between atoms: C_14  and  N_15 
REMARK    6  A    between atoms: N_17  and  C_28 
REMARK    7  A    between atoms: C_27  and  C_28 
REMARK    8  A    between atoms: C_27  and  C_31 
REMARK    9  A    between atoms: C_28  and  C_29 
ROOT
HETATM    1  N           1     -22.477  -6.352  -4.233  0.00  0.00    -0.344 N 
HETATM    2  H           1     -23.456  -6.099  -4.191  0.00  0.00     0.163 HD
HETATM    3  O           1     -21.127  -5.317  -2.786  0.00  0.00    -0.271 OA
HETATM    4  C           1     -21.714  -6.327  -3.097  0.00  0.00     0.249 C 
ENDROOT
BRANCH   1   5
HETATM    5  C           1     -21.883  -6.742  -5.497  0.00  0.00     0.190 C 
BRANCH   5   6
HETATM    6  C           1     -21.112  -5.565  -6.080  0.00  0.00     0.077 C 
BRANCH   6   7
HETATM    7  C           1     -21.922  -4.923  -7.162  0.00  0.00    -0.028 A 
HETATM    8  C           1     -23.233  -4.515  -7.061  0.00  0.00     0.096 A 
HETATM    9  N           1     -23.600  -3.981  -8.267  0.00  0.00    -0.365 N 
HETATM   10  C           1     -22.546  -4.035  -9.152  0.00  0.00     0.042 A 
HETATM   11  H           1     -24.549  -3.587  -8.486  0.00  0.00     0.165 HD
HETATM   12  C           1     -22.460  -3.611 -10.484  0.00  0.00     0.030 A 
HETATM   13  C           1     -21.476  -4.625  -8.479  0.00  0.00    -0.002 A 
HETATM   14  C           1     -21.242  -3.796 -11.144  0.00  0.00     0.002 A 
HETATM   15  C           1     -20.155  -4.383 -10.497  0.00  0.00     0.001 A 
HETATM   16  C           1     -20.260  -4.802  -9.164  0.00  0.00     0.014 A 
ENDBRANCH   6   7
ENDBRANCH   5   6
BRANCH   5  17
HETATM   17  C           1     -20.941  -7.899  -5.273  0.00  0.00     0.197 C 
HETATM   18  O           1     -21.387  -9.065  -5.208  0.00  0.00    -0.646 OA
HETATM   19  O           1     -19.714  -7.693  -5.154  0.00  0.00    -0.646 OA
ENDBRANCH   5  17
ENDBRANCH   1   5
BRANCH   4  20
HETATM   20  C           1     -21.606  -7.560  -2.233  0.00  0.00     0.275 C 
BRANCH  20  21
HETATM   21  N           1     -20.158  -7.878  -1.998  0.00  0.00    -0.066 N 
HETATM   22  H           1     -20.017  -8.913  -2.046  0.00  0.00     0.275 HD
HETATM   23  H           1     -19.874  -7.530  -1.055  0.00  0.00     0.275 HD
HETATM   24  H           1     -19.577  -7.412  -2.730  0.00  0.00     0.275 HD
ENDBRANCH  20  21
BRANCH  20  25
HETATM   25  C           1     -22.291  -7.306  -0.897  0.00  0.00     0.052 C 
BRANCH  25  26
HETATM   26  C           1     -21.664  -8.188   0.174  0.00  0.00     0.105 C 
BRANCH  26  27
HETATM   27  C           1     -22.357  -9.528   0.193  0.00  0.00     0.215 C 
HETATM   28  N           1     -21.627 -10.675   0.358  0.00  0.00    -0.370 N 
HETATM   29  H           1     -20.623 -10.623   0.468  0.00  0.00     0.159 HD
HETATM   30  H           1     -22.093 -11.573   0.371  0.00  0.00     0.159 HD
HETATM   31  O           1     -23.557  -9.589   0.062  0.00  0.00    -0.274 OA
ENDBRANCH  26  27
ENDBRANCH  25  26
ENDBRANCH  20  25
ENDBRANCH   4  20
TORSDOF 9
ENDMDL
MODEL 4
REMARK VINA RESULT:      -7.2      2.182      2.725
REMARK  9 active torsions:
REMARK  status: ('A' for Active; 'I' for Inactive)
REMARK    1  A    between atoms: C_1  and  C_2 
REMARK    2  A    between atoms: C_1  and  C_19 
REMARK    3  A    between atoms: C_2  and  C_9 
REMARK    4  A    between atoms: C_2  and  N_11 
REMARK       I    between atoms: N_11  and  C_29 
REMARK    5  A    between atoms: C_14  and  C_31 
REMARK       I    between atoms: C_14  and  N_15 
REMARK    6  A    between atoms: N_17  and  C_28 
REMARK    7  A    between atoms: C_27  and  C_28 
REMARK    8  A    between atoms: C_27  and  C_31 
REMARK    9  A    between atoms: C_28  and  C_29 
ROOT
HETATM    1  N           1     -20.679  -7.020  -6.672  0.00  0.00    -0.344 N 
HETATM    2  H           1     -20.239  -7.689  -7.292  0.00  0.00     0.163 HD
HETATM    3  O           1     -19.660  -5.043  -6.471  0.00  0.00    -0.271 OA
HETATM    4  C           1     -20.579  -5.680  -6.930  0.00  0.00     0.249 C 
ENDROOT
BRANCH   1   5
HETATM    5  C           1     -21.413  -7.483  -5.511  0.00  0.00     0.190 C 
BRANCH   5   6
HETATM    6  C           1     -20.448  -8.121  -4.521  0.00  0.00     0.077 C 
BRANCH   6   7
HETATM    7  C           1     -21.197  -9.056  -3.624  0.00  0.00    -0.028 A 
HETATM    8  C           1     -21.642 -10.316  -3.955  0.00  0.00     0.096 A 
HETATM    9  N           1     -22.277 -10.837  -2.859  0.00  0.00    -0.365 N 
HETATM   10  C           1     -22.252  -9.934  -1.820  0.00  0.00     0.042 A 
HETATM   11  H           1     -22.720 -11.789  -2.818  0.00  0.00     0.165 HD
HETATM   12  C           1     -22.771 -10.033  -0.523  0.00  0.00     0.030 A 
HETATM   13  C           1     -21.577  -8.802  -2.277  0.00  0.00    -0.002 A 
HETATM   14  C           1     -22.591  -8.939   0.329  0.00  0.00     0.002 A 
HETATM   15  C           1     -21.920  -7.795  -0.099  0.00  0.00     0.001 A 
HETATM   16  C           1     -21.408  -7.714  -1.400  0.00  0.00     0.014 A 
ENDBRANCH   6   7
ENDBRANCH   5   6
BRANCH   5  17
HETATM   17  C           1     -22.106  -6.313  -4.856  0.00  0.00     0.197 C 
HETATM   18  O           1     -21.507  -5.636  -3.993  0.00  0.00    -0.646 OA
HETATM   19  O           1     -23.278  -6.020  -5.177  0.00  0.00    -0.646 OA
ENDBRANCH   5  17
ENDBRANCH   1   5
BRANCH   4  20
HETATM   20  C           1     -21.618  -4.997  -7.786  0.00  0.00     0.275 C 
BRANCH  20  21
HETATM   21  N           1     -22.066  -3.732  -7.113  0.00  0.00    -0.066 N 
HETATM   22  H           1     -21.393  -3.485  -6.353  0.00  0.00     0.275 HD
HETATM   23  H           1     -23.018  -3.873  -6.707  0.00  0.00     0.275 HD
HETATM   24  H           1     -22.099  -2.959  -7.815  0.00  0.00     0.275 HD
ENDBRANCH  20  21
BRANCH  20  25
HETATM   25  C           1     -21.016  -4.662  -9.145  0.00  0.00     0.052 C 
BRANCH  25  26
HETATM   26  C           1     -22.012  -3.842  -9.955  0.00  0.00     0.105 C 
BRANCH  26  27
HETATM   27  C           1     -21.477  -3.636 -11.350  0.00  0.00     0.215 C 
HETATM   28  N           1     -20.306  -2.951 -11.540  0.00  0.00    -0.370 N 
HETATM   29  H           1     -19.800  -2.584 -10.745  0.00  0.00     0.159 HD
HETATM   30  H           1     -19.947  -2.813 -12.476  0.00  0.00     0.159 HD
HETATM   31  O           1     -22.081  -4.074 -12.300  0.00  0.00    -0.274 OA
ENDBRANCH  26  27
ENDBRANCH  25  26
ENDBRANCH  20  25
ENDBRANCH   4  20
TORSDOF 9
ENDMDL
MODEL 5
REMARK VINA RESULT:      -7.2     14.357     16.369
REMARK  9 active torsions:
REMARK  status: ('A' for Active; 'I' for Inactive)
REMARK    1  A    between atoms: C_1  and  C_2 
REMARK    2  A    between atoms: C_1  and  C_19 
REMARK    3  A    between atoms: C_2  and  C_9 
REMARK    4  A    between atoms: C_2  and  N_11 
REMARK       I    between atoms: N_11  and  C_29 
REMARK    5  A    between atoms: C_14  and  C_31 
REMARK       I    between atoms: C_14  and  N_15 
REMARK    6  A    between atoms: N_17  and  C_28 
REMARK    7  A    between atoms: C_27  and  C_28 
REMARK    8  A    between atoms: C_27  and  C_31 
REMARK    9  A    between atoms: C_28  and  C_29 
ROOT
HETATM    1  N           1     -34.741  -1.381 -12.729  0.00  0.00    -0.344 N 
HETATM    2  H           1     -33.840  -1.710 -13.050  0.00  0.00     0.163 HD
HETATM    3  O           1     -35.115   0.813 -12.916  0.00  0.00    -0.271 OA
HETATM    4  C           1     -35.329  -0.302 -13.331  0.00  0.00     0.249 C 
ENDROOT
BRANCH   1   5
HETATM    5  C           1     -35.410  -2.053 -11.632  0.00  0.00     0.190 C 
BRANCH   5   6
HETATM    6  C           1     -34.386  -2.434 -10.570  0.00  0.00     0.077 C 
BRANCH   6   7
HETATM    7  C           1     -33.719  -3.716 -10.956  0.00  0.00    -0.028 A 
HETATM    8  C           1     -32.610  -3.843 -11.762  0.00  0.00     0.096 A 
HETATM    9  N           1     -32.319  -5.178 -11.866  0.00  0.00    -0.365 N 
HETATM   10  C           1     -33.222  -5.920 -11.139  0.00  0.00     0.042 A 
HETATM   11  H           1     -31.521  -5.576 -12.421  0.00  0.00     0.165 HD
HETATM   12  C           1     -33.315  -7.306 -10.956  0.00  0.00     0.030 A 
HETATM   13  C           1     -34.116  -5.022 -10.556  0.00  0.00    -0.002 A 
HETATM   14  C           1     -34.353  -7.783 -10.150  0.00  0.00     0.002 A 
HETATM   15  C           1     -35.261  -6.909  -9.554  0.00  0.00     0.001 A 
HETATM   16  C           1     -35.153  -5.526  -9.749  0.00  0.00     0.014 A 
ENDBRANCH   6   7
ENDBRANCH   5   6
BRANCH   5  17
HETATM   17  C           1     -36.440  -1.130 -11.030  0.00  0.00     0.197 C 
HETATM   18  O           1     -36.119  -0.353 -10.105  0.00  0.00    -0.646 OA
HETATM   19  O           1     -37.614  -1.140 -11.457  0.00  0.00    -0.646 OA
ENDBRANCH   5  17
ENDBRANCH   1   5
BRANCH   4  20
HETATM   20  C           1     -36.247  -0.504 -14.512  0.00  0.00     0.275 C 
BRANCH  20  21
HETATM   21  N           1     -37.407   0.443 -14.411  0.00  0.00    -0.066 N 
HETATM   22  H           1     -37.810   0.604 -15.361  0.00  0.00     0.275 HD
HETATM   23  H           1     -37.080   1.352 -14.011  0.00  0.00     0.275 HD
HETATM   24  H           1     -38.137   0.032 -13.786  0.00  0.00     0.275 HD
ENDBRANCH  20  21
BRANCH  20  25
HETATM   25  C           1     -35.483  -0.232 -15.801  0.00  0.00     0.052 C 
BRANCH  25  26
HETATM   26  C           1     -35.707  -1.378 -16.778  0.00  0.00     0.105 C 
BRANCH  26  27
HETATM   27  C           1     -34.699  -2.469 -16.515  0.00  0.00     0.215 C 
HETATM   28  N           1     -33.783  -2.802 -17.477  0.00  0.00    -0.370 N 
HETATM   29  H           1     -33.783  -2.316 -18.364  0.00  0.00     0.159 HD
HETATM   30  H           1     -33.107  -3.533 -17.300  0.00  0.00     0.159 HD
HETATM   31  O           1     -34.699  -3.049 -15.455  0.00  0.00    -0.274 OA
ENDBRANCH  26  27
ENDBRANCH  25  26
ENDBRANCH  20  25
ENDBRANCH   4  20
TORSDOF 9
ENDMDL
MODEL 6
REMARK VINA RESULT:      -7.1     12.415     15.296
REMARK  9 active torsions:
REMARK  status: ('A' for Active; 'I' for Inactive)
REMARK    1  A    between atoms: C_1  and  C_2 
REMARK    2  A    between atoms: C_1  and  C_19 
REMARK    3  A    between atoms: C_2  and  C_9 
REMARK    4  A    between atoms: C_2  and  N_11 
REMARK       I    between atoms: N_11  and  C_29 
REMARK    5  A    between atoms: C_14  and  C_31 
REMARK       I    between atoms: C_14  and  N_15 
REMARK    6  A    between atoms: N_17  and  C_28 
REMARK    7  A    between atoms: C_27  and  C_28 
REMARK    8  A    between atoms: C_27  and  C_31 
REMARK    9  A    between atoms: C_28  and  C_29 
ROOT
HETATM    1  N           1     -25.401  -6.371 -18.726  0.00  0.00    -0.344 N 
HETATM    2  H           1     -25.535  -5.390 -18.517  0.00  0.00     0.163 HD
HETATM    3  O           1     -23.290  -7.098 -18.739  0.00  0.00    -0.271 OA
HETATM    4  C           1     -24.354  -7.053 -18.168  0.00  0.00     0.249 C 
ENDROOT
BRANCH   1   5
HETATM    5  C           1     -26.320  -7.054 -19.616  0.00  0.00     0.190 C 
BRANCH   5   6
HETATM    6  C           1     -27.512  -6.152 -19.904  0.00  0.00     0.077 C 
BRANCH   6   7
HETATM    7  C           1     -28.672  -6.568 -19.055  0.00  0.00    -0.028 A 
HETATM    8  C           1     -29.048  -7.862 -18.774  0.00  0.00     0.096 A 
HETATM    9  N           1     -30.153  -7.811 -17.966  0.00  0.00    -0.365 N 
HETATM   10  C           1     -30.501  -6.502 -17.717  0.00  0.00     0.042 A 
HETATM   11  H           1     -30.661  -8.650 -17.590  0.00  0.00     0.165 HD
HETATM   12  C           1     -31.549  -5.974 -16.953  0.00  0.00     0.030 A 
HETATM   13  C           1     -29.582  -5.698 -18.393  0.00  0.00    -0.002 A 
HETATM   14  C           1     -31.656  -4.582 -16.879  0.00  0.00     0.002 A 
HETATM   15  C           1     -30.753  -3.754 -17.544  0.00  0.00     0.001 A 
HETATM   16  C           1     -29.711  -4.300 -18.304  0.00  0.00     0.014 A 
ENDBRANCH   6   7
ENDBRANCH   5   6
BRANCH   5  17
HETATM   17  C           1     -25.615  -7.385 -20.908  0.00  0.00     0.197 C 
HETATM   18  O           1     -24.921  -6.517 -21.481  0.00  0.00    -0.646 OA
HETATM   19  O           1     -25.723  -8.526 -21.405  0.00  0.00    -0.646 OA
ENDBRANCH   5  17
ENDBRANCH   1   5
BRANCH   4  20
HETATM   20  C           1     -24.528  -7.749 -16.840  0.00  0.00     0.275 C 
BRANCH  20  21
HETATM   21  N           1     -23.192  -8.223 -16.347  0.00  0.00    -0.066 N 
HETATM   22  H           1     -23.227  -8.345 -15.310  0.00  0.00     0.275 HD
HETATM   23  H           1     -22.461  -7.518 -16.592  0.00  0.00     0.275 HD
HETATM   24  H           1     -22.959  -9.136 -16.798  0.00  0.00     0.275 HD
ENDBRANCH  20  21
BRANCH  20  25
HETATM   25  C           1     -25.124  -6.776 -15.831  0.00  0.00     0.052 C 
BRANCH  25  26
HETATM   26  C           1     -26.627  -7.001 -15.734  0.00  0.00     0.105 C 
BRANCH  26  27
HETATM   27  C           1     -27.341  -5.674 -15.807  0.00  0.00     0.215 C 
HETATM   28  N           1     -28.477  -5.466 -15.071  0.00  0.00    -0.370 N 
HETATM   29  H           1     -28.837  -6.202 -14.477  0.00  0.00     0.159 HD
HETATM   30  H           1     -28.955  -4.576 -15.120  0.00  0.00     0.159 HD
HETATM   31  O           1     -26.911  -4.795 -16.515  0.00  0.00    -0.274 OA
ENDBRANCH  26  27
ENDBRANCH  25  26
ENDBRANCH  20  25
ENDBRANCH   4  20
TORSDOF 9
ENDMDL
MODEL 7
REMARK VINA RESULT:      -7.0      2.832      5.159
REMARK  9 active torsions:
REMARK  status: ('A' for Active; 'I' for Inactive)
REMARK    1  A    between atoms: C_1  and  C_2 
REMARK    2  A    between atoms: C_1  and  C_19 
REMARK    3  A    between atoms: C_2  and  C_9 
REMARK    4  A    between atoms: C_2  and  N_11 
REMARK       I    between atoms: N_11  and  C_29 
REMARK    5  A    between atoms: C_14  and  C_31 
REMARK       I    between atoms: C_14  and  N_15 
REMARK    6  A    between atoms: N_17  and  C_28 
REMARK    7  A    between atoms: C_27  and  C_28 
REMARK    8  A    between atoms: C_27  and  C_31 
REMARK    9  A    between atoms: C_28  and  C_29 
ROOT
HETATM    1  N           1     -20.881  -7.354  -2.297  0.00  0.00    -0.344 N 
HETATM    2  H           1     -19.978  -7.035  -1.970  0.00  0.00     0.163 HD
HETATM    3  O           1     -22.488  -5.808  -2.425  0.00  0.00    -0.271 OA
HETATM    4  C           1     -21.691  -6.508  -3.005  0.00  0.00     0.249 C 
ENDROOT
BRANCH   1   5
HETATM    5  C           1     -21.317  -8.709  -2.016  0.00  0.00     0.190 C 
BRANCH   5   6
HETATM    6  C           1     -20.113  -9.641  -2.028  0.00  0.00     0.077 C 
BRANCH   6   7
HETATM    7  C           1     -19.583  -9.757  -3.422  0.00  0.00    -0.028 A 
HETATM    8  C           1     -20.335  -9.899  -4.567  0.00  0.00     0.096 A 
HETATM    9  N           1     -19.473  -9.969  -5.628  0.00  0.00    -0.365 N 
HETATM   10  C           1     -18.171  -9.874  -5.191  0.00  0.00     0.042 A 
HETATM   11  H           1     -19.764 -10.079  -6.632  0.00  0.00     0.165 HD
HETATM   12  C           1     -16.970  -9.897  -5.912  0.00  0.00     0.030 A 
HETATM   13  C           1     -18.213  -9.740  -3.804  0.00  0.00    -0.002 A 
HETATM   14  C           1     -15.780  -9.777  -5.189  0.00  0.00     0.002 A 
HETATM   15  C           1     -15.791  -9.641  -3.802  0.00  0.00     0.001 A 
HETATM   16  C           1     -17.001  -9.621  -3.097  0.00  0.00     0.014 A 
ENDBRANCH   6   7
ENDBRANCH   5   6
BRANCH   5  17
HETATM   17  C           1     -21.975  -8.753  -0.660  0.00  0.00     0.197 C 
HETATM   18  O           1     -22.979  -9.475  -0.476  0.00  0.00    -0.646 OA
HETATM   19  O           1     -21.517  -8.070   0.281  0.00  0.00    -0.646 OA
ENDBRANCH   5  17
ENDBRANCH   1   5
BRANCH   4  20
HETATM   20  C           1     -21.590  -6.448  -4.510  0.00  0.00     0.275 C 
BRANCH  20  21
HETATM   21  N           1     -22.935  -6.119  -5.088  0.00  0.00    -0.066 N 
HETATM   22  H           1     -23.211  -6.859  -5.771  0.00  0.00     0.275 HD
HETATM   23  H           1     -22.887  -5.195  -5.572  0.00  0.00     0.275 HD
HETATM   24  H           1     -23.641  -6.072  -4.319  0.00  0.00     0.275 HD
ENDBRANCH  20  21
BRANCH  20  25
HETATM   25  C           1     -20.589  -5.372  -4.909  0.00  0.00     0.052 C 
BRANCH  25  26
HETATM   26  C           1     -20.136  -5.605  -6.344  0.00  0.00     0.105 C 
BRANCH  26  27
HETATM   27  C           1     -20.556  -4.437  -7.202  0.00  0.00     0.215 C 
HETATM   28  N           1     -19.688  -3.918  -8.125  0.00  0.00    -0.370 N 
HETATM   29  H           1     -18.765  -4.319  -8.232  0.00  0.00     0.159 HD
HETATM   30  H           1     -19.970  -3.135  -8.700  0.00  0.00     0.159 HD
HETATM   31  O           1     -21.658  -3.959  -7.073  0.00  0.00    -0.274 OA
ENDBRANCH  26  27
ENDBRANCH  25  26
ENDBRANCH  20  25
ENDBRANCH   4  20
TORSDOF 9
ENDMDL
MODEL 8
REMARK VINA RESULT:      -6.9      2.958      7.018
REMARK  9 active torsions:
REMARK  status: ('A' for Active; 'I' for Inactive)
REMARK    1  A    between atoms: C_1  and  C_2 
REMARK    2  A    between atoms: C_1  and  C_19 
REMARK    3  A    between atoms: C_2  and  C_9 
REMARK    4  A    between atoms: C_2  and  N_11 
REMARK       I    between atoms: N_11  and  C_29 
REMARK    5  A    between atoms: C_14  and  C_31 
REMARK       I    between atoms: C_14  and  N_15 
REMARK    6  A    between atoms: N_17  and  C_28 
REMARK    7  A    between atoms: C_27  and  C_28 
REMARK    8  A    between atoms: C_27  and  C_31 
REMARK    9  A    between atoms: C_28  and  C_29 
ROOT
HETATM    1  N           1     -20.246 -10.007  -3.453  0.00  0.00    -0.344 N 
HETATM    2  H           1     -19.336  -9.820  -3.050  0.00  0.00     0.163 HD
HETATM    3  O           1     -21.187 -11.955  -2.901  0.00  0.00    -0.271 OA
HETATM    4  C           1     -21.159 -10.756  -2.761  0.00  0.00     0.249 C 
ENDROOT
BRANCH   1   5
HETATM    5  C           1     -20.583  -9.480  -4.761  0.00  0.00     0.190 C 
BRANCH   5   6
HETATM    6  C           1     -19.864  -8.155  -4.975  0.00  0.00     0.077 C 
BRANCH   6   7
HETATM    7  C           1     -20.858  -7.101  -5.349  0.00  0.00    -0.028 A 
HETATM    8  C           1     -22.121  -6.953  -4.822  0.00  0.00     0.096 A 
HETATM    9  N           1     -22.704  -5.873  -5.429  0.00  0.00    -0.365 N 
HETATM   10  C           1     -21.839  -5.316  -6.344  0.00  0.00     0.042 A 
HETATM   11  H           1     -23.673  -5.521  -5.226  0.00  0.00     0.165 HD
HETATM   12  C           1     -22.004  -4.212  -7.189  0.00  0.00     0.030 A 
HETATM   13  C           1     -20.667  -6.073  -6.313  0.00  0.00    -0.002 A 
HETATM   14  C           1     -20.935  -3.873  -8.024  0.00  0.00     0.002 A 
HETATM   15  C           1     -19.752  -4.610  -8.015  0.00  0.00     0.001 A 
HETATM   16  C           1     -19.606  -5.712  -7.164  0.00  0.00     0.014 A 
ENDBRANCH   6   7
ENDBRANCH   5   6
BRANCH   5  17
HETATM   17  C           1     -20.155 -10.463  -5.823  0.00  0.00     0.197 C 
HETATM   18  O           1     -18.947 -10.567  -6.127  0.00  0.00    -0.646 OA
HETATM   19  O           1     -21.007 -11.174  -6.398  0.00  0.00    -0.646 OA
ENDBRANCH   5  17
ENDBRANCH   1   5
BRANCH   4  20
HETATM   20  C           1     -22.131 -10.083  -1.822  0.00  0.00     0.275 C 
BRANCH  20  21
HETATM   21  N           1     -23.315 -10.979  -1.604  0.00  0.00    -0.066 N 
HETATM   22  H           1     -23.056 -11.963  -1.842  0.00  0.00     0.275 HD
HETATM   23  H           1     -24.104 -10.667  -2.215  0.00  0.00     0.275 HD
HETATM   24  H           1     -23.610 -10.928  -0.603  0.00  0.00     0.275 HD
ENDBRANCH  20  21
BRANCH  20  25
HETATM   25  C           1     -21.447  -9.815  -0.488  0.00  0.00     0.052 C 
BRANCH  25  26
HETATM   26  C           1     -21.186  -8.322  -0.340  0.00  0.00     0.105 C 
BRANCH  26  27
HETATM   27  C           1     -22.501  -7.584  -0.282  0.00  0.00     0.215 C 
HETATM   28  N           1     -23.456  -7.958   0.625  0.00  0.00    -0.370 N 
HETATM   29  H           1     -23.280  -8.730   1.256  0.00  0.00     0.159 HD
HETATM   30  H           1     -24.338  -7.464   0.664  0.00  0.00     0.159 HD
HETATM   31  O           1     -22.711  -6.664  -1.036  0.00  0.00    -0.274 OA
ENDBRANCH  26  27
ENDBRANCH  25  26
ENDBRANCH  20  25
ENDBRANCH   4  20
TORSDOF 9
ENDMDL
MODEL 9
REMARK VINA RESULT:      -6.9      2.474      7.536
REMARK  9 active torsions:
REMARK  status: ('A' for Active; 'I' for Inactive)
REMARK    1  A    between atoms: C_1  and  C_2 
REMARK    2  A    between atoms: C_1  and  C_19 
REMARK    3  A    between atoms: C_2  and  C_9 
REMARK    4  A    between atoms: C_2  and  N_11 
REMARK       I    between atoms: N_11  and  C_29 
REMARK    5  A    between atoms: C_14  and  C_31 
REMARK       I    between atoms: C_14  and  N_15 
REMARK    6  A    between atoms: N_17  and  C_28 
REMARK    7  A    between atoms: C_27  and  C_28 
REMARK    8  A    between atoms: C_27  and  C_31 
REMARK    9  A    between atoms: C_28  and  C_29 
ROOT
HETATM    1  N           1     -22.547  -6.583  -4.077  0.00  0.00    -0.344 N 
HETATM    2  H           1     -23.556  -6.628  -4.143  0.00  0.00     0.163 HD
HETATM    3  O           1     -21.722  -5.495  -2.309  0.00  0.00    -0.271 OA
HETATM    4  C           1     -21.943  -6.554  -2.849  0.00  0.00     0.249 C 
ENDROOT
BRANCH   1   5
HETATM    5  C           1     -21.741  -6.551  -5.282  0.00  0.00     0.190 C 
BRANCH   5   6
HETATM    6  C           1     -20.846  -5.319  -5.260  0.00  0.00     0.077 C 
BRANCH   6   7
HETATM    7  C           1     -20.560  -4.884  -6.663  0.00  0.00    -0.028 A 
HETATM    8  C           1     -19.315  -4.773  -7.240  0.00  0.00     0.096 A 
HETATM    9  N           1     -19.488  -4.347  -8.530  0.00  0.00    -0.365 N 
HETATM   10  C           1     -20.828  -4.180  -8.801  0.00  0.00     0.042 A 
HETATM   11  H           1     -18.710  -4.173  -9.214  0.00  0.00     0.165 HD
HETATM   12  C           1     -21.469  -3.764  -9.974  0.00  0.00     0.030 A 
HETATM   13  C           1     -21.525  -4.513  -7.639  0.00  0.00    -0.002 A 
HETATM   14  C           1     -22.865  -3.689  -9.956  0.00  0.00     0.002 A 
HETATM   15  C           1     -23.588  -4.015  -8.810  0.00  0.00     0.001 A 
HETATM   16  C           1     -22.930  -4.429  -7.645  0.00  0.00     0.014 A 
ENDBRANCH   6   7
ENDBRANCH   5   6
BRANCH   5  17
HETATM   17  C           1     -20.888  -7.793  -5.348  0.00  0.00     0.197 C 
HETATM   18  O           1     -19.684  -7.743  -5.017  0.00  0.00    -0.646 OA
HETATM   19  O           1     -21.385  -8.874  -5.734  0.00  0.00    -0.646 OA
ENDBRANCH   5  17
ENDBRANCH   1   5
BRANCH   4  20
HETATM   20  C           1     -21.553  -7.843  -2.168  0.00  0.00     0.275 C 
BRANCH  20  21
HETATM   21  N           1     -20.075  -7.843  -1.910  0.00  0.00    -0.066 N 
HETATM   22  H           1     -19.862  -7.219  -1.099  0.00  0.00     0.275 HD
HETATM   23  H           1     -19.573  -7.497  -2.758  0.00  0.00     0.275 HD
HETATM   24  H           1     -19.760  -8.816  -1.693  0.00  0.00     0.275 HD
ENDBRANCH  20  21
BRANCH  20  25
HETATM   25  C           1     -22.298  -7.966  -0.846  0.00  0.00     0.052 C 
BRANCH  25  26
HETATM   26  C           1     -22.039  -9.340  -0.241  0.00  0.00     0.105 C 
BRANCH  26  27
HETATM   27  C           1     -23.074 -10.315  -0.745  0.00  0.00     0.215 C 
HETATM   28  N           1     -24.160 -10.622   0.031  0.00  0.00    -0.370 N 
HETATM   29  H           1     -24.269 -10.195   0.942  0.00  0.00     0.159 HD
HETATM   30  H           1     -24.855 -11.276  -0.307  0.00  0.00     0.159 HD
HETATM   31  O           1     -22.945 -10.825  -1.832  0.00  0.00    -0.274 OA
ENDBRANCH  26  27
ENDBRANCH  25  26
ENDBRANCH  20  25
ENDBRANCH   4  20
TORSDOF 9
ENDMDL
