MODEL 1
REMARK VINA RESULT:      -6.3      0.000      0.000
REMARK  10 active torsions:
REMARK  status: ('A' for Active; 'I' for Inactive)
REMARK    1  A    between atoms: C_6  and  C_25 
REMARK    2  A    between atoms: C_6  and  C_7 
REMARK    3  A    between atoms: C_7  and  C_8 
REMARK    4  A    between atoms: C_7  and  N_11 
REMARK       I    between atoms: N_11  and  C_12 
REMARK    5  A    between atoms: C_12  and  C_13 
REMARK    6  A    between atoms: C_13  and  C_14 
REMARK    7  A    between atoms: C_13  and  N_18 
REMARK    8  A    between atoms: C_14  and  C_15 
REMARK       I    between atoms: C_15  and  N_16 
REMARK    9  A    between atoms: N_23  and  C_24 
REMARK   10  A    between atoms: C_24  and  C_25 
ROOT
HETATM    1  N           1     -35.359  -3.221 -11.224  0.00  0.00    -0.345 N 
HETATM    2  C           1     -35.164  -1.963 -10.722  0.00  0.00     0.249 C 
HETATM    3  O           1     -34.115  -1.678 -10.195  0.00  0.00    -0.271 OA
HETATM    4  H           1     -36.238  -3.458 -11.667  0.00  0.00     0.163 HD
ENDROOT
BRANCH   1   5
HETATM    5  C           1     -34.305  -4.211 -11.126  0.00  0.00     0.185 C 
BRANCH   5   6
HETATM    6  C           1     -34.918  -5.605 -11.117  0.00  0.00     0.038 C 
BRANCH   6   7
HETATM    7  C           1     -34.112  -6.511 -10.195  0.00  0.00     0.030 C 
BRANCH   7   8
HETATM    8  C           1     -34.712  -7.910 -10.206  0.00  0.00     0.230 C 
BRANCH   8   9
HETATM    9  N           1     -33.610  -8.928 -10.179  0.00  0.00    -0.079 N 
HETATM   10  H           1     -32.725  -8.474  -9.860  0.00  0.00     0.274 HD
HETATM   11  H           1     -33.865  -9.697  -9.519  0.00  0.00     0.274 HD
HETATM   12  H           1     -33.474  -9.320 -11.138  0.00  0.00     0.274 HD
ENDBRANCH   8   9
ENDBRANCH   7   8
ENDBRANCH   6   7
ENDBRANCH   5   6
BRANCH   5  13
HETATM   13  C           1     -33.375  -4.077 -12.306  0.00  0.00     0.196 C 
HETATM   14  O           1     -33.817  -3.686 -13.409  0.00  0.00    -0.646 OA
HETATM   15  O           1     -32.163  -4.358 -12.183  0.00  0.00    -0.646 OA
ENDBRANCH   5  13
ENDBRANCH   1   5
BRANCH   2  16
HETATM   16  C           1     -36.260  -0.931 -10.825  0.00  0.00     0.283 C 
BRANCH  16  17
HETATM   17  C           1     -35.921   0.064 -11.926  0.00  0.00     0.145 C 
BRANCH  17  18
HETATM   18  C           1     -36.148  -0.578 -13.273  0.00  0.00     0.217 C 
HETATM   19  N           1     -35.080  -0.898 -14.069  0.00  0.00    -0.370 N 
HETATM   20  H           1     -34.138  -0.703 -13.753  0.00  0.00     0.159 HD
HETATM   21  H           1     -35.233  -1.328 -14.971  0.00  0.00     0.159 HD
HETATM   22  O           1     -37.272  -0.809 -13.651  0.00  0.00    -0.274 OA
ENDBRANCH  17  18
ENDBRANCH  16  17
BRANCH  16  23
HETATM   23  N           1     -36.387  -0.204  -9.518  0.00  0.00    -0.066 N 
HETATM   24  H           1     -35.541   0.392  -9.368  0.00  0.00     0.275 HD
HETATM   25  H           1     -36.465  -0.898  -8.741  0.00  0.00     0.275 HD
HETATM   26  H           1     -37.240   0.398  -9.536  0.00  0.00     0.275 HD
ENDBRANCH  16  23
ENDBRANCH   2  16
TORSDOF 10
ENDMDL
MODEL 2
REMARK VINA RESULT:      -6.3     10.291     12.726
REMARK  10 active torsions:
REMARK  status: ('A' for Active; 'I' for Inactive)
REMARK    1  A    between atoms: C_6  and  C_25 
REMARK    2  A    between atoms: C_6  and  C_7 
REMARK    3  A    between atoms: C_7  and  C_8 
REMARK    4  A    between atoms: C_7  and  N_11 
REMARK       I    between atoms: N_11  and  C_12 
REMARK    5  A    between atoms: C_12  and  C_13 
REMARK    6  A    between atoms: C_13  and  C_14 
REMARK    7  A    between atoms: C_13  and  N_18 
REMARK    8  A    between atoms: C_14  and  C_15 
REMARK       I    between atoms: C_15  and  N_16 
REMARK    9  A    between atoms: N_23  and  C_24 
REMARK   10  A    between atoms: C_24  and  C_25 
ROOT
HETATM    1  N           1     -27.870  -6.849 -19.491  0.00  0.00    -0.345 N 
HETATM    2  C           1     -26.514  -6.676 -19.422  0.00  0.00     0.249 C 
HETATM    3  O           1     -26.005  -6.285 -18.398  0.00  0.00    -0.271 OA
HETATM    4  H           1     -28.296  -7.177 -20.348  0.00  0.00     0.163 HD
ENDROOT
BRANCH   1   5
HETATM    5  C           1     -28.696  -6.563 -18.334  0.00  0.00     0.185 C 
BRANCH   5   6
HETATM    6  C           1     -29.208  -5.131 -18.417  0.00  0.00     0.038 C 
BRANCH   6   7
HETATM    7  C           1     -28.767  -4.360 -17.180  0.00  0.00     0.030 C 
BRANCH   7   8
HETATM    8  C           1     -29.210  -2.908 -17.301  0.00  0.00     0.230 C 
BRANCH   8   9
HETATM    9  N           1     -30.674  -2.857 -17.623  0.00  0.00    -0.079 N 
HETATM   10  H           1     -30.808  -2.425 -18.565  0.00  0.00     0.274 HD
HETATM   11  H           1     -31.063  -3.826 -17.626  0.00  0.00     0.274 HD
HETATM   12  H           1     -31.169  -2.283 -16.904  0.00  0.00     0.274 HD
ENDBRANCH   8   9
ENDBRANCH   7   8
ENDBRANCH   6   7
ENDBRANCH   5   6
BRANCH   5  13
HETATM   13  C           1     -29.866  -7.515 -18.303  0.00  0.00     0.196 C 
HETATM   14  O           1     -30.807  -7.325 -17.502  0.00  0.00    -0.646 OA
HETATM   15  O           1     -29.895  -8.496 -19.078  0.00  0.00    -0.646 OA
ENDBRANCH   5  13
ENDBRANCH   1   5
BRANCH   2  16
HETATM   16  C           1     -25.653  -6.974 -20.625  0.00  0.00     0.283 C 
BRANCH  16  17
HETATM   17  C           1     -24.374  -7.667 -20.177  0.00  0.00     0.145 C 
BRANCH  17  18
HETATM   18  C           1     -23.711  -8.319 -21.365  0.00  0.00     0.217 C 
HETATM   19  N           1     -22.569  -9.056 -21.195  0.00  0.00    -0.370 N 
HETATM   20  H           1     -22.170  -9.163 -20.270  0.00  0.00     0.159 HD
HETATM   21  H           1     -22.125  -9.492 -21.991  0.00  0.00     0.159 HD
HETATM   22  O           1     -24.187  -8.192 -22.469  0.00  0.00    -0.274 OA
ENDBRANCH  17  18
ENDBRANCH  16  17
BRANCH  16  23
HETATM   23  N           1     -25.308  -5.691 -21.322  0.00  0.00    -0.066 N 
HETATM   24  H           1     -24.278  -5.527 -21.258  0.00  0.00     0.275 HD
HETATM   25  H           1     -25.815  -4.900 -20.866  0.00  0.00     0.275 HD
HETATM   26  H           1     -25.591  -5.754 -22.326  0.00  0.00     0.275 HD
ENDBRANCH  16  23
ENDBRANCH   2  16
TORSDOF 10
ENDMDL
MODEL 3
REMARK VINA RESULT:      -6.2      2.118      6.474
REMARK  10 active torsions:
REMARK  status: ('A' for Active; 'I' for Inactive)
REMARK    1  A    between atoms: C_6  and  C_25 
REMARK    2  A    between atoms: C_6  and  C_7 
REMARK    3  A    between atoms: C_7  and  C_8 
REMARK    4  A    between atoms: C_7  and  N_11 
REMARK       I    between atoms: N_11  and  C_12 
REMARK    5  A    between atoms: C_12  and  C_13 
REMARK    6  A    between atoms: C_13  and  C_14 
REMARK    7  A    between atoms: C_13  and  N_18 
REMARK    8  A    between atoms: C_14  and  C_15 
REMARK       I    between atoms: C_15  and  N_16 
REMARK    9  A    between atoms: N_23  and  C_24 
REMARK   10  A    between atoms: C_24  and  C_25 
ROOT
HETATM    1  N           1     -34.906  -1.649 -12.921  0.00  0.00    -0.345 N 
HETATM    2  C           1     -34.210  -2.556 -12.170  0.00  0.00     0.249 C 
HETATM    3  O           1     -33.674  -2.207 -11.145  0.00  0.00    -0.271 OA
HETATM    4  H           1     -35.356  -1.942 -13.779  0.00  0.00     0.163 HD
ENDROOT
BRANCH   1   5
HETATM    5  C           1     -35.002  -0.269 -12.487  0.00  0.00     0.185 C 
BRANCH   5   6
HETATM    6  C           1     -34.971   0.648 -13.701  0.00  0.00     0.038 C 
BRANCH   6   7
HETATM    7  C           1     -35.327  -0.148 -14.951  0.00  0.00     0.030 C 
BRANCH   7   8
HETATM    8  C           1     -36.619   0.392 -15.547  0.00  0.00     0.230 C 
BRANCH   8   9
HETATM    9  N           1     -36.396   1.788 -16.048  0.00  0.00    -0.079 N 
HETATM   10  H           1     -37.189   2.066 -16.668  0.00  0.00     0.274 HD
HETATM   11  H           1     -36.341   2.443 -15.236  0.00  0.00     0.274 HD
HETATM   12  H           1     -35.502   1.825 -16.588  0.00  0.00     0.274 HD
ENDBRANCH   8   9
ENDBRANCH   7   8
ENDBRANCH   6   7
ENDBRANCH   5   6
BRANCH   5  13
HETATM   13  C           1     -36.294  -0.067 -11.734  0.00  0.00     0.196 C 
HETATM   14  O           1     -36.292   0.538 -10.640  0.00  0.00    -0.646 OA
HETATM   15  O           1     -37.366  -0.504 -12.204  0.00  0.00    -0.646 OA
ENDBRANCH   5  13
ENDBRANCH   1   5
BRANCH   2  16
HETATM   16  C           1     -34.111  -3.993 -12.621  0.00  0.00     0.283 C 
BRANCH  16  17
HETATM   17  C           1     -33.159  -4.750 -11.704  0.00  0.00     0.145 C 
BRANCH  17  18
HETATM   18  C           1     -33.934  -5.767 -10.903  0.00  0.00     0.217 C 
HETATM   19  N           1     -33.474  -7.053 -10.799  0.00  0.00    -0.370 N 
HETATM   20  H           1     -32.613  -7.320 -11.260  0.00  0.00     0.159 HD
HETATM   21  H           1     -33.993  -7.734 -10.262  0.00  0.00     0.159 HD
HETATM   22  O           1     -34.962  -5.449 -10.353  0.00  0.00    -0.274 OA
ENDBRANCH  17  18
ENDBRANCH  16  17
BRANCH  16  23
HETATM   23  N           1     -33.591  -4.039 -14.028  0.00  0.00    -0.066 N 
HETATM   24  H           1     -33.012  -3.189 -14.213  0.00  0.00     0.275 HD
HETATM   25  H           1     -34.395  -4.064 -14.695  0.00  0.00     0.275 HD
HETATM   26  H           1     -33.006  -4.895 -14.154  0.00  0.00     0.275 HD
ENDBRANCH  16  23
ENDBRANCH   2  16
TORSDOF 10
ENDMDL
MODEL 4
REMARK VINA RESULT:      -6.2      2.018      2.934
REMARK  10 active torsions:
REMARK  status: ('A' for Active; 'I' for Inactive)
REMARK    1  A    between atoms: C_6  and  C_25 
REMARK    2  A    between atoms: C_6  and  C_7 
REMARK    3  A    between atoms: C_7  and  C_8 
REMARK    4  A    between atoms: C_7  and  N_11 
REMARK       I    between atoms: N_11  and  C_12 
REMARK    5  A    between atoms: C_12  and  C_13 
REMARK    6  A    between atoms: C_13  and  C_14 
REMARK    7  A    between atoms: C_13  and  N_18 
REMARK    8  A    between atoms: C_14  and  C_15 
REMARK       I    between atoms: C_15  and  N_16 
REMARK    9  A    between atoms: N_23  and  C_24 
REMARK   10  A    between atoms: C_24  and  C_25 
ROOT
HETATM    1  N           1     -35.137  -2.117 -12.766  0.00  0.00    -0.345 N 
HETATM    2  C           1     -35.797  -0.919 -12.702  0.00  0.00     0.249 C 
HETATM    3  O           1     -36.165  -0.489 -11.635  0.00  0.00    -0.271 OA
HETATM    4  H           1     -34.827  -2.477 -13.660  0.00  0.00     0.163 HD
ENDROOT
BRANCH   1   5
HETATM    5  C           1     -34.879  -2.868 -11.554  0.00  0.00     0.185 C 
BRANCH   5   6
HETATM    6  C           1     -34.990  -4.358 -11.847  0.00  0.00     0.038 C 
BRANCH   6   7
HETATM    7  C           1     -35.110  -5.127 -10.537  0.00  0.00     0.030 C 
BRANCH   7   8
HETATM    8  C           1     -34.313  -6.422 -10.634  0.00  0.00     0.230 C 
BRANCH   8   9
HETATM    9  N           1     -33.017  -6.161 -11.341  0.00  0.00    -0.079 N 
HETATM   10  H           1     -33.130  -6.363 -12.360  0.00  0.00     0.274 HD
HETATM   11  H           1     -32.746  -5.160 -11.213  0.00  0.00     0.274 HD
HETATM   12  H           1     -32.273  -6.778 -10.944  0.00  0.00     0.274 HD
ENDBRANCH   8   9
ENDBRANCH   7   8
ENDBRANCH   6   7
ENDBRANCH   5   6
BRANCH   5  13
HETATM   13  C           1     -33.491  -2.555 -11.053  0.00  0.00     0.196 C 
HETATM   14  O           1     -32.513  -3.218 -11.464  0.00  0.00    -0.646 OA
HETATM   15  O           1     -33.317  -1.634 -10.225  0.00  0.00    -0.646 OA
ENDBRANCH   5  13
ENDBRANCH   1   5
BRANCH   2  16
HETATM   16  C           1     -36.064  -0.136 -13.964  0.00  0.00     0.283 C 
BRANCH  16  17
HETATM   17  C           1     -37.544  -0.222 -14.312  0.00  0.00     0.145 C 
BRANCH  17  18
HETATM   18  C           1     -37.752   0.218 -15.741  0.00  0.00     0.217 C 
HETATM   19  N           1     -37.955   1.541 -16.028  0.00  0.00    -0.370 N 
HETATM   20  H           1     -37.965   2.224 -15.282  0.00  0.00     0.159 HD
HETATM   21  H           1     -38.094   1.835 -16.986  0.00  0.00     0.159 HD
HETATM   22  O           1     -37.739  -0.598 -16.632  0.00  0.00    -0.274 OA
ENDBRANCH  17  18
ENDBRANCH  16  17
BRANCH  16  23
HETATM   23  N           1     -35.252  -0.710 -15.089  0.00  0.00    -0.066 N 
HETATM   24  H           1     -35.601  -1.669 -15.314  0.00  0.00     0.275 HD
HETATM   25  H           1     -34.249  -0.762 -14.802  0.00  0.00     0.275 HD
HETATM   26  H           1     -35.343  -0.097 -15.930  0.00  0.00     0.275 HD
ENDBRANCH  16  23
ENDBRANCH   2  16
TORSDOF 10
ENDMDL
MODEL 5
REMARK VINA RESULT:      -6.0     10.375     12.602
REMARK  10 active torsions:
REMARK  status: ('A' for Active; 'I' for Inactive)
REMARK    1  A    between atoms: C_6  and  C_25 
REMARK    2  A    between atoms: C_6  and  C_7 
REMARK    3  A    between atoms: C_7  and  C_8 
REMARK    4  A    between atoms: C_7  and  N_11 
REMARK       I    between atoms: N_11  and  C_12 
REMARK    5  A    between atoms: C_12  and  C_13 
REMARK    6  A    between atoms: C_13  and  C_14 
REMARK    7  A    between atoms: C_13  and  N_18 
REMARK    8  A    between atoms: C_14  and  C_15 
REMARK       I    between atoms: C_15  and  N_16 
REMARK    9  A    between atoms: N_23  and  C_24 
REMARK   10  A    between atoms: C_24  and  C_25 
ROOT
HETATM    1  N           1     -26.714  -6.482 -17.993  0.00  0.00    -0.345 N 
HETATM    2  C           1     -25.461  -6.738 -18.481  0.00  0.00     0.249 C 
HETATM    3  O           1     -24.489  -6.507 -17.801  0.00  0.00    -0.271 OA
HETATM    4  H           1     -27.528  -6.677 -18.562  0.00  0.00     0.163 HD
ENDROOT
BRANCH   1   5
HETATM    5  C           1     -26.874  -5.936 -16.660  0.00  0.00     0.185 C 
BRANCH   5   6
HETATM    6  C           1     -28.225  -5.239 -16.556  0.00  0.00     0.038 C 
BRANCH   6   7
HETATM    7  C           1     -29.050  -5.542 -17.801  0.00  0.00     0.030 C 
BRANCH   7   8
HETATM    8  C           1     -30.269  -6.368 -17.413  0.00  0.00     0.230 C 
BRANCH   8   9
HETATM    9  N           1     -29.934  -7.828 -17.500  0.00  0.00    -0.079 N 
HETATM   10  H           1     -28.975  -7.941 -17.900  0.00  0.00     0.274 HD
HETATM   11  H           1     -29.965  -8.249 -16.545  0.00  0.00     0.274 HD
HETATM   12  H           1     -30.627  -8.308 -18.117  0.00  0.00     0.274 HD
ENDBRANCH   8   9
ENDBRANCH   7   8
ENDBRANCH   6   7
ENDBRANCH   5   6
BRANCH   5  13
HETATM   13  C           1     -26.804  -7.051 -15.646  0.00  0.00     0.196 C 
HETATM   14  O           1     -27.856  -7.558 -15.199  0.00  0.00    -0.646 OA
HETATM   15  O           1     -25.693  -7.468 -15.252  0.00  0.00    -0.646 OA
ENDBRANCH   5  13
ENDBRANCH   1   5
BRANCH   2  16
HETATM   16  C           1     -25.293  -7.308 -19.868  0.00  0.00     0.283 C 
BRANCH  16  17
HETATM   17  C           1     -23.811  -7.483 -20.170  0.00  0.00     0.145 C 
BRANCH  17  18
HETATM   18  C           1     -23.645  -8.361 -21.387  0.00  0.00     0.217 C 
HETATM   19  N           1     -22.630  -9.279 -21.436  0.00  0.00    -0.370 N 
HETATM   20  H           1     -21.992  -9.369 -20.656  0.00  0.00     0.159 HD
HETATM   21  H           1     -22.520  -9.867 -22.251  0.00  0.00     0.159 HD
HETATM   22  O           1     -24.407  -8.253 -22.318  0.00  0.00    -0.274 OA
ENDBRANCH  17  18
ENDBRANCH  16  17
BRANCH  16  23
HETATM   23  N           1     -25.899  -6.370 -20.870  0.00  0.00    -0.066 N 
HETATM   24  H           1     -25.139  -5.850 -21.365  0.00  0.00     0.275 HD
HETATM   25  H           1     -26.521  -5.690 -20.378  0.00  0.00     0.275 HD
HETATM   26  H           1     -26.458  -6.916 -21.563  0.00  0.00     0.275 HD
ENDBRANCH  16  23
ENDBRANCH   2  16
TORSDOF 10
ENDMDL
MODEL 6
REMARK VINA RESULT:      -6.0      2.097      5.650
REMARK  10 active torsions:
REMARK  status: ('A' for Active; 'I' for Inactive)
REMARK    1  A    between atoms: C_6  and  C_25 
REMARK    2  A    between atoms: C_6  and  C_7 
REMARK    3  A    between atoms: C_7  and  C_8 
REMARK    4  A    between atoms: C_7  and  N_11 
REMARK       I    between atoms: N_11  and  C_12 
REMARK    5  A    between atoms: C_12  and  C_13 
REMARK    6  A    between atoms: C_13  and  C_14 
REMARK    7  A    between atoms: C_13  and  N_18 
REMARK    8  A    between atoms: C_14  and  C_15 
REMARK       I    between atoms: C_15  and  N_16 
REMARK    9  A    between atoms: N_23  and  C_24 
REMARK   10  A    between atoms: C_24  and  C_25 
ROOT
HETATM    1  N           1     -35.123  -1.277 -12.279  0.00  0.00    -0.345 N 
HETATM    2  C           1     -34.475  -2.458 -12.517  0.00  0.00     0.249 C 
HETATM    3  O           1     -34.600  -3.012 -13.584  0.00  0.00    -0.271 OA
HETATM    4  H           1     -35.017  -0.813 -11.385  0.00  0.00     0.163 HD
ENDROOT
BRANCH   1   5
HETATM    5  C           1     -35.960  -0.689 -13.306  0.00  0.00     0.185 C 
BRANCH   5   6
HETATM    6  C           1     -37.119   0.052 -12.654  0.00  0.00     0.038 C 
BRANCH   6   7
HETATM    7  C           1     -37.397  -0.545 -11.280  0.00  0.00     0.030 C 
BRANCH   7   8
HETATM    8  C           1     -37.282   0.543 -10.221  0.00  0.00     0.230 C 
BRANCH   8   9
HETATM    9  N           1     -36.308   0.113  -9.165  0.00  0.00    -0.079 N 
HETATM   10  H           1     -36.633  -0.781  -8.734  0.00  0.00     0.274 HD
HETATM   11  H           1     -35.368  -0.030  -9.597  0.00  0.00     0.274 HD
HETATM   12  H           1     -36.246   0.851  -8.428  0.00  0.00     0.274 HD
ENDBRANCH   8   9
ENDBRANCH   7   8
ENDBRANCH   6   7
ENDBRANCH   5   6
BRANCH   5  13
HETATM   13  C           1     -35.143   0.277 -14.129  0.00  0.00     0.196 C 
HETATM   14  O           1     -34.864   0.006 -15.317  0.00  0.00    -0.646 OA
HETATM   15  O           1     -34.745   1.349 -13.622  0.00  0.00    -0.646 OA
ENDBRANCH   5  13
ENDBRANCH   1   5
BRANCH   2  16
HETATM   16  C           1     -33.603  -3.070 -11.448  0.00  0.00     0.283 C 
BRANCH  16  17
HETATM   17  C           1     -34.371  -4.176 -10.737  0.00  0.00     0.145 C 
BRANCH  17  18
HETATM   18  C           1     -34.086  -5.498 -11.406  0.00  0.00     0.217 C 
HETATM   19  N           1     -34.835  -5.898 -12.480  0.00  0.00    -0.370 N 
HETATM   20  H           1     -35.580  -5.306 -12.826  0.00  0.00     0.159 HD
HETATM   21  H           1     -34.644  -6.784 -12.928  0.00  0.00     0.159 HD
HETATM   22  O           1     -33.197  -6.206 -10.993  0.00  0.00    -0.274 OA
ENDBRANCH  17  18
ENDBRANCH  16  17
BRANCH  16  23
HETATM   23  N           1     -33.215  -2.013 -10.456  0.00  0.00    -0.066 N 
HETATM   24  H           1     -33.570  -2.279  -9.509  0.00  0.00     0.275 HD
HETATM   25  H           1     -33.632  -1.099 -10.740  0.00  0.00     0.275 HD
HETATM   26  H           1     -32.174  -1.929 -10.428  0.00  0.00     0.275 HD
ENDBRANCH  16  23
ENDBRANCH   2  16
TORSDOF 10
ENDMDL
MODEL 7
REMARK VINA RESULT:      -5.9      9.630     12.005
REMARK  10 active torsions:
REMARK  status: ('A' for Active; 'I' for Inactive)
REMARK    1  A    between atoms: C_6  and  C_25 
REMARK    2  A    between atoms: C_6  and  C_7 
REMARK    3  A    between atoms: C_7  and  C_8 
REMARK    4  A    between atoms: C_7  and  N_11 
REMARK       I    between atoms: N_11  and  C_12 
REMARK    5  A    between atoms: C_12  and  C_13 
REMARK    6  A    between atoms: C_13  and  C_14 
REMARK    7  A    between atoms: C_13  and  N_18 
REMARK    8  A    between atoms: C_14  and  C_15 
REMARK       I    between atoms: C_15  and  N_16 
REMARK    9  A    between atoms: N_23  and  C_24 
REMARK   10  A    between atoms: C_24  and  C_25 
ROOT
HETATM    1  N           1     -26.856  -6.144 -17.730  0.00  0.00    -0.345 N 
HETATM    2  C           1     -25.527  -6.438 -17.876  0.00  0.00     0.249 C 
HETATM    3  O           1     -24.816  -6.524 -16.903  0.00  0.00    -0.271 OA
HETATM    4  H           1     -27.451  -6.073 -18.545  0.00  0.00     0.163 HD
ENDROOT
BRANCH   1   5
HETATM    5  C           1     -27.410  -5.936 -16.406  0.00  0.00     0.185 C 
BRANCH   5   6
HETATM    6  C           1     -28.325  -4.719 -16.425  0.00  0.00     0.038 C 
BRANCH   6   7
HETATM    7  C           1     -28.808  -4.467 -17.848  0.00  0.00     0.030 C 
BRANCH   7   8
HETATM    8  C           1     -30.311  -4.223 -17.838  0.00  0.00     0.230 C 
BRANCH   8   9
HETATM    9  N           1     -30.581  -2.763 -17.626  0.00  0.00    -0.079 N 
HETATM   10  H           1     -29.954  -2.399 -16.874  0.00  0.00     0.274 HD
HETATM   11  H           1     -30.397  -2.244 -18.514  0.00  0.00     0.274 HD
HETATM   12  H           1     -31.577  -2.630 -17.344  0.00  0.00     0.274 HD
ENDBRANCH   8   9
ENDBRANCH   7   8
ENDBRANCH   6   7
ENDBRANCH   5   6
BRANCH   5  13
HETATM   13  C           1     -28.200  -7.154 -15.994  0.00  0.00     0.196 C 
HETATM   14  O           1     -29.076  -7.619 -16.756  0.00  0.00    -0.646 OA
HETATM   15  O           1     -27.980  -7.699 -14.891  0.00  0.00    -0.646 OA
ENDBRANCH   5  13
ENDBRANCH   1   5
BRANCH   2  16
HETATM   16  C           1     -24.950  -6.656 -19.253  0.00  0.00     0.283 C 
BRANCH  16  17
HETATM   17  C           1     -26.080  -6.761 -20.268  0.00  0.00     0.145 C 
BRANCH  17  18
HETATM   18  C           1     -25.701  -7.752 -21.343  0.00  0.00     0.217 C 
HETATM   19  N           1     -24.616  -7.514 -22.143  0.00  0.00    -0.370 N 
HETATM   20  H           1     -24.067  -6.673 -22.013  0.00  0.00     0.159 HD
HETATM   21  H           1     -24.362  -8.177 -22.862  0.00  0.00     0.159 HD
HETATM   22  O           1     -26.356  -8.755 -21.498  0.00  0.00    -0.274 OA
ENDBRANCH  17  18
ENDBRANCH  16  17
BRANCH  16  23
HETATM   23  N           1     -24.149  -7.925 -19.264  0.00  0.00    -0.066 N 
HETATM   24  H           1     -24.581  -8.614 -18.607  0.00  0.00     0.275 HD
HETATM   25  H           1     -23.171  -7.721 -18.959  0.00  0.00     0.275 HD
HETATM   26  H           1     -24.138  -8.321 -20.230  0.00  0.00     0.275 HD
ENDBRANCH  16  23
ENDBRANCH   2  16
TORSDOF 10
ENDMDL
MODEL 8
REMARK VINA RESULT:      -5.7      3.668      5.632
REMARK  10 active torsions:
REMARK  status: ('A' for Active; 'I' for Inactive)
REMARK    1  A    between atoms: C_6  and  C_25 
REMARK    2  A    between atoms: C_6  and  C_7 
REMARK    3  A    between atoms: C_7  and  C_8 
REMARK    4  A    between atoms: C_7  and  N_11 
REMARK       I    between atoms: N_11  and  C_12 
REMARK    5  A    between atoms: C_12  and  C_13 
REMARK    6  A    between atoms: C_13  and  C_14 
REMARK    7  A    between atoms: C_13  and  N_18 
REMARK    8  A    between atoms: C_14  and  C_15 
REMARK       I    between atoms: C_15  and  N_16 
REMARK    9  A    between atoms: N_23  and  C_24 
REMARK   10  A    between atoms: C_24  and  C_25 
ROOT
HETATM    1  N           1     -33.400  -3.988 -14.262  0.00  0.00    -0.345 N 
HETATM    2  C           1     -33.946  -4.538 -15.391  0.00  0.00     0.249 C 
HETATM    3  O           1     -35.035  -5.058 -15.343  0.00  0.00    -0.271 OA
HETATM    4  H           1     -32.488  -3.552 -14.303  0.00  0.00     0.163 HD
ENDROOT
BRANCH   1   5
HETATM    5  C           1     -34.130  -4.027 -13.011  0.00  0.00     0.185 C 
BRANCH   5   6
HETATM    6  C           1     -33.152  -4.208 -11.858  0.00  0.00     0.038 C 
BRANCH   6   7
HETATM    7  C           1     -33.247  -5.634 -11.329  0.00  0.00     0.030 C 
BRANCH   7   8
HETATM    8  C           1     -34.711  -6.034 -11.206  0.00  0.00     0.230 C 
BRANCH   8   9
HETATM    9  N           1     -34.814  -7.525 -11.085  0.00  0.00    -0.079 N 
HETATM   10  H           1     -33.991  -7.970 -11.550  0.00  0.00     0.274 HD
HETATM   11  H           1     -34.830  -7.792 -10.075  0.00  0.00     0.274 HD
HETATM   12  H           1     -35.693  -7.851 -11.547  0.00  0.00     0.274 HD
ENDBRANCH   8   9
ENDBRANCH   7   8
ENDBRANCH   6   7
ENDBRANCH   5   6
BRANCH   5  13
HETATM   13  C           1     -34.890  -2.736 -12.830  0.00  0.00     0.196 C 
HETATM   14  O           1     -35.555  -2.542 -11.788  0.00  0.00    -0.646 OA
HETATM   15  O           1     -34.855  -1.860 -13.721  0.00  0.00    -0.646 OA
ENDBRANCH   5  13
ENDBRANCH   1   5
BRANCH   2  16
HETATM   16  C           1     -33.187  -4.496 -16.694  0.00  0.00     0.283 C 
BRANCH  16  17
HETATM   17  C           1     -31.691  -4.461 -16.411  0.00  0.00     0.145 C 
BRANCH  17  18
HETATM   18  C           1     -31.043  -5.705 -16.969  0.00  0.00     0.217 C 
HETATM   19  N           1     -31.806  -6.805 -17.257  0.00  0.00    -0.370 N 
HETATM   20  H           1     -32.805  -6.783 -17.096  0.00  0.00     0.159 HD
HETATM   21  H           1     -31.371  -7.638 -17.630  0.00  0.00     0.159 HD
HETATM   22  O           1     -29.850  -5.731 -17.161  0.00  0.00    -0.274 OA
ENDBRANCH  17  18
ENDBRANCH  16  17
BRANCH  16  23
HETATM   23  N           1     -33.579  -3.267 -17.461  0.00  0.00    -0.066 N 
HETATM   24  H           1     -32.801  -2.570 -17.422  0.00  0.00     0.275 HD
HETATM   25  H           1     -34.439  -2.853 -17.038  0.00  0.00     0.275 HD
HETATM   26  H           1     -33.769  -3.524 -18.455  0.00  0.00     0.275 HD
ENDBRANCH  16  23
ENDBRANCH   2  16
TORSDOF 10
ENDMDL
MODEL 9
REMARK VINA RESULT:      -5.6     12.146     14.359
REMARK  10 active torsions:
REMARK  status: ('A' for Active; 'I' for Inactive)
REMARK    1  A    between atoms: C_6  and  C_25 
REMARK    2  A    between atoms: C_6  and  C_7 
REMARK    3  A    between atoms: C_7  and  C_8 
REMARK    4  A    between atoms: C_7  and  N_11 
REMARK       I    between atoms: N_11  and  C_12 
REMARK    5  A    between atoms: C_12  and  C_13 
REMARK    6  A    between atoms: C_13  and  C_14 
REMARK    7  A    between atoms: C_13  and  N_18 
REMARK    8  A    between atoms: C_14  and  C_15 
REMARK       I    between atoms: C_15  and  N_16 
REMARK    9  A    between atoms: N_23  and  C_24 
REMARK   10  A    between atoms: C_24  and  C_25 
ROOT
HETATM    1  N           1     -22.645  -4.707  -8.646  0.00  0.00    -0.345 N 
HETATM    2  C           1     -21.826  -4.521  -7.566  0.00  0.00     0.249 C 
HETATM    3  O           1     -21.606  -3.405  -7.159  0.00  0.00    -0.271 OA
HETATM    4  H           1     -22.829  -5.642  -8.986  0.00  0.00     0.163 HD
ENDROOT
BRANCH   1   5
HETATM    5  C           1     -23.250  -3.565  -9.302  0.00  0.00     0.185 C 
BRANCH   5   6
HETATM    6  C           1     -22.485  -3.250 -10.581  0.00  0.00     0.038 C 
BRANCH   6   7
HETATM    7  C           1     -21.792  -4.510 -11.082  0.00  0.00     0.030 C 
BRANCH   7   8
HETATM    8  C           1     -20.302  -4.240 -11.244  0.00  0.00     0.230 C 
BRANCH   8   9
HETATM    9  N           1     -20.081  -2.774 -11.474  0.00  0.00    -0.079 N 
HETATM   10  H           1     -19.863  -2.609 -12.482  0.00  0.00     0.274 HD
HETATM   11  H           1     -20.945  -2.248 -11.214  0.00  0.00     0.274 HD
HETATM   12  H           1     -19.281  -2.446 -10.887  0.00  0.00     0.274 HD
ENDBRANCH   8   9
ENDBRANCH   7   8
ENDBRANCH   6   7
ENDBRANCH   5   6
BRANCH   5  13
HETATM   13  C           1     -24.687  -3.879  -9.638  0.00  0.00     0.196 C 
HETATM   14  O           1     -25.511  -2.952  -9.790  0.00  0.00    -0.646 OA
HETATM   15  O           1     -25.053  -5.068  -9.764  0.00  0.00    -0.646 OA
ENDBRANCH   5  13
ENDBRANCH   1   5
BRANCH   2  16
HETATM   16  C           1     -21.196  -5.710  -6.882  0.00  0.00     0.283 C 
BRANCH  16  17
HETATM   17  C           1     -20.917  -5.370  -5.424  0.00  0.00     0.145 C 
BRANCH  17  18
HETATM   18  C           1     -21.620  -6.364  -4.532  0.00  0.00     0.217 C 
HETATM   19  N           1     -21.790  -7.658  -4.946  0.00  0.00    -0.370 N 
HETATM   20  H           1     -21.443  -7.948  -5.852  0.00  0.00     0.159 HD
HETATM   21  H           1     -22.262  -8.323  -4.348  0.00  0.00     0.159 HD
HETATM   22  O           1     -22.035  -6.017  -3.451  0.00  0.00    -0.274 OA
ENDBRANCH  17  18
ENDBRANCH  16  17
BRANCH  16  23
HETATM   23  N           1     -19.908  -6.057  -7.569  0.00  0.00    -0.066 N 
HETATM   24  H           1     -19.925  -7.063  -7.852  0.00  0.00     0.275 HD
HETATM   25  H           1     -19.110  -5.892  -6.916  0.00  0.00     0.275 HD
HETATM   26  H           1     -19.794  -5.457  -8.417  0.00  0.00     0.275 HD
ENDBRANCH  16  23
ENDBRANCH   2  16
TORSDOF 10
ENDMDL
