MODEL 1
REMARK VINA RESULT:      -8.4      0.000      0.000
REMARK  10 active torsions:
REMARK  status: ('A' for Active; 'I' for Inactive)
REMARK    1  A    between atoms: C_2  and  C_12 
REMARK    2  A    between atoms: C_4  and  C_10 
REMARK    3  A    between atoms: C_4  and  C_24 
REMARK    4  A    between atoms: C_4  and  N_9 
REMARK       I    between atoms: N_9  and  C_21 
REMARK    5  A    between atoms: C_10  and  C_29 
REMARK    6  A    between atoms: C_12  and  C_13 
REMARK    7  A    between atoms: C_13  and  C_21 
REMARK    8  A    between atoms: C_13  and  N_19 
REMARK    9  A    between atoms: O_14  and  C_15 
REMARK   10  A    between atoms: O_26  and  C_30 
ROOT
HETATM    1  N           1     -21.270  -7.429  -5.485  0.00  0.00    -0.344 N 
HETATM    2  H           1     -21.679  -8.000  -6.214  0.00  0.00     0.163 HD
HETATM    3  O           1     -20.903  -5.384  -4.666  0.00  0.00    -0.271 OA
HETATM    4  C           1     -21.390  -6.066  -5.536  0.00  0.00     0.249 C 
ENDROOT
BRANCH   4   5
HETATM    5  C           1     -22.130  -5.415  -6.680  0.00  0.00     0.278 C 
BRANCH   5   6
HETATM    6  C           1     -21.365  -4.184  -7.144  0.00  0.00     0.081 C 
BRANCH   6   7
HETATM    7  C           1     -21.442  -4.081  -8.636  0.00  0.00    -0.056 A 
HETATM    8  C           1     -22.628  -3.676  -9.247  0.00  0.00     0.010 A 
HETATM    9  C           1     -22.699  -3.580 -10.637  0.00  0.00     0.037 A 
HETATM   10  C           1     -21.583  -3.888 -11.415  0.00  0.00     0.065 A 
HETATM   11  C           1     -20.397  -4.294 -10.804  0.00  0.00     0.037 A 
HETATM   12  C           1     -20.326  -4.389  -9.414  0.00  0.00     0.010 A 
BRANCH  10  13
HETATM   13  O           1     -21.653  -3.795 -12.765  0.00  0.00    -0.361 OA
HETATM   14  H           1     -21.012  -3.123 -13.053  0.00  0.00     0.217 HD
ENDBRANCH  10  13
ENDBRANCH   6   7
ENDBRANCH   5   6
BRANCH   5  15
HETATM   15  N           1     -23.499  -5.010  -6.220  0.00  0.00    -0.066 N 
HETATM   16  H           1     -24.091  -4.779  -7.049  0.00  0.00     0.275 HD
HETATM   17  H           1     -23.935  -5.798  -5.688  0.00  0.00     0.275 HD
HETATM   18  H           1     -23.424  -4.172  -5.600  0.00  0.00     0.275 HD
ENDBRANCH   5  15
ENDBRANCH   4   5
BRANCH   1  19
HETATM   19  C           1     -20.559  -8.054  -4.387  0.00  0.00     0.189 C 
BRANCH  19  20
HETATM   20  C           1     -21.414  -9.167  -3.797  0.00  0.00     0.074 C 
BRANCH  20  21
HETATM   21  C           1     -21.819  -8.801  -2.403  0.00  0.00    -0.056 A 
HETATM   22  C           1     -22.217  -9.795  -1.509  0.00  0.00     0.010 A 
HETATM   23  C           1     -22.594  -9.453  -0.210  0.00  0.00     0.037 A 
HETATM   24  C           1     -22.573  -8.118   0.195  0.00  0.00     0.065 A 
HETATM   25  C           1     -22.176  -7.125  -0.700  0.00  0.00     0.037 A 
HETATM   26  C           1     -21.799  -7.466  -1.999  0.00  0.00     0.010 A 
BRANCH  24  27
HETATM   27  O           1     -22.940  -7.787   1.456  0.00  0.00    -0.361 OA
HETATM   28  H           1     -23.618  -8.419   1.748  0.00  0.00     0.217 HD
ENDBRANCH  24  27
ENDBRANCH  20  21
ENDBRANCH  19  20
BRANCH  19  29
HETATM   29  C           1     -19.260  -8.632  -4.894  0.00  0.00     0.197 C 
HETATM   30  O           1     -18.470  -9.185  -4.100  0.00  0.00    -0.646 OA
HETATM   31  O           1     -18.975  -8.557  -6.109  0.00  0.00    -0.646 OA
ENDBRANCH  19  29
ENDBRANCH   1  19
TORSDOF 10
ENDMDL
MODEL 2
REMARK VINA RESULT:      -8.3      1.193      8.653
REMARK  10 active torsions:
REMARK  status: ('A' for Active; 'I' for Inactive)
REMARK    1  A    between atoms: C_2  and  C_12 
REMARK    2  A    between atoms: C_4  and  C_10 
REMARK    3  A    between atoms: C_4  and  C_24 
REMARK    4  A    between atoms: C_4  and  N_9 
REMARK       I    between atoms: N_9  and  C_21 
REMARK    5  A    between atoms: C_10  and  C_29 
REMARK    6  A    between atoms: C_12  and  C_13 
REMARK    7  A    between atoms: C_13  and  C_21 
REMARK    8  A    between atoms: C_13  and  N_19 
REMARK    9  A    between atoms: O_14  and  C_15 
REMARK   10  A    between atoms: O_26  and  C_30 
ROOT
HETATM    1  N           1     -21.396  -6.647  -6.057  0.00  0.00    -0.344 N 
HETATM    2  H           1     -22.336  -6.583  -5.685  0.00  0.00     0.163 HD
HETATM    3  O           1     -19.489  -7.799  -6.192  0.00  0.00    -0.271 OA
HETATM    4  C           1     -20.610  -7.723  -5.748  0.00  0.00     0.249 C 
ENDROOT
BRANCH   4   5
HETATM    5  C           1     -21.142  -8.815  -4.851  0.00  0.00     0.278 C 
BRANCH   5   6
HETATM    6  C           1     -20.309  -8.879  -3.579  0.00  0.00     0.081 C 
BRANCH   6   7
HETATM    7  C           1     -21.176  -8.574  -2.398  0.00  0.00    -0.056 A 
HETATM    8  C           1     -21.638  -9.610  -1.585  0.00  0.00     0.010 A 
HETATM    9  C           1     -22.445  -9.325  -0.485  0.00  0.00     0.037 A 
HETATM   10  C           1     -22.791  -8.005  -0.195  0.00  0.00     0.065 A 
HETATM   11  C           1     -22.329  -6.969  -1.008  0.00  0.00     0.037 A 
HETATM   12  C           1     -21.521  -7.254  -2.108  0.00  0.00     0.010 A 
BRANCH  10  13
HETATM   13  O           1     -23.576  -7.729   0.874  0.00  0.00    -0.361 OA
HETATM   14  H           1     -23.144  -8.093   1.666  0.00  0.00     0.217 HD
ENDBRANCH  10  13
ENDBRANCH   6   7
ENDBRANCH   5   6
BRANCH   5  15
HETATM   15  N           1     -21.062 -10.131  -5.568  0.00  0.00    -0.066 N 
HETATM   16  H           1     -21.505 -10.873  -4.983  0.00  0.00     0.275 HD
HETATM   17  H           1     -21.565 -10.060  -6.482  0.00  0.00     0.275 HD
HETATM   18  H           1     -20.060 -10.373  -5.740  0.00  0.00     0.275 HD
ENDBRANCH   5  15
ENDBRANCH   4   5
BRANCH   1  19
HETATM   19  C           1     -20.886  -5.598  -6.917  0.00  0.00     0.189 C 
BRANCH  19  20
HETATM   20  C           1     -22.032  -4.697  -7.354  0.00  0.00     0.074 C 
BRANCH  20  21
HETATM   21  C           1     -21.965  -4.482  -8.833  0.00  0.00    -0.056 A 
HETATM   22  C           1     -23.137  -4.452  -9.589  0.00  0.00     0.010 A 
HETATM   23  C           1     -23.073  -4.252 -10.968  0.00  0.00     0.037 A 
HETATM   24  C           1     -21.837  -4.083 -11.592  0.00  0.00     0.065 A 
HETATM   25  C           1     -20.665  -4.114 -10.837  0.00  0.00     0.037 A 
HETATM   26  C           1     -20.728  -4.314  -9.457  0.00  0.00     0.010 A 
BRANCH  24  27
HETATM   27  O           1     -21.775  -3.888 -12.931  0.00  0.00    -0.361 OA
HETATM   28  H           1     -21.013  -4.386 -13.272  0.00  0.00     0.217 HD
ENDBRANCH  24  27
ENDBRANCH  20  21
ENDBRANCH  19  20
BRANCH  19  29
HETATM   29  C           1     -19.863  -4.783  -6.163  0.00  0.00     0.197 C 
HETATM   30  O           1     -20.100  -4.410  -4.995  0.00  0.00    -0.646 OA
HETATM   31  O           1     -18.779  -4.481  -6.708  0.00  0.00    -0.646 OA
ENDBRANCH  19  29
ENDBRANCH   1  19
TORSDOF 10
ENDMDL
MODEL 3
REMARK VINA RESULT:      -7.9      1.444      2.006
REMARK  10 active torsions:
REMARK  status: ('A' for Active; 'I' for Inactive)
REMARK    1  A    between atoms: C_2  and  C_12 
REMARK    2  A    between atoms: C_4  and  C_10 
REMARK    3  A    between atoms: C_4  and  C_24 
REMARK    4  A    between atoms: C_4  and  N_9 
REMARK       I    between atoms: N_9  and  C_21 
REMARK    5  A    between atoms: C_10  and  C_29 
REMARK    6  A    between atoms: C_12  and  C_13 
REMARK    7  A    between atoms: C_13  and  C_21 
REMARK    8  A    between atoms: C_13  and  N_19 
REMARK    9  A    between atoms: O_14  and  C_15 
REMARK   10  A    between atoms: O_26  and  C_30 
ROOT
HETATM    1  N           1     -20.771  -8.112  -4.413  0.00  0.00    -0.344 N 
HETATM    2  H           1     -21.594  -7.920  -3.855  0.00  0.00     0.163 HD
HETATM    3  O           1     -19.565  -7.640  -6.231  0.00  0.00    -0.271 OA
HETATM    4  C           1     -20.548  -7.411  -5.566  0.00  0.00     0.249 C 
ENDROOT
BRANCH   4   5
HETATM    5  C           1     -21.528  -6.352  -6.009  0.00  0.00     0.278 C 
BRANCH   5   6
HETATM    6  C           1     -20.780  -5.062  -6.316  0.00  0.00     0.081 C 
BRANCH   6   7
HETATM    7  C           1     -21.091  -4.624  -7.712  0.00  0.00    -0.056 A 
HETATM    8  C           1     -20.135  -4.767  -8.719  0.00  0.00     0.010 A 
HETATM    9  C           1     -20.426  -4.358 -10.020  0.00  0.00     0.037 A 
HETATM   10  C           1     -21.673  -3.806 -10.316  0.00  0.00     0.065 A 
HETATM   11  C           1     -22.628  -3.663  -9.309  0.00  0.00     0.037 A 
HETATM   12  C           1     -22.338  -4.072  -8.009  0.00  0.00     0.010 A 
BRANCH  10  13
HETATM   13  O           1     -21.955  -3.409 -11.580  0.00  0.00    -0.361 OA
HETATM   14  H           1     -21.636  -4.097 -12.189  0.00  0.00     0.217 HD
ENDBRANCH  10  13
ENDBRANCH   6   7
ENDBRANCH   5   6
BRANCH   5  15
HETATM   15  N           1     -22.522  -6.105  -4.913  0.00  0.00    -0.066 N 
HETATM   16  H           1     -22.663  -6.983  -4.366  0.00  0.00     0.275 HD
HETATM   17  H           1     -22.163  -5.354  -4.280  0.00  0.00     0.275 HD
HETATM   18  H           1     -23.432  -5.802  -5.329  0.00  0.00     0.275 HD
ENDBRANCH   5  15
ENDBRANCH   4   5
BRANCH   1  19
HETATM   19  C           1     -19.830  -9.129  -3.988  0.00  0.00     0.189 C 
BRANCH  19  20
HETATM   20  C           1     -19.361  -8.827  -2.571  0.00  0.00     0.074 C 
BRANCH  20  21
HETATM   21  C           1     -20.544  -8.516  -1.708  0.00  0.00    -0.056 A 
HETATM   22  C           1     -21.042  -9.480  -0.833  0.00  0.00     0.010 A 
HETATM   23  C           1     -22.144  -9.190  -0.029  0.00  0.00     0.037 A 
HETATM   24  C           1     -22.750  -7.935  -0.101  0.00  0.00     0.065 A 
HETATM   25  C           1     -22.252  -6.971  -0.978  0.00  0.00     0.037 A 
HETATM   26  C           1     -21.149  -7.261  -1.782  0.00  0.00     0.010 A 
BRANCH  24  27
HETATM   27  O           1     -23.820  -7.653   0.680  0.00  0.00    -0.361 OA
HETATM   28  H           1     -23.519  -7.625   1.604  0.00  0.00     0.217 HD
ENDBRANCH  24  27
ENDBRANCH  20  21
ENDBRANCH  19  20
BRANCH  19  29
HETATM   29  C           1     -20.502 -10.480  -4.018  0.00  0.00     0.197 C 
HETATM   30  O           1     -21.693 -10.577  -4.385  0.00  0.00    -0.646 OA
HETATM   31  O           1     -19.868 -11.502  -3.675  0.00  0.00    -0.646 OA
ENDBRANCH  19  29
ENDBRANCH   1  19
TORSDOF 10
ENDMDL
MODEL 4
REMARK VINA RESULT:      -7.7     13.611     15.190
REMARK  10 active torsions:
REMARK  status: ('A' for Active; 'I' for Inactive)
REMARK    1  A    between atoms: C_2  and  C_12 
REMARK    2  A    between atoms: C_4  and  C_10 
REMARK    3  A    between atoms: C_4  and  C_24 
REMARK    4  A    between atoms: C_4  and  N_9 
REMARK       I    between atoms: N_9  and  C_21 
REMARK    5  A    between atoms: C_10  and  C_29 
REMARK    6  A    between atoms: C_12  and  C_13 
REMARK    7  A    between atoms: C_13  and  C_21 
REMARK    8  A    between atoms: C_13  and  N_19 
REMARK    9  A    between atoms: O_14  and  C_15 
REMARK   10  A    between atoms: O_26  and  C_30 
ROOT
HETATM    1  N           1     -33.491  -3.739 -14.331  0.00  0.00    -0.344 N 
HETATM    2  H           1     -32.589  -3.280 -14.306  0.00  0.00     0.163 HD
HETATM    3  O           1     -34.958  -4.969 -15.480  0.00  0.00    -0.271 OA
HETATM    4  C           1     -33.882  -4.421 -15.451  0.00  0.00     0.249 C 
ENDROOT
BRANCH   4   5
HETATM    5  C           1     -32.968  -4.488 -16.651  0.00  0.00     0.278 C 
BRANCH   5   6
HETATM    6  C           1     -31.519  -4.483 -16.188  0.00  0.00     0.081 C 
BRANCH   6   7
HETATM    7  C           1     -30.707  -5.377 -17.072  0.00  0.00    -0.056 A 
HETATM    8  C           1     -29.526  -4.907 -17.646  0.00  0.00     0.010 A 
HETATM    9  C           1     -28.771  -5.741 -18.470  0.00  0.00     0.037 A 
HETATM   10  C           1     -29.196  -7.046 -18.719  0.00  0.00     0.065 A 
HETATM   11  C           1     -30.377  -7.516 -18.145  0.00  0.00     0.037 A 
HETATM   12  C           1     -31.132  -6.683 -17.322  0.00  0.00     0.010 A 
BRANCH  10  13
HETATM   13  O           1     -28.461  -7.856 -19.520  0.00  0.00    -0.361 OA
HETATM   14  H           1     -27.766  -8.265 -18.976  0.00  0.00     0.217 HD
ENDBRANCH  10  13
ENDBRANCH   6   7
ENDBRANCH   5   6
BRANCH   5  15
HETATM   15  N           1     -33.217  -3.300 -17.533  0.00  0.00    -0.066 N 
HETATM   16  H           1     -32.455  -3.229 -18.244  0.00  0.00     0.275 HD
HETATM   17  H           1     -34.136  -3.413 -18.017  0.00  0.00     0.275 HD
HETATM   18  H           1     -33.234  -2.432 -16.951  0.00  0.00     0.275 HD
ENDBRANCH   5  15
ENDBRANCH   4   5
BRANCH   1  19
HETATM   19  C           1     -34.368  -3.674 -13.178  0.00  0.00     0.189 C 
BRANCH  19  20
HETATM   20  C           1     -33.541  -3.778 -11.905  0.00  0.00     0.074 C 
BRANCH  20  21
HETATM   21  C           1     -33.826  -5.083 -11.228  0.00  0.00    -0.056 A 
HETATM   22  C           1     -32.886  -6.112 -11.271  0.00  0.00     0.010 A 
HETATM   23  C           1     -33.152  -7.327 -10.641  0.00  0.00     0.037 A 
HETATM   24  C           1     -34.360  -7.514  -9.967  0.00  0.00     0.065 A 
HETATM   25  C           1     -35.300  -6.485  -9.925  0.00  0.00     0.037 A 
HETATM   26  C           1     -35.034  -5.269 -10.555  0.00  0.00     0.010 A 
BRANCH  24  27
HETATM   27  O           1     -34.618  -8.694  -9.355  0.00  0.00    -0.361 OA
HETATM   28  H           1     -33.789  -9.018  -8.964  0.00  0.00     0.217 HD
ENDBRANCH  24  27
ENDBRANCH  20  21
ENDBRANCH  19  20
BRANCH  19  29
HETATM   29  C           1     -35.114  -2.362 -13.188  0.00  0.00     0.197 C 
HETATM   30  O           1     -35.832  -2.045 -12.216  0.00  0.00    -0.646 OA
HETATM   31  O           1     -35.013  -1.593 -14.168  0.00  0.00    -0.646 OA
ENDBRANCH  19  29
ENDBRANCH   1  19
TORSDOF 10
ENDMDL
MODEL 5
REMARK VINA RESULT:      -7.6      1.922      4.116
REMARK  10 active torsions:
REMARK  status: ('A' for Active; 'I' for Inactive)
REMARK    1  A    between atoms: C_2  and  C_12 
REMARK    2  A    between atoms: C_4  and  C_10 
REMARK    3  A    between atoms: C_4  and  C_24 
REMARK    4  A    between atoms: C_4  and  N_9 
REMARK       I    between atoms: N_9  and  C_21 
REMARK    5  A    between atoms: C_10  and  C_29 
REMARK    6  A    between atoms: C_12  and  C_13 
REMARK    7  A    between atoms: C_13  and  C_21 
REMARK    8  A    between atoms: C_13  and  N_19 
REMARK    9  A    between atoms: O_14  and  C_15 
REMARK   10  A    between atoms: O_26  and  C_30 
ROOT
HETATM    1  N           1     -21.081  -6.486  -4.033  0.00  0.00    -0.344 N 
HETATM    2  H           1     -20.113  -6.197  -3.971  0.00  0.00     0.163 HD
HETATM    3  O           1     -23.018  -6.391  -5.139  0.00  0.00    -0.271 OA
HETATM    4  C           1     -21.862  -6.045  -5.065  0.00  0.00     0.249 C 
ENDROOT
BRANCH   4   5
HETATM    5  C           1     -21.282  -5.125  -6.113  0.00  0.00     0.278 C 
BRANCH   5   6
HETATM    6  C           1     -20.957  -5.925  -7.366  0.00  0.00     0.081 C 
BRANCH   6   7
HETATM    7  C           1     -21.156  -5.064  -8.574  0.00  0.00    -0.056 A 
HETATM    8  C           1     -20.087  -4.808  -9.434  0.00  0.00     0.010 A 
HETATM    9  C           1     -20.273  -4.006 -10.559  0.00  0.00     0.037 A 
HETATM   10  C           1     -21.529  -3.460 -10.827  0.00  0.00     0.065 A 
HETATM   11  C           1     -22.598  -3.715  -9.967  0.00  0.00     0.037 A 
HETATM   12  C           1     -22.411  -4.517  -8.842  0.00  0.00     0.010 A 
BRANCH  10  13
HETATM   13  O           1     -21.709  -2.680 -11.920  0.00  0.00    -0.361 OA
HETATM   14  H           1     -22.665  -2.534 -12.030  0.00  0.00     0.217 HD
ENDBRANCH  10  13
ENDBRANCH   6   7
ENDBRANCH   5   6
BRANCH   5  15
HETATM   15  N           1     -20.029  -4.494  -5.582  0.00  0.00    -0.066 N 
HETATM   16  H           1     -19.774  -4.939  -4.672  0.00  0.00     0.275 HD
HETATM   17  H           1     -19.252  -4.633  -6.268  0.00  0.00     0.275 HD
HETATM   18  H           1     -20.187  -3.472  -5.439  0.00  0.00     0.275 HD
ENDBRANCH   5  15
ENDBRANCH   4   5
BRANCH   1  19
HETATM   19  C           1     -21.638  -7.369  -3.026  0.00  0.00     0.189 C 
BRANCH  19  20
HETATM   20  C           1     -20.584  -8.381  -2.600  0.00  0.00     0.074 C 
BRANCH  20  21
HETATM   21  C           1     -20.203  -9.230  -3.772  0.00  0.00    -0.056 A 
HETATM   22  C           1     -18.873  -9.290  -4.187  0.00  0.00     0.010 A 
HETATM   23  C           1     -18.518 -10.082  -5.279  0.00  0.00     0.037 A 
HETATM   24  C           1     -19.493 -10.813  -5.958  0.00  0.00     0.065 A 
HETATM   25  C           1     -20.823 -10.752  -5.543  0.00  0.00     0.037 A 
HETATM   26  C           1     -21.179  -9.960  -4.451  0.00  0.00     0.010 A 
BRANCH  24  27
HETATM   27  O           1     -19.148 -11.581  -7.019  0.00  0.00    -0.361 OA
HETATM   28  H           1     -19.574 -12.449  -6.912  0.00  0.00     0.217 HD
ENDBRANCH  24  27
ENDBRANCH  20  21
ENDBRANCH  19  20
BRANCH  19  29
HETATM   29  C           1     -22.070  -6.557  -1.830  0.00  0.00     0.197 C 
HETATM   30  O           1     -22.556  -7.127  -0.830  0.00  0.00    -0.646 OA
HETATM   31  O           1     -21.942  -5.313  -1.839  0.00  0.00    -0.646 OA
ENDBRANCH  19  29
ENDBRANCH   1  19
TORSDOF 10
ENDMDL
MODEL 6
REMARK VINA RESULT:      -7.5      1.711      2.150
REMARK  10 active torsions:
REMARK  status: ('A' for Active; 'I' for Inactive)
REMARK    1  A    between atoms: C_2  and  C_12 
REMARK    2  A    between atoms: C_4  and  C_10 
REMARK    3  A    between atoms: C_4  and  C_24 
REMARK    4  A    between atoms: C_4  and  N_9 
REMARK       I    between atoms: N_9  and  C_21 
REMARK    5  A    between atoms: C_10  and  C_29 
REMARK    6  A    between atoms: C_12  and  C_13 
REMARK    7  A    between atoms: C_13  and  C_21 
REMARK    8  A    between atoms: C_13  and  N_19 
REMARK    9  A    between atoms: O_14  and  C_15 
REMARK   10  A    between atoms: O_26  and  C_30 
ROOT
HETATM    1  N           1     -19.849  -6.991  -6.243  0.00  0.00    -0.344 N 
HETATM    2  H           1     -19.574  -7.312  -7.163  0.00  0.00     0.163 HD
HETATM    3  O           1     -20.473  -5.288  -4.940  0.00  0.00    -0.271 OA
HETATM    4  C           1     -20.145  -5.671  -6.039  0.00  0.00     0.249 C 
ENDROOT
BRANCH   4   5
HETATM    5  C           1     -20.062  -4.692  -7.185  0.00  0.00     0.278 C 
BRANCH   5   6
HETATM    6  C           1     -20.398  -5.405  -8.487  0.00  0.00     0.081 C 
BRANCH   6   7
HETATM    7  C           1     -21.621  -4.790  -9.092  0.00  0.00    -0.056 A 
HETATM    8  C           1     -22.721  -4.486  -8.289  0.00  0.00     0.010 A 
HETATM    9  C           1     -23.860  -3.914  -8.853  0.00  0.00     0.037 A 
HETATM   10  C           1     -23.900  -3.643 -10.221  0.00  0.00     0.065 A 
HETATM   11  C           1     -22.801  -3.946 -11.025  0.00  0.00     0.037 A 
HETATM   12  C           1     -21.662  -4.519 -10.460  0.00  0.00     0.010 A 
BRANCH  10  13
HETATM   13  O           1     -25.008  -3.086 -10.769  0.00  0.00    -0.361 OA
HETATM   14  H           1     -25.187  -2.253 -10.301  0.00  0.00     0.217 HD
ENDBRANCH  10  13
ENDBRANCH   6   7
ENDBRANCH   5   6
BRANCH   5  15
HETATM   15  N           1     -18.671  -4.135  -7.264  0.00  0.00    -0.066 N 
HETATM   16  H           1     -18.667  -3.298  -7.889  0.00  0.00     0.275 HD
HETATM   17  H           1     -18.353  -3.857  -6.308  0.00  0.00     0.275 HD
HETATM   18  H           1     -18.026  -4.862  -7.648  0.00  0.00     0.275 HD
ENDBRANCH   5  15
ENDBRANCH   4   5
BRANCH   1  19
HETATM   19  C           1     -19.928  -7.931  -5.142  0.00  0.00     0.189 C 
BRANCH  19  20
HETATM   20  C           1     -21.247  -8.687  -5.215  0.00  0.00     0.074 C 
BRANCH  20  21
HETATM   21  C           1     -21.642  -9.137  -3.843  0.00  0.00    -0.056 A 
HETATM   22  C           1     -22.185 -10.408  -3.654  0.00  0.00     0.010 A 
HETATM   23  C           1     -22.552 -10.826  -2.375  0.00  0.00     0.037 A 
HETATM   24  C           1     -22.378  -9.974  -1.285  0.00  0.00     0.065 A 
HETATM   25  C           1     -21.836  -8.703  -1.474  0.00  0.00     0.037 A 
HETATM   26  C           1     -21.468  -8.284  -2.752  0.00  0.00     0.010 A 
BRANCH  24  27
HETATM   27  O           1     -22.736 -10.381  -0.043  0.00  0.00    -0.361 OA
HETATM   28  H           1     -22.654 -11.349  -0.009  0.00  0.00     0.217 HD
ENDBRANCH  24  27
ENDBRANCH  20  21
ENDBRANCH  19  20
BRANCH  19  29
HETATM   29  C           1     -18.781  -8.909  -5.233  0.00  0.00     0.197 C 
HETATM   30  O           1     -18.261  -9.360  -4.190  0.00  0.00    -0.646 OA
HETATM   31  O           1     -18.352  -9.267  -6.351  0.00  0.00    -0.646 OA
ENDBRANCH  19  29
ENDBRANCH   1  19
TORSDOF 10
ENDMDL
MODEL 7
REMARK VINA RESULT:      -7.2      2.703      4.913
REMARK  10 active torsions:
REMARK  status: ('A' for Active; 'I' for Inactive)
REMARK    1  A    between atoms: C_2  and  C_12 
REMARK    2  A    between atoms: C_4  and  C_10 
REMARK    3  A    between atoms: C_4  and  C_24 
REMARK    4  A    between atoms: C_4  and  N_9 
REMARK       I    between atoms: N_9  and  C_21 
REMARK    5  A    between atoms: C_10  and  C_29 
REMARK    6  A    between atoms: C_12  and  C_13 
REMARK    7  A    between atoms: C_13  and  C_21 
REMARK    8  A    between atoms: C_13  and  N_19 
REMARK    9  A    between atoms: O_14  and  C_15 
REMARK   10  A    between atoms: O_26  and  C_30 
ROOT
HETATM    1  N           1     -20.394  -8.311  -4.003  0.00  0.00    -0.344 N 
HETATM    2  H           1     -20.966  -8.095  -3.196  0.00  0.00     0.163 HD
HETATM    3  O           1     -19.701  -7.725  -6.043  0.00  0.00    -0.271 OA
HETATM    4  C           1     -20.384  -7.467  -5.080  0.00  0.00     0.249 C 
ENDROOT
BRANCH   4   5
HETATM    5  C           1     -21.228  -6.216  -5.067  0.00  0.00     0.278 C 
BRANCH   5   6
HETATM    6  C           1     -20.397  -5.038  -5.558  0.00  0.00     0.081 C 
BRANCH   6   7
HETATM    7  C           1     -20.844  -4.650  -6.933  0.00  0.00    -0.056 A 
HETATM    8  C           1     -22.198  -4.446  -7.196  0.00  0.00     0.010 A 
HETATM    9  C           1     -22.613  -4.085  -8.477  0.00  0.00     0.037 A 
HETATM   10  C           1     -21.674  -3.925  -9.496  0.00  0.00     0.065 A 
HETATM   11  C           1     -20.319  -4.129  -9.233  0.00  0.00     0.037 A 
HETATM   12  C           1     -19.904  -4.490  -7.952  0.00  0.00     0.010 A 
BRANCH  10  13
HETATM   13  O           1     -22.077  -3.574 -10.741  0.00  0.00    -0.361 OA
HETATM   14  H           1     -22.648  -4.284 -11.083  0.00  0.00     0.217 HD
ENDBRANCH  10  13
ENDBRANCH   6   7
ENDBRANCH   5   6
BRANCH   5  15
HETATM   15  N           1     -21.699  -5.947  -3.669  0.00  0.00    -0.066 N 
HETATM   16  H           1     -21.651  -4.922  -3.476  0.00  0.00     0.275 HD
HETATM   17  H           1     -22.686  -6.275  -3.565  0.00  0.00     0.275 HD
HETATM   18  H           1     -21.090  -6.459  -2.991  0.00  0.00     0.275 HD
ENDBRANCH   5  15
ENDBRANCH   4   5
BRANCH   1  19
HETATM   19  C           1     -19.584  -9.513  -4.015  0.00  0.00     0.189 C 
BRANCH  19  20
HETATM   20  C           1     -18.356  -9.307  -3.139  0.00  0.00     0.074 C 
BRANCH  20  21
HETATM   21  C           1     -17.179  -9.993  -3.759  0.00  0.00    -0.056 A 
HETATM   22  C           1     -16.285 -10.705  -2.958  0.00  0.00     0.010 A 
HETATM   23  C           1     -15.188 -11.344  -3.536  0.00  0.00     0.037 A 
HETATM   24  C           1     -14.984 -11.271  -4.914  0.00  0.00     0.065 A 
HETATM   25  C           1     -15.877 -10.559  -5.714  0.00  0.00     0.037 A 
HETATM   26  C           1     -16.975  -9.920  -5.137  0.00  0.00     0.010 A 
BRANCH  24  27
HETATM   27  O           1     -13.919 -11.892  -5.475  0.00  0.00    -0.361 OA
HETATM   28  H           1     -13.120 -11.392  -5.237  0.00  0.00     0.217 HD
ENDBRANCH  24  27
ENDBRANCH  20  21
ENDBRANCH  19  20
BRANCH  19  29
HETATM   29  C           1     -20.394 -10.670  -3.483  0.00  0.00     0.197 C 
HETATM   30  O           1     -21.120 -11.332  -4.254  0.00  0.00    -0.646 OA
HETATM   31  O           1     -20.339 -10.966  -2.269  0.00  0.00    -0.646 OA
ENDBRANCH  19  29
ENDBRANCH   1  19
TORSDOF 10
ENDMDL
MODEL 8
REMARK VINA RESULT:      -7.2      1.835      3.787
REMARK  10 active torsions:
REMARK  status: ('A' for Active; 'I' for Inactive)
REMARK    1  A    between atoms: C_2  and  C_12 
REMARK    2  A    between atoms: C_4  and  C_10 
REMARK    3  A    between atoms: C_4  and  C_24 
REMARK    4  A    between atoms: C_4  and  N_9 
REMARK       I    between atoms: N_9  and  C_21 
REMARK    5  A    between atoms: C_10  and  C_29 
REMARK    6  A    between atoms: C_12  and  C_13 
REMARK    7  A    between atoms: C_13  and  C_21 
REMARK    8  A    between atoms: C_13  and  N_19 
REMARK    9  A    between atoms: O_14  and  C_15 
REMARK   10  A    between atoms: O_26  and  C_30 
ROOT
HETATM    1  N           1     -20.875  -6.909  -4.413  0.00  0.00    -0.344 N 
HETATM    2  H           1     -19.888  -7.113  -4.321  0.00  0.00     0.163 HD
HETATM    3  O           1     -22.487  -5.798  -5.486  0.00  0.00    -0.271 OA
HETATM    4  C           1     -21.308  -6.041  -5.377  0.00  0.00     0.249 C 
ENDROOT
BRANCH   4   5
HETATM    5  C           1     -20.314  -5.385  -6.305  0.00  0.00     0.278 C 
BRANCH   5   6
HETATM    6  C           1     -20.875  -4.058  -6.795  0.00  0.00     0.081 C 
BRANCH   6   7
HETATM    7  C           1     -21.219  -4.165  -8.247  0.00  0.00    -0.056 A 
HETATM    8  C           1     -22.540  -4.387  -8.638  0.00  0.00     0.010 A 
HETATM    9  C           1     -22.860  -4.487  -9.991  0.00  0.00     0.037 A 
HETATM   10  C           1     -21.859  -4.364 -10.956  0.00  0.00     0.065 A 
HETATM   11  C           1     -20.538  -4.142 -10.565  0.00  0.00     0.037 A 
HETATM   12  C           1     -20.218  -4.042  -9.212  0.00  0.00     0.010 A 
BRANCH  10  13
HETATM   13  O           1     -22.170  -4.461 -12.271  0.00  0.00    -0.361 OA
HETATM   14  H           1     -21.731  -3.730 -12.738  0.00  0.00     0.217 HD
ENDBRANCH  10  13
ENDBRANCH   6   7
ENDBRANCH   5   6
BRANCH   5  15
HETATM   15  N           1     -20.060  -6.284  -7.479  0.00  0.00    -0.066 N 
HETATM   16  H           1     -20.840  -6.187  -8.166  0.00  0.00     0.275 HD
HETATM   17  H           1     -19.158  -6.016  -7.934  0.00  0.00     0.275 HD
HETATM   18  H           1     -20.003  -7.275  -7.153  0.00  0.00     0.275 HD
ENDBRANCH   5  15
ENDBRANCH   4   5
BRANCH   1  19
HETATM   19  C           1     -21.829  -7.539  -3.521  0.00  0.00     0.189 C 
BRANCH  19  20
HETATM   20  C           1     -21.465  -9.006  -3.343  0.00  0.00     0.074 C 
BRANCH  20  21
HETATM   21  C           1     -20.023  -9.209  -3.687  0.00  0.00    -0.056 A 
HETATM   22  C           1     -19.643  -9.409  -5.014  0.00  0.00     0.010 A 
HETATM   23  C           1     -18.299  -9.598  -5.334  0.00  0.00     0.037 A 
HETATM   24  C           1     -17.333  -9.589  -4.327  0.00  0.00     0.065 A 
HETATM   25  C           1     -17.714  -9.390  -3.000  0.00  0.00     0.037 A 
HETATM   26  C           1     -19.058  -9.201  -2.679  0.00  0.00     0.010 A 
BRANCH  24  27
HETATM   27  O           1     -16.028  -9.773  -4.638  0.00  0.00    -0.361 OA
HETATM   28  H           1     -15.664  -8.918  -4.923  0.00  0.00     0.217 HD
ENDBRANCH  24  27
ENDBRANCH  20  21
ENDBRANCH  19  20
BRANCH  19  29
HETATM   29  C           1     -21.798  -6.846  -2.181  0.00  0.00     0.197 C 
HETATM   30  O           1     -21.964  -5.609  -2.113  0.00  0.00    -0.646 OA
HETATM   31  O           1     -21.605  -7.509  -1.139  0.00  0.00    -0.646 OA
ENDBRANCH  19  29
ENDBRANCH   1  19
TORSDOF 10
ENDMDL
MODEL 9
REMARK VINA RESULT:      -7.1     13.746     17.798
REMARK  10 active torsions:
REMARK  status: ('A' for Active; 'I' for Inactive)
REMARK    1  A    between atoms: C_2  and  C_12 
REMARK    2  A    between atoms: C_4  and  C_10 
REMARK    3  A    between atoms: C_4  and  C_24 
REMARK    4  A    between atoms: C_4  and  N_9 
REMARK       I    between atoms: N_9  and  C_21 
REMARK    5  A    between atoms: C_10  and  C_29 
REMARK    6  A    between atoms: C_12  and  C_13 
REMARK    7  A    between atoms: C_13  and  C_21 
REMARK    8  A    between atoms: C_13  and  N_19 
REMARK    9  A    between atoms: O_14  and  C_15 
REMARK   10  A    between atoms: O_26  and  C_30 
ROOT
HETATM    1  N           1     -35.981  -1.648 -11.698  0.00  0.00    -0.344 N 
HETATM    2  H           1     -36.747  -2.221 -12.028  0.00  0.00     0.163 HD
HETATM    3  O           1     -33.795  -1.471 -11.277  0.00  0.00    -0.271 OA
HETATM    4  C           1     -34.710  -2.156 -11.671  0.00  0.00     0.249 C 
ENDROOT
BRANCH   4   5
HETATM    5  C           1     -34.451  -3.570 -12.131  0.00  0.00     0.278 C 
BRANCH   5   6
HETATM    6  C           1     -33.247  -4.133 -11.389  0.00  0.00     0.081 C 
BRANCH   6   7
HETATM    7  C           1     -33.580  -5.490 -10.852  0.00  0.00    -0.056 A 
HETATM    8  C           1     -32.678  -6.543 -11.007  0.00  0.00     0.010 A 
HETATM    9  C           1     -32.989  -7.806 -10.506  0.00  0.00     0.037 A 
HETATM   10  C           1     -34.201  -8.018  -9.849  0.00  0.00     0.065 A 
HETATM   11  C           1     -35.103  -6.965  -9.694  0.00  0.00     0.037 A 
HETATM   12  C           1     -34.792  -5.701 -10.194  0.00  0.00     0.010 A 
BRANCH  10  13
HETATM   13  O           1     -34.503  -9.246  -9.362  0.00  0.00    -0.361 OA
HETATM   14  H           1     -34.992  -9.127  -8.530  0.00  0.00     0.217 HD
ENDBRANCH  10  13
ENDBRANCH   6   7
ENDBRANCH   5   6
BRANCH   5  15
HETATM   15  N           1     -34.177  -3.571 -13.605  0.00  0.00    -0.066 N 
HETATM   16  H           1     -33.147  -3.634 -13.767  0.00  0.00     0.275 HD
HETATM   17  H           1     -34.650  -4.393 -14.046  0.00  0.00     0.275 HD
HETATM   18  H           1     -34.544  -2.690 -14.029  0.00  0.00     0.275 HD
ENDBRANCH   5  15
ENDBRANCH   4   5
BRANCH   1  19
HETATM   19  C           1     -36.230  -0.290 -11.256  0.00  0.00     0.189 C 
BRANCH  19  20
HETATM   20  C           1     -37.321   0.332 -12.116  0.00  0.00     0.074 C 
BRANCH  20  21
HETATM   21  C           1     -37.041   0.051 -13.560  0.00  0.00    -0.056 A 
HETATM   22  C           1     -38.075  -0.348 -14.407  0.00  0.00     0.010 A 
HETATM   23  C           1     -37.813  -0.610 -15.751  0.00  0.00     0.037 A 
HETATM   24  C           1     -36.518  -0.473 -16.250  0.00  0.00     0.065 A 
HETATM   25  C           1     -35.484  -0.075 -15.403  0.00  0.00     0.037 A 
HETATM   26  C           1     -35.745   0.187 -14.057  0.00  0.00     0.010 A 
BRANCH  24  27
HETATM   27  O           1     -36.264  -0.727 -17.556  0.00  0.00    -0.361 OA
HETATM   28  H           1     -36.239  -1.692 -17.675  0.00  0.00     0.217 HD
ENDBRANCH  24  27
ENDBRANCH  20  21
ENDBRANCH  19  20
BRANCH  19  29
HETATM   29  C           1     -36.673  -0.305  -9.813  0.00  0.00     0.197 C 
HETATM   30  O           1     -35.822  -0.300  -8.898  0.00  0.00    -0.646 OA
HETATM   31  O           1     -37.891  -0.322  -9.534  0.00  0.00    -0.646 OA
ENDBRANCH  19  29
ENDBRANCH   1  19
TORSDOF 10
ENDMDL
