MODEL 1
REMARK VINA RESULT:      -5.0      0.000      0.000
REMARK  6 active torsions:
REMARK  status: ('A' for Active; 'I' for Inactive)
REMARK    1  A    between atoms: C_1  and  C_2 
REMARK       I    between atoms: C_2  and  N_3 
REMARK    2  A    between atoms: N_3  and  C_10 
REMARK    3  A    between atoms: Se_7  and  C_19 
REMARK    4  A    between atoms: C_9  and  C_10 
REMARK    5  A    between atoms: C_10  and  C_11 
REMARK    6  A    between atoms: C_11  and  C_19 
ROOT
HETATM    1  C           1     -27.703  -5.866 -18.356  0.00  0.00     0.249 C 
HETATM    2  N           1     -26.897  -6.772 -18.991  0.00  0.00    -0.345 N 
HETATM    3  O           1     -28.441  -5.158 -19.000  0.00  0.00    -0.271 OA
HETATM    4  H           1     -26.280  -7.365 -18.452  0.00  0.00     0.163 HD
ENDROOT
BRANCH   1   5
HETATM    5  C           1     -27.671  -5.751 -16.851  0.00  0.00     0.274 C 
HETATM    6  C           1     -28.601  -6.792 -16.242  0.00  0.00     0.042 C 
HETATM    7  C           1     -30.022  -6.558 -16.739  0.00  0.00     0.003 C 
HETATM    8 Se           1     -30.610  -4.777 -16.212  0.00  0.00     0.000 Se
HETATM    9  C           1     -32.373  -4.940 -17.025  0.00  0.00     0.000 C 
HETATM   10  H           1     -29.099  -4.220 -16.788  0.00  0.00     0.275 HD
HETATM   11  N           1     -28.124  -4.380 -16.446  0.00  0.00    -0.067 N 
HETATM   12  H           1     -28.102  -4.299 -15.404  0.00  0.00     0.275 HD
HETATM   13  H           1     -27.486  -3.665 -16.863  0.00  0.00     0.275 HD
ENDBRANCH   1   5
BRANCH   2  14
HETATM   14  C           1     -26.928  -6.882 -20.437  0.00  0.00     0.185 C 
BRANCH  14  15
HETATM   15  C           1     -27.490  -8.228 -20.826  0.00  0.00     0.196 C 
HETATM   16  O           1     -26.897  -8.932 -21.672  0.00  0.00    -0.646 OA
HETATM   17  O           1     -28.549  -8.638 -20.303  0.00  0.00    -0.646 OA
ENDBRANCH  14  15
BRANCH  14  18
HETATM   18  C           1     -25.515  -6.743 -20.986  0.00  0.00     0.036 C 
BRANCH  18  19
HETATM   19  C           1     -24.527  -7.374 -20.014  0.00  0.00     0.003 C 
BRANCH  19  20
HETATM   20 Se           1     -23.176  -8.365 -21.010  0.00  0.00     0.000 Se
HETATM   21  C           1     -23.779  -7.750 -22.758  0.00  0.00     0.000 C 
ENDBRANCH  19  20
ENDBRANCH  18  19
ENDBRANCH  14  18
ENDBRANCH   2  14
TORSDOF 6
ENDMDL
MODEL 2
REMARK VINA RESULT:      -5.0     19.770     21.270
REMARK  6 active torsions:
REMARK  status: ('A' for Active; 'I' for Inactive)
REMARK    1  A    between atoms: C_1  and  C_2 
REMARK       I    between atoms: C_2  and  N_3 
REMARK    2  A    between atoms: N_3  and  C_10 
REMARK    3  A    between atoms: Se_7  and  C_19 
REMARK    4  A    between atoms: C_9  and  C_10 
REMARK    5  A    between atoms: C_10  and  C_11 
REMARK    6  A    between atoms: C_11  and  C_19 
ROOT
HETATM    1  C           1      -9.722   6.684 -20.918  0.00  0.00     0.249 C 
HETATM    2  N           1     -10.836   5.904 -21.080  0.00  0.00    -0.345 N 
HETATM    3  O           1      -8.830   6.319 -20.189  0.00  0.00    -0.271 OA
HETATM    4  H           1     -11.582   6.210 -21.691  0.00  0.00     0.163 HD
ENDROOT
BRANCH   1   5
HETATM    5  C           1      -9.607   7.998 -21.650  0.00  0.00     0.274 C 
HETATM    6  C           1      -9.245   9.100 -20.664  0.00  0.00     0.042 C 
HETATM    7  C           1     -10.329   9.206 -19.599  0.00  0.00     0.003 C 
HETATM    8 Se           1     -12.033   9.628 -20.446  0.00  0.00     0.000 Se
HETATM    9  C           1     -13.040   9.657 -18.778  0.00  0.00     0.000 C 
HETATM   10  H           1     -11.662   8.393 -21.571  0.00  0.00     0.275 HD
HETATM   11  N           1     -10.918   8.322 -22.302  0.00  0.00    -0.067 N 
HETATM   12  H           1     -10.840   9.232 -22.810  0.00  0.00     0.275 HD
HETATM   13  H           1     -11.167   7.566 -22.979  0.00  0.00     0.275 HD
ENDBRANCH   1   5
BRANCH   2  14
HETATM   14  C           1     -10.946   4.641 -20.375  0.00  0.00     0.185 C 
BRANCH  14  15
HETATM   15  C           1     -10.942   3.508 -21.373  0.00  0.00     0.196 C 
HETATM   16  O           1     -10.677   3.733 -22.574  0.00  0.00    -0.646 OA
HETATM   17  O           1     -11.207   2.345 -20.998  0.00  0.00    -0.646 OA
ENDBRANCH  14  15
BRANCH  14  18
HETATM   18  C           1     -12.244   4.615 -19.581  0.00  0.00     0.036 C 
BRANCH  18  19
HETATM   19  C           1     -13.185   5.691 -20.109  0.00  0.00     0.003 C 
BRANCH  19  20
HETATM   20 Se           1     -14.536   4.872 -21.249  0.00  0.00     0.000 Se
HETATM   21  C           1     -13.853   5.654 -22.899  0.00  0.00     0.000 C 
ENDBRANCH  19  20
ENDBRANCH  18  19
ENDBRANCH  14  18
ENDBRANCH   2  14
TORSDOF 6
ENDMDL
MODEL 3
REMARK VINA RESULT:      -4.7     16.526     18.551
REMARK  6 active torsions:
REMARK  status: ('A' for Active; 'I' for Inactive)
REMARK    1  A    between atoms: C_1  and  C_2 
REMARK       I    between atoms: C_2  and  N_3 
REMARK    2  A    between atoms: N_3  and  C_10 
REMARK    3  A    between atoms: Se_7  and  C_19 
REMARK    4  A    between atoms: C_9  and  C_10 
REMARK    5  A    between atoms: C_10  and  C_11 
REMARK    6  A    between atoms: C_11  and  C_19 
ROOT
HETATM    1  C           1     -20.850  -9.681  -4.332  0.00  0.00     0.249 C 
HETATM    2  N           1     -20.587  -8.460  -3.772  0.00  0.00    -0.345 N 
HETATM    3  O           1     -21.750 -10.362  -3.902  0.00  0.00    -0.271 OA
HETATM    4  H           1     -19.833  -7.889  -4.132  0.00  0.00     0.163 HD
ENDROOT
BRANCH   1   5
HETATM    5  C           1     -20.015 -10.177  -5.488  0.00  0.00     0.274 C 
HETATM    6  C           1     -19.337 -11.484  -5.102  0.00  0.00     0.042 C 
HETATM    7  C           1     -18.442 -11.255  -3.891  0.00  0.00     0.003 C 
HETATM    8 Se           1     -17.085  -9.925  -4.328  0.00  0.00     0.000 Se
HETATM    9  C           1     -16.240  -9.972  -2.573  0.00  0.00     0.000 C 
HETATM   10  H           1     -18.358  -8.995  -4.992  0.00  0.00     0.275 HD
HETATM   11  N           1     -18.972  -9.153  -5.824  0.00  0.00    -0.067 N 
HETATM   12  H           1     -18.393  -9.495  -6.624  0.00  0.00     0.275 HD
HETATM   13  H           1     -19.437  -8.256  -6.090  0.00  0.00     0.275 HD
ENDBRANCH   1   5
BRANCH   2  14
HETATM   14  C           1     -21.389  -7.984  -2.661  0.00  0.00     0.185 C 
BRANCH  14  15
HETATM   15  C           1     -21.884  -6.590  -2.960  0.00  0.00     0.196 C 
HETATM   16  O           1     -21.916  -6.177  -4.140  0.00  0.00    -0.646 OA
HETATM   17  O           1     -22.260  -5.846  -2.028  0.00  0.00    -0.646 OA
ENDBRANCH  14  15
BRANCH  14  18
HETATM   18  C           1     -20.542  -7.962  -1.396  0.00  0.00     0.036 C 
BRANCH  18  19
HETATM   19  C           1     -20.828  -9.209  -0.571  0.00  0.00     0.003 C 
BRANCH  19  20
HETATM   20 Se           1     -22.746  -9.558  -0.563  0.00  0.00     0.000 Se
HETATM   21  C           1     -23.180  -8.061   0.606  0.00  0.00     0.000 C 
ENDBRANCH  19  20
ENDBRANCH  18  19
ENDBRANCH  14  18
ENDBRANCH   2  14
TORSDOF 6
ENDMDL
MODEL 4
REMARK VINA RESULT:      -4.6     15.273     17.036
REMARK  6 active torsions:
REMARK  status: ('A' for Active; 'I' for Inactive)
REMARK    1  A    between atoms: C_1  and  C_2 
REMARK       I    between atoms: C_2  and  N_3 
REMARK    2  A    between atoms: N_3  and  C_10 
REMARK    3  A    between atoms: Se_7  and  C_19 
REMARK    4  A    between atoms: C_9  and  C_10 
REMARK    5  A    between atoms: C_10  and  C_11 
REMARK    6  A    between atoms: C_11  and  C_19 
ROOT
HETATM    1  C           1     -20.704  -9.202  -5.084  0.00  0.00     0.249 C 
HETATM    2  N           1     -21.506  -8.458  -4.261  0.00  0.00    -0.345 N 
HETATM    3  O           1     -19.661  -8.745  -5.486  0.00  0.00    -0.271 OA
HETATM    4  H           1     -22.380  -8.842  -3.924  0.00  0.00     0.163 HD
ENDROOT
BRANCH   1   5
HETATM    5  C           1     -21.123 -10.594  -5.490  0.00  0.00     0.274 C 
HETATM    6  C           1     -21.274 -11.461  -4.248  0.00  0.00     0.042 C 
HETATM    7  C           1     -19.945 -11.527  -3.508  0.00  0.00     0.003 C 
HETATM    8 Se           1     -18.588 -12.298  -4.676  0.00  0.00     0.000 Se
HETATM    9  C           1     -17.155 -12.179  -3.362  0.00  0.00     0.000 C 
HETATM   10  H           1     -19.167 -11.231  -5.881  0.00  0.00     0.275 HD
HETATM   11  N           1     -20.080 -11.187  -6.389  0.00  0.00    -0.067 N 
HETATM   12  H           1     -20.369 -12.151  -6.670  0.00  0.00     0.275 HD
HETATM   13  H           1     -19.976 -10.592  -7.242  0.00  0.00     0.275 HD
ENDBRANCH   1   5
BRANCH   2  14
HETATM   14  C           1     -21.104  -7.120  -3.871  0.00  0.00     0.185 C 
BRANCH  14  15
HETATM   15  C           1     -21.590  -6.837  -2.471  0.00  0.00     0.196 C 
HETATM   16  O           1     -21.153  -7.507  -1.509  0.00  0.00    -0.646 OA
HETATM   17  O           1     -22.432  -5.934  -2.272  0.00  0.00    -0.646 OA
ENDBRANCH  14  15
BRANCH  14  18
HETATM   18  C           1     -21.709  -6.108  -4.834  0.00  0.00     0.036 C 
BRANCH  18  19
HETATM   19  C           1     -20.595  -5.308  -5.496  0.00  0.00     0.003 C 
BRANCH  19  20
HETATM   20 Se           1     -20.689  -5.537  -7.429  0.00  0.00     0.000 Se
HETATM   21  C           1     -21.671  -3.883  -7.742  0.00  0.00     0.000 C 
ENDBRANCH  19  20
ENDBRANCH  18  19
ENDBRANCH  14  18
ENDBRANCH   2  14
TORSDOF 6
ENDMDL
MODEL 5
REMARK VINA RESULT:      -4.6     15.170     16.695
REMARK  6 active torsions:
REMARK  status: ('A' for Active; 'I' for Inactive)
REMARK    1  A    between atoms: C_1  and  C_2 
REMARK       I    between atoms: C_2  and  N_3 
REMARK    2  A    between atoms: N_3  and  C_10 
REMARK    3  A    between atoms: Se_7  and  C_19 
REMARK    4  A    between atoms: C_9  and  C_10 
REMARK    5  A    between atoms: C_10  and  C_11 
REMARK    6  A    between atoms: C_11  and  C_19 
ROOT
HETATM    1  C           1     -20.197  -9.220  -4.191  0.00  0.00     0.249 C 
HETATM    2  N           1     -20.799  -8.379  -5.089  0.00  0.00    -0.345 N 
HETATM    3  O           1     -19.559  -8.766  -3.272  0.00  0.00    -0.271 OA
HETATM    4  H           1     -21.333  -8.759  -5.859  0.00  0.00     0.163 HD
ENDROOT
BRANCH   1   5
HETATM    5  C           1     -20.333 -10.715  -4.350  0.00  0.00     0.274 C 
HETATM    6  C           1     -21.801 -11.106  -4.250  0.00  0.00     0.042 C 
HETATM    7  C           1     -22.348 -10.688  -2.891  0.00  0.00     0.003 C 
HETATM    8 Se           1     -21.342 -11.583  -1.483  0.00  0.00     0.000 Se
HETATM    9  C           1     -22.351 -10.777  -0.024  0.00  0.00     0.000 C 
HETATM   10  H           1     -19.933 -11.115  -2.333  0.00  0.00     0.275 HD
HETATM   11  N           1     -19.558 -11.403  -3.266  0.00  0.00    -0.067 N 
HETATM   12  H           1     -19.651 -12.438  -3.374  0.00  0.00     0.275 HD
HETATM   13  H           1     -18.550 -11.135  -3.334  0.00  0.00     0.275 HD
ENDBRANCH   1   5
BRANCH   2  14
HETATM   14  C           1     -20.669  -6.942  -4.937  0.00  0.00     0.185 C 
BRANCH  14  15
HETATM   15  C           1     -21.935  -6.385  -4.334  0.00  0.00     0.196 C 
HETATM   16  O           1     -22.968  -6.286  -5.030  0.00  0.00    -0.646 OA
HETATM   17  O           1     -21.950  -6.020  -3.138  0.00  0.00    -0.646 OA
ENDBRANCH  14  15
BRANCH  14  18
HETATM   18  C           1     -20.432  -6.307  -6.300  0.00  0.00     0.036 C 
BRANCH  18  19
HETATM   19  C           1     -20.074  -4.838  -6.121  0.00  0.00     0.003 C 
BRANCH  19  20
HETATM   20 Se           1     -21.173  -3.750  -7.306  0.00  0.00     0.000 Se
HETATM   21  C           1     -20.366  -4.429  -8.945  0.00  0.00     0.000 C 
ENDBRANCH  19  20
ENDBRANCH  18  19
ENDBRANCH  14  18
ENDBRANCH   2  14
TORSDOF 6
ENDMDL
MODEL 6
REMARK VINA RESULT:      -4.6     17.767     19.498
REMARK  6 active torsions:
REMARK  status: ('A' for Active; 'I' for Inactive)
REMARK    1  A    between atoms: C_1  and  C_2 
REMARK       I    between atoms: C_2  and  N_3 
REMARK    2  A    between atoms: N_3  and  C_10 
REMARK    3  A    between atoms: Se_7  and  C_19 
REMARK    4  A    between atoms: C_9  and  C_10 
REMARK    5  A    between atoms: C_10  and  C_11 
REMARK    6  A    between atoms: C_11  and  C_19 
ROOT
HETATM    1  C           1     -21.486 -10.276   0.281  0.00  0.00     0.249 C 
HETATM    2  N           1     -21.784  -9.505  -0.811  0.00  0.00    -0.345 N 
HETATM    3  O           1     -20.814  -9.823   1.176  0.00  0.00    -0.271 OA
HETATM    4  H           1     -22.348  -9.885  -1.560  0.00  0.00     0.163 HD
ENDROOT
BRANCH   1   5
HETATM    5  C           1     -21.999 -11.693   0.366  0.00  0.00     0.274 C 
HETATM    6  C           1     -20.822 -12.658   0.408  0.00  0.00     0.042 C 
HETATM    7  C           1     -19.985 -12.496  -0.854  0.00  0.00     0.003 C 
HETATM    8 Se           1     -21.084 -12.883  -2.416  0.00  0.00     0.000 Se
HETATM    9  C           1     -19.658 -12.559  -3.704  0.00  0.00     0.000 C 
HETATM   10  H           1     -22.271 -11.878  -1.702  0.00  0.00     0.275 HD
HETATM   11  N           1     -22.845 -11.991  -0.836  0.00  0.00    -0.067 N 
HETATM   12  H           1     -23.200 -12.972  -0.778  0.00  0.00     0.275 HD
HETATM   13  H           1     -23.653 -11.329  -0.865  0.00  0.00     0.275 HD
ENDBRANCH   1   5
BRANCH   2  14
HETATM   14  C           1     -21.292  -8.143  -0.892  0.00  0.00     0.185 C 
BRANCH  14  15
HETATM   15  C           1     -22.436  -7.182  -0.682  0.00  0.00     0.196 C 
HETATM   16  O           1     -22.475  -6.107  -1.319  0.00  0.00    -0.646 OA
HETATM   17  O           1     -23.345  -7.460   0.131  0.00  0.00    -0.646 OA
ENDBRANCH  14  15
BRANCH  14  18
HETATM   18  C           1     -20.677  -7.908  -2.265  0.00  0.00     0.036 C 
BRANCH  18  19
HETATM   19  C           1     -21.151  -8.990  -3.227  0.00  0.00     0.003 C 
BRANCH  19  20
HETATM   20 Se           1     -21.205  -8.273  -5.038  0.00  0.00     0.000 Se
HETATM   21  C           1     -21.105  -6.408  -4.478  0.00  0.00     0.000 C 
ENDBRANCH  19  20
ENDBRANCH  18  19
ENDBRANCH  14  18
ENDBRANCH   2  14
TORSDOF 6
ENDMDL
MODEL 7
REMARK VINA RESULT:      -4.6     17.074     18.632
REMARK  6 active torsions:
REMARK  status: ('A' for Active; 'I' for Inactive)
REMARK    1  A    between atoms: C_1  and  C_2 
REMARK       I    between atoms: C_2  and  N_3 
REMARK    2  A    between atoms: N_3  and  C_10 
REMARK    3  A    between atoms: Se_7  and  C_19 
REMARK    4  A    between atoms: C_9  and  C_10 
REMARK    5  A    between atoms: C_10  and  C_11 
REMARK    6  A    between atoms: C_11  and  C_19 
ROOT
HETATM    1  C           1     -21.509  -8.892  -1.049  0.00  0.00     0.249 C 
HETATM    2  N           1     -21.620  -8.715  -2.402  0.00  0.00    -0.345 N 
HETATM    3  O           1     -20.852  -8.122  -0.391  0.00  0.00    -0.271 OA
HETATM    4  H           1     -22.172  -9.360  -2.953  0.00  0.00     0.163 HD
ENDROOT
BRANCH   1   5
HETATM    5  C           1     -22.210 -10.049  -0.379  0.00  0.00     0.274 C 
HETATM    6  C           1     -21.198 -10.868   0.409  0.00  0.00     0.042 C 
HETATM    7  C           1     -20.127 -11.401  -0.534  0.00  0.00     0.003 C 
HETATM    8 Se           1     -20.958 -12.528  -1.890  0.00  0.00     0.000 Se
HETATM    9  C           1     -19.288 -12.944  -2.802  0.00  0.00     0.000 C 
HETATM   10  H           1     -22.114 -11.280  -2.071  0.00  0.00     0.275 HD
HETATM   11  N           1     -22.849 -10.916  -1.423  0.00  0.00    -0.067 N 
HETATM   12  H           1     -23.335 -11.718  -0.960  0.00  0.00     0.275 HD
HETATM   13  H           1     -23.545 -10.354  -1.964  0.00  0.00     0.275 HD
ENDBRANCH   1   5
BRANCH   2  14
HETATM   14  C           1     -20.947  -7.603  -3.045  0.00  0.00     0.185 C 
BRANCH  14  15
HETATM   15  C           1     -21.923  -6.467  -3.235  0.00  0.00     0.196 C 
HETATM   16  O           1     -22.328  -5.819  -2.245  0.00  0.00    -0.646 OA
HETATM   17  O           1     -22.327  -6.174  -4.381  0.00  0.00    -0.646 OA
ENDBRANCH  14  15
BRANCH  14  18
HETATM   18  C           1     -20.416  -8.048  -4.401  0.00  0.00     0.036 C 
BRANCH  18  19
HETATM   19  C           1     -20.077  -9.532  -4.352  0.00  0.00     0.003 C 
BRANCH  19  20
HETATM   20 Se           1     -18.176  -9.778  -4.704  0.00  0.00     0.000 Se
HETATM   21  C           1     -17.629  -9.487  -2.857  0.00  0.00     0.000 C 
ENDBRANCH  19  20
ENDBRANCH  18  19
ENDBRANCH  14  18
ENDBRANCH   2  14
TORSDOF 6
ENDMDL
MODEL 8
REMARK VINA RESULT:      -4.5     16.400     17.755
REMARK  6 active torsions:
REMARK  status: ('A' for Active; 'I' for Inactive)
REMARK    1  A    between atoms: C_1  and  C_2 
REMARK       I    between atoms: C_2  and  N_3 
REMARK    2  A    between atoms: N_3  and  C_10 
REMARK    3  A    between atoms: Se_7  and  C_19 
REMARK    4  A    between atoms: C_9  and  C_10 
REMARK    5  A    between atoms: C_10  and  C_11 
REMARK    6  A    between atoms: C_11  and  C_19 
ROOT
HETATM    1  C           1     -20.717  -8.284  -1.676  0.00  0.00     0.249 C 
HETATM    2  N           1     -21.548  -8.162  -2.758  0.00  0.00    -0.345 N 
HETATM    3  O           1     -19.544  -8.524  -1.840  0.00  0.00    -0.271 OA
HETATM    4  H           1     -22.530  -7.960  -2.621  0.00  0.00     0.163 HD
ENDROOT
BRANCH   1   5
HETATM    5  C           1     -21.265  -8.118  -0.280  0.00  0.00     0.274 C 
HETATM    6  C           1     -20.968  -9.368   0.535  0.00  0.00     0.042 C 
HETATM    7  C           1     -21.621 -10.575  -0.126  0.00  0.00     0.003 C 
HETATM    8 Se           1     -23.549 -10.303  -0.215  0.00  0.00     0.000 Se
HETATM    9  C           1     -23.914 -12.007  -1.086  0.00  0.00     0.000 C 
HETATM   10  H           1     -23.197  -8.736  -0.804  0.00  0.00     0.275 HD
HETATM   11  N           1     -22.749  -7.908  -0.349  0.00  0.00    -0.067 N 
HETATM   12  H           1     -23.130  -7.793   0.617  0.00  0.00     0.275 HD
HETATM   13  H           1     -22.954  -7.049  -0.908  0.00  0.00     0.275 HD
ENDBRANCH   1   5
BRANCH   2  14
HETATM   14  C           1     -21.021  -8.321  -4.099  0.00  0.00     0.185 C 
BRANCH  14  15
HETATM   15  C           1     -21.609  -7.262  -4.999  0.00  0.00     0.196 C 
HETATM   16  O           1     -21.322  -7.246  -6.216  0.00  0.00    -0.646 OA
HETATM   17  O           1     -22.382  -6.400  -4.528  0.00  0.00    -0.646 OA
ENDBRANCH  14  15
BRANCH  14  18
HETATM   18  C           1     -21.390  -9.700  -4.628  0.00  0.00     0.036 C 
BRANCH  18  19
HETATM   19  C           1     -20.157 -10.594  -4.622  0.00  0.00     0.003 C 
BRANCH  19  20
HETATM   20 Se           1     -18.607  -9.570  -5.213  0.00  0.00     0.000 Se
HETATM   21  C           1     -17.835 -11.028  -6.251  0.00  0.00     0.000 C 
ENDBRANCH  19  20
ENDBRANCH  18  19
ENDBRANCH  14  18
ENDBRANCH   2  14
TORSDOF 6
ENDMDL
MODEL 9
REMARK VINA RESULT:      -4.5     19.813     21.312
REMARK  6 active torsions:
REMARK  status: ('A' for Active; 'I' for Inactive)
REMARK    1  A    between atoms: C_1  and  C_2 
REMARK       I    between atoms: C_2  and  N_3 
REMARK    2  A    between atoms: N_3  and  C_10 
REMARK    3  A    between atoms: Se_7  and  C_19 
REMARK    4  A    between atoms: C_9  and  C_10 
REMARK    5  A    between atoms: C_10  and  C_11 
REMARK    6  A    between atoms: C_11  and  C_19 
ROOT
HETATM    1  C           1     -12.299   7.714 -22.026  0.00  0.00     0.249 C 
HETATM    2  N           1     -11.112   7.069 -21.801  0.00  0.00    -0.345 N 
HETATM    3  O           1     -13.329   7.252 -21.597  0.00  0.00    -0.271 OA
HETATM    4  H           1     -10.249   7.457 -22.160  0.00  0.00     0.163 HD
ENDROOT
BRANCH   1   5
HETATM    5  C           1     -12.320   9.004 -22.810  0.00  0.00     0.274 C 
HETATM    6  C           1     -11.453  10.040 -22.107  0.00  0.00     0.042 C 
HETATM    7  C           1     -11.993  10.289 -20.705  0.00  0.00     0.003 C 
HETATM    8 Se           1     -13.824  10.947 -20.821  0.00  0.00     0.000 Se
HETATM    9  C           1     -14.062  11.107 -18.894  0.00  0.00     0.000 C 
HETATM   10  H           1     -14.099   9.680 -21.936  0.00  0.00     0.275 HD
HETATM   11  N           1     -13.729   9.510 -22.899  0.00  0.00    -0.067 N 
HETATM   12  H           1     -13.745  10.403 -23.441  0.00  0.00     0.275 HD
HETATM   13  H           1     -14.324   8.800 -23.382  0.00  0.00     0.275 HD
ENDBRANCH   1   5
BRANCH   2  14
HETATM   14  C           1     -11.092   5.830 -21.048  0.00  0.00     0.185 C 
BRANCH  14  15
HETATM   15  C           1     -10.141   5.965 -19.884  0.00  0.00     0.196 C 
HETATM   16  O           1     -10.568   5.863 -18.713  0.00  0.00    -0.646 OA
HETATM   17  O           1      -8.927   6.181 -20.090  0.00  0.00    -0.646 OA
ENDBRANCH  14  15
BRANCH  14  18
HETATM   18  C           1     -10.630   4.695 -21.952  0.00  0.00     0.036 C 
BRANCH  18  19
HETATM   19  C           1     -11.816   4.163 -22.746  0.00  0.00     0.003 C 
BRANCH  19  20
HETATM   20 Se           1     -13.185   3.517 -21.518  0.00  0.00     0.000 Se
HETATM   21  C           1     -14.682   4.117 -22.612  0.00  0.00     0.000 C 
ENDBRANCH  19  20
ENDBRANCH  18  19
ENDBRANCH  14  18
ENDBRANCH   2  14
TORSDOF 6
ENDMDL
