MODEL 1
REMARK VINA RESULT:      -7.9      0.000      0.000
REMARK  8 active torsions:
REMARK  status: ('A' for Active; 'I' for Inactive)
REMARK    1  A    between atoms: C_4  and  C_10 
REMARK    2  A    between atoms: C_10  and  C_25 
REMARK    3  A    between atoms: C_10  and  N_20 
REMARK    4  A    between atoms: S_12  and  C_25 
REMARK    5  A    between atoms: N_15  and  C_26 
REMARK       I    between atoms: N_20  and  C_21 
REMARK    6  A    between atoms: C_21  and  C_26 
REMARK    7  A    between atoms: C_23  and  C_24 
REMARK    8  A    between atoms: C_24  and  C_26 
ROOT
HETATM    1  C           1     -21.234  -5.853  -7.003  0.00  0.00     0.278 C 
ENDROOT
BRANCH   1   2
HETATM    2  N           1     -19.857  -6.109  -7.540  0.00  0.00    -0.066 N 
HETATM    3  H           1     -19.148  -5.844  -6.819  0.00  0.00     0.275 HD
HETATM    4  H           1     -19.709  -5.536  -8.402  0.00  0.00     0.275 HD
HETATM    5  H           1     -19.757  -7.122  -7.773  0.00  0.00     0.275 HD
ENDBRANCH   1   2
BRANCH   1   6
HETATM    6  C           1     -21.836  -4.663  -7.709  0.00  0.00     0.249 C 
HETATM    7  O           1     -21.941  -3.607  -7.132  0.00  0.00    -0.271 OA
HETATM    8  N           1     -22.263  -4.780  -9.005  0.00  0.00    -0.344 N 
HETATM    9  H           1     -22.175  -5.664  -9.489  0.00  0.00     0.163 HD
BRANCH   8  10
HETATM   10  C           1     -22.842  -3.637  -9.683  0.00  0.00     0.194 C 
BRANCH  10  11
HETATM   11  C           1     -24.254  -3.963 -10.103  0.00  0.00     0.197 C 
HETATM   12  O           1     -24.930  -3.120 -10.731  0.00  0.00    -0.646 OA
HETATM   13  O           1     -24.748  -5.077  -9.823  0.00  0.00    -0.646 OA
ENDBRANCH  10  11
BRANCH  10  14
HETATM   14  C           1     -22.011  -3.303 -10.916  0.00  0.00     0.106 C 
BRANCH  14  15
HETATM   15  S           1     -20.494  -4.299 -10.912  0.00  0.00    -0.180 SA
HETATM   16  H           1     -19.810  -3.510 -10.064  0.00  0.00     0.101 HD
ENDBRANCH  14  15
ENDBRANCH  10  14
ENDBRANCH   8  10
ENDBRANCH   1   6
BRANCH   1  17
HETATM   17  C           1     -21.151  -5.568  -5.509  0.00  0.00     0.083 C 
BRANCH  17  18
HETATM   18  C           1     -21.184  -6.859  -4.752  0.00  0.00    -0.028 A 
HETATM   19  C           1     -20.870  -8.101  -5.253  0.00  0.00     0.096 A 
HETATM   20  N           1     -21.028  -9.013  -4.242  0.00  0.00    -0.365 N 
HETATM   21  H           1     -20.859 -10.045  -4.331  0.00  0.00     0.165 HD
HETATM   22  C           1     -21.440  -8.380  -3.091  0.00  0.00     0.042 A 
HETATM   23  C           1     -21.723  -8.902  -1.823  0.00  0.00     0.030 A 
HETATM   24  C           1     -21.546  -7.021  -3.385  0.00  0.00    -0.002 A 
HETATM   25  C           1     -22.129  -8.005  -0.829  0.00  0.00     0.002 A 
HETATM   26  C           1     -22.243  -6.642  -1.096  0.00  0.00     0.001 A 
HETATM   27  C           1     -21.956  -6.136  -2.369  0.00  0.00     0.014 A 
ENDBRANCH  17  18
ENDBRANCH   1  17
TORSDOF 8
ENDMDL
MODEL 2
REMARK VINA RESULT:      -7.3      3.973      7.528
REMARK  8 active torsions:
REMARK  status: ('A' for Active; 'I' for Inactive)
REMARK    1  A    between atoms: C_4  and  C_10 
REMARK    2  A    between atoms: C_10  and  C_25 
REMARK    3  A    between atoms: C_10  and  N_20 
REMARK    4  A    between atoms: S_12  and  C_25 
REMARK    5  A    between atoms: N_15  and  C_26 
REMARK       I    between atoms: N_20  and  C_21 
REMARK    6  A    between atoms: C_21  and  C_26 
REMARK    7  A    between atoms: C_23  and  C_24 
REMARK    8  A    between atoms: C_24  and  C_26 
ROOT
HETATM    1  C           1     -21.655  -6.428  -5.314  0.00  0.00     0.278 C 
ENDROOT
BRANCH   1   2
HETATM    2  N           1     -21.814  -5.982  -3.890  0.00  0.00    -0.066 N 
HETATM    3  H           1     -21.372  -6.684  -3.255  0.00  0.00     0.275 HD
HETATM    4  H           1     -22.831  -5.897  -3.664  0.00  0.00     0.275 HD
HETATM    5  H           1     -21.350  -5.055  -3.762  0.00  0.00     0.275 HD
ENDBRANCH   1   2
BRANCH   1   6
HETATM    6  C           1     -20.848  -7.702  -5.355  0.00  0.00     0.249 C 
HETATM    7  O           1     -19.841  -7.759  -6.019  0.00  0.00    -0.271 OA
HETATM    8  N           1     -21.258  -8.795  -4.638  0.00  0.00    -0.344 N 
HETATM    9  H           1     -22.101  -8.747  -4.080  0.00  0.00     0.163 HD
BRANCH   8  10
HETATM   10  C           1     -20.483 -10.020  -4.677  0.00  0.00     0.194 C 
BRANCH  10  11
HETATM   11  C           1     -21.199 -11.040  -5.528  0.00  0.00     0.197 C 
HETATM   12  O           1     -20.853 -11.216  -6.716  0.00  0.00    -0.646 OA
HETATM   13  O           1     -22.138 -11.709  -5.044  0.00  0.00    -0.646 OA
ENDBRANCH  10  11
BRANCH  10  14
HETATM   14  C           1     -20.319 -10.564  -3.263  0.00  0.00     0.106 C 
BRANCH  14  15
HETATM   15  S           1     -21.374  -9.621  -2.126  0.00  0.00    -0.180 SA
HETATM   16  H           1     -21.439  -8.511  -2.882  0.00  0.00     0.101 HD
ENDBRANCH  14  15
ENDBRANCH  10  14
ENDBRANCH   8  10
ENDBRANCH   1   6
BRANCH   1  17
HETATM   17  C           1     -20.935  -5.346  -6.106  0.00  0.00     0.083 C 
BRANCH  17  18
HETATM   18  C           1     -21.844  -4.820  -7.174  0.00  0.00    -0.028 A 
HETATM   19  C           1     -23.177  -4.516  -7.026  0.00  0.00     0.096 A 
HETATM   20  N           1     -23.641  -4.066  -8.235  0.00  0.00    -0.365 N 
HETATM   21  H           1     -24.627  -3.759  -8.424  0.00  0.00     0.165 HD
HETATM   22  C           1     -22.627  -4.074  -9.166  0.00  0.00     0.042 A 
HETATM   23  C           1     -22.635  -3.703 -10.516  0.00  0.00     0.030 A 
HETATM   24  C           1     -21.483  -4.545  -8.522  0.00  0.00    -0.002 A 
HETATM   25  C           1     -21.436  -3.819 -11.226  0.00  0.00     0.002 A 
HETATM   26  C           1     -20.278  -4.287 -10.609  0.00  0.00     0.001 A 
HETATM   27  C           1     -20.287  -4.653  -9.258  0.00  0.00     0.014 A 
ENDBRANCH  17  18
ENDBRANCH   1  17
TORSDOF 8
ENDMDL
MODEL 3
REMARK VINA RESULT:      -6.9      3.842      7.766
REMARK  8 active torsions:
REMARK  status: ('A' for Active; 'I' for Inactive)
REMARK    1  A    between atoms: C_4  and  C_10 
REMARK    2  A    between atoms: C_10  and  C_25 
REMARK    3  A    between atoms: C_10  and  N_20 
REMARK    4  A    between atoms: S_12  and  C_25 
REMARK    5  A    between atoms: N_15  and  C_26 
REMARK       I    between atoms: N_20  and  C_21 
REMARK    6  A    between atoms: C_21  and  C_26 
REMARK    7  A    between atoms: C_23  and  C_24 
REMARK    8  A    between atoms: C_24  and  C_26 
ROOT
HETATM    1  C           1     -21.469  -6.338  -5.296  0.00  0.00     0.278 C 
ENDROOT
BRANCH   1   2
HETATM    2  N           1     -21.263  -5.680  -3.964  0.00  0.00    -0.066 N 
HETATM    3  H           1     -22.100  -5.846  -3.360  0.00  0.00     0.275 HD
HETATM    4  H           1     -21.130  -4.651  -4.101  0.00  0.00     0.275 HD
HETATM    5  H           1     -20.416  -6.081  -3.503  0.00  0.00     0.275 HD
ENDBRANCH   1   2
BRANCH   1   6
HETATM    6  C           1     -20.946  -7.752  -5.244  0.00  0.00     0.249 C 
HETATM    7  O           1     -21.226  -8.533  -6.121  0.00  0.00    -0.271 OA
HETATM    8  N           1     -20.152  -8.150  -4.201  0.00  0.00    -0.344 N 
HETATM    9  H           1     -19.916  -7.496  -3.466  0.00  0.00     0.163 HD
BRANCH   8  10
HETATM   10  C           1     -19.649  -9.509  -4.150  0.00  0.00     0.194 C 
BRANCH  10  11
HETATM   11  C           1     -20.511 -10.330  -3.221  0.00  0.00     0.197 C 
HETATM   12  O           1     -21.135  -9.772  -2.293  0.00  0.00    -0.646 OA
HETATM   13  O           1     -20.599 -11.567  -3.378  0.00  0.00    -0.646 OA
ENDBRANCH  10  11
BRANCH  10  14
HETATM   14  C           1     -18.215  -9.502  -3.638  0.00  0.00     0.106 C 
BRANCH  14  15
HETATM   15  S           1     -17.223 -10.682  -4.596  0.00  0.00    -0.180 SA
HETATM   16  H           1     -16.308  -9.790  -5.013  0.00  0.00     0.101 HD
ENDBRANCH  14  15
ENDBRANCH  10  14
ENDBRANCH   8  10
ENDBRANCH   1   6
BRANCH   1  17
HETATM   17  C           1     -20.719  -5.558  -6.367  0.00  0.00     0.083 C 
BRANCH  17  18
HETATM   18  C           1     -21.702  -4.930  -7.307  0.00  0.00    -0.028 A 
HETATM   19  C           1     -23.012  -4.623  -7.024  0.00  0.00     0.096 A 
HETATM   20  N           1     -23.564  -4.064  -8.148  0.00  0.00    -0.365 N 
HETATM   21  H           1     -24.555  -3.729  -8.227  0.00  0.00     0.165 HD
HETATM   22  C           1     -22.629  -4.004  -9.157  0.00  0.00     0.042 A 
HETATM   23  C           1     -22.740  -3.517 -10.464  0.00  0.00     0.030 A 
HETATM   24  C           1     -21.446  -4.544  -8.652  0.00  0.00    -0.002 A 
HETATM   25  C           1     -21.605  -3.587 -11.279  0.00  0.00     0.002 A 
HETATM   26  C           1     -20.410  -4.121 -10.802  0.00  0.00     0.001 A 
HETATM   27  C           1     -20.316  -4.604  -9.491  0.00  0.00     0.014 A 
ENDBRANCH  17  18
ENDBRANCH   1  17
TORSDOF 8
ENDMDL
MODEL 4
REMARK VINA RESULT:      -6.9      3.488      7.508
REMARK  8 active torsions:
REMARK  status: ('A' for Active; 'I' for Inactive)
REMARK    1  A    between atoms: C_4  and  C_10 
REMARK    2  A    between atoms: C_10  and  C_25 
REMARK    3  A    between atoms: C_10  and  N_20 
REMARK    4  A    between atoms: S_12  and  C_25 
REMARK    5  A    between atoms: N_15  and  C_26 
REMARK       I    between atoms: N_20  and  C_21 
REMARK    6  A    between atoms: C_21  and  C_26 
REMARK    7  A    between atoms: C_23  and  C_24 
REMARK    8  A    between atoms: C_24  and  C_26 
ROOT
HETATM    1  C           1     -20.181  -6.092  -5.809  0.00  0.00     0.278 C 
ENDROOT
BRANCH   1   2
HETATM    2  N           1     -20.314  -6.678  -7.184  0.00  0.00    -0.066 N 
HETATM    3  H           1     -21.321  -6.679  -7.465  0.00  0.00     0.275 HD
HETATM    4  H           1     -19.950  -7.658  -7.181  0.00  0.00     0.275 HD
HETATM    5  H           1     -19.763  -6.105  -7.862  0.00  0.00     0.275 HD
ENDBRANCH   1   2
BRANCH   1   6
HETATM    6  C           1     -20.999  -6.904  -4.836  0.00  0.00     0.249 C 
HETATM    7  O           1     -21.927  -7.567  -5.232  0.00  0.00    -0.271 OA
HETATM    8  N           1     -20.689  -6.889  -3.502  0.00  0.00    -0.344 N 
HETATM    9  H           1     -19.911  -6.334  -3.170  0.00  0.00     0.163 HD
BRANCH   8  10
HETATM   10  C           1     -21.476  -7.669  -2.566  0.00  0.00     0.194 C 
BRANCH  10  11
HETATM   11  C           1     -22.178  -6.741  -1.604  0.00  0.00     0.197 C 
HETATM   12  O           1     -22.536  -7.159  -0.483  0.00  0.00    -0.646 OA
HETATM   13  O           1     -22.401  -5.555  -1.930  0.00  0.00    -0.646 OA
ENDBRANCH  10  11
BRANCH  10  14
HETATM   14  C           1     -20.559  -8.606  -1.789  0.00  0.00     0.106 C 
BRANCH  14  15
HETATM   15  S           1     -21.183 -10.305  -1.916  0.00  0.00    -0.180 SA
HETATM   16  H           1     -22.484  -9.973  -1.983  0.00  0.00     0.101 HD
ENDBRANCH  14  15
ENDBRANCH  10  14
ENDBRANCH   8  10
ENDBRANCH   1   6
BRANCH   1  17
HETATM   17  C           1     -20.684  -4.655  -5.820  0.00  0.00     0.083 C 
BRANCH  17  18
HETATM   18  C           1     -21.694  -4.488  -6.913  0.00  0.00    -0.028 A 
HETATM   19  C           1     -23.060  -4.571  -6.774  0.00  0.00     0.096 A 
HETATM   20  N           1     -23.621  -4.358  -8.006  0.00  0.00    -0.365 N 
HETATM   21  H           1     -24.651  -4.362  -8.206  0.00  0.00     0.165 HD
HETATM   22  C           1     -22.637  -4.137  -8.944  0.00  0.00     0.042 A 
HETATM   23  C           1     -22.738  -3.877 -10.316  0.00  0.00     0.030 A 
HETATM   24  C           1     -21.413  -4.213  -8.280  0.00  0.00    -0.002 A 
HETATM   25  C           1     -21.548  -3.691 -11.028  0.00  0.00     0.002 A 
HETATM   26  C           1     -20.311  -3.761 -10.391  0.00  0.00     0.001 A 
HETATM   27  C           1     -20.228  -4.022  -9.018  0.00  0.00     0.014 A 
ENDBRANCH  17  18
ENDBRANCH   1  17
TORSDOF 8
ENDMDL
MODEL 5
REMARK VINA RESULT:      -6.8      2.055      3.264
REMARK  8 active torsions:
REMARK  status: ('A' for Active; 'I' for Inactive)
REMARK    1  A    between atoms: C_4  and  C_10 
REMARK    2  A    between atoms: C_10  and  C_25 
REMARK    3  A    between atoms: C_10  and  N_20 
REMARK    4  A    between atoms: S_12  and  C_25 
REMARK    5  A    between atoms: N_15  and  C_26 
REMARK       I    between atoms: N_20  and  C_21 
REMARK    6  A    between atoms: C_21  and  C_26 
REMARK    7  A    between atoms: C_23  and  C_24 
REMARK    8  A    between atoms: C_24  and  C_26 
ROOT
HETATM    1  C           1     -21.245  -7.751  -5.445  0.00  0.00     0.278 C 
ENDROOT
BRANCH   1   2
HETATM    2  N           1     -21.228  -9.178  -5.911  0.00  0.00    -0.066 N 
HETATM    3  H           1     -22.205  -9.546  -5.941  0.00  0.00     0.275 HD
HETATM    4  H           1     -20.658  -9.752  -5.248  0.00  0.00     0.275 HD
HETATM    5  H           1     -20.806  -9.228  -6.865  0.00  0.00     0.275 HD
ENDBRANCH   1   2
BRANCH   1   6
HETATM    6  C           1     -20.761  -6.854  -6.557  0.00  0.00     0.249 C 
HETATM    7  O           1     -19.603  -6.883  -6.897  0.00  0.00    -0.271 OA
HETATM    8  N           1     -21.636  -6.005  -7.181  0.00  0.00    -0.344 N 
HETATM    9  H           1     -22.607  -5.981  -6.898  0.00  0.00     0.163 HD
BRANCH   8  10
HETATM   10  C           1     -21.171  -5.142  -8.250  0.00  0.00     0.194 C 
BRANCH  10  11
HETATM   11  C           1     -20.564  -3.893  -7.659  0.00  0.00     0.197 C 
HETATM   12  O           1     -21.257  -3.142  -6.939  0.00  0.00    -0.646 OA
HETATM   13  O           1     -19.368  -3.609  -7.890  0.00  0.00    -0.646 OA
ENDBRANCH  10  11
BRANCH  10  14
HETATM   14  C           1     -22.344  -4.761  -9.144  0.00  0.00     0.106 C 
BRANCH  14  15
HETATM   15  S           1     -21.720  -4.050 -10.693  0.00  0.00    -0.180 SA
HETATM   16  H           1     -21.369  -5.221 -11.253  0.00  0.00     0.101 HD
ENDBRANCH  14  15
ENDBRANCH  10  14
ENDBRANCH   8  10
ENDBRANCH   1   6
BRANCH   1  17
HETATM   17  C           1     -20.331  -7.602  -4.237  0.00  0.00     0.083 C 
BRANCH  17  18
HETATM   18  C           1     -21.129  -7.129  -3.062  0.00  0.00    -0.028 A 
HETATM   19  C           1     -21.541  -5.837  -2.828  0.00  0.00     0.096 A 
HETATM   20  N           1     -22.243  -5.828  -1.651  0.00  0.00    -0.365 N 
HETATM   21  H           1     -22.680  -4.977  -1.219  0.00  0.00     0.165 HD
HETATM   22  C           1     -22.293  -7.095  -1.116  0.00  0.00     0.042 A 
HETATM   23  C           1     -22.895  -7.559   0.059  0.00  0.00     0.030 A 
HETATM   24  C           1     -21.598  -7.935  -1.987  0.00  0.00    -0.002 A 
HETATM   25  C           1     -22.780  -8.922   0.352  0.00  0.00     0.002 A 
HETATM   26  C           1     -22.092  -9.783  -0.500  0.00  0.00     0.001 A 
HETATM   27  C           1     -21.495  -9.304  -1.672  0.00  0.00     0.014 A 
ENDBRANCH  17  18
ENDBRANCH   1  17
TORSDOF 8
ENDMDL
MODEL 6
REMARK VINA RESULT:      -6.6      2.051      3.106
REMARK  8 active torsions:
REMARK  status: ('A' for Active; 'I' for Inactive)
REMARK    1  A    between atoms: C_4  and  C_10 
REMARK    2  A    between atoms: C_10  and  C_25 
REMARK    3  A    between atoms: C_10  and  N_20 
REMARK    4  A    between atoms: S_12  and  C_25 
REMARK    5  A    between atoms: N_15  and  C_26 
REMARK       I    between atoms: N_20  and  C_21 
REMARK    6  A    between atoms: C_21  and  C_26 
REMARK    7  A    between atoms: C_23  and  C_24 
REMARK    8  A    between atoms: C_24  and  C_26 
ROOT
HETATM    1  C           1     -21.813  -7.556  -5.002  0.00  0.00     0.278 C 
ENDROOT
BRANCH   1   2
HETATM    2  N           1     -21.289  -8.458  -6.080  0.00  0.00    -0.066 N 
HETATM    3  H           1     -21.166  -9.423  -5.697  0.00  0.00     0.275 HD
HETATM    4  H           1     -20.368  -8.096  -6.418  0.00  0.00     0.275 HD
HETATM    5  H           1     -21.966  -8.482  -6.875  0.00  0.00     0.275 HD
ENDBRANCH   1   2
BRANCH   1   6
HETATM    6  C           1     -22.266  -6.253  -5.614  0.00  0.00     0.249 C 
HETATM    7  O           1     -23.341  -5.788  -5.318  0.00  0.00    -0.271 OA
HETATM    8  N           1     -21.459  -5.598  -6.505  0.00  0.00    -0.344 N 
HETATM    9  H           1     -20.558  -5.988  -6.753  0.00  0.00     0.163 HD
BRANCH   8  10
HETATM   10  C           1     -21.894  -4.347  -7.093  0.00  0.00     0.194 C 
BRANCH  10  11
HETATM   11  C           1     -22.660  -4.628  -8.364  0.00  0.00     0.197 C 
HETATM   12  O           1     -22.105  -5.232  -9.307  0.00  0.00    -0.646 OA
HETATM   13  O           1     -23.848  -4.255  -8.473  0.00  0.00    -0.646 OA
ENDBRANCH  10  11
BRANCH  10  14
HETATM   14  C           1     -20.679  -3.485  -7.414  0.00  0.00     0.106 C 
BRANCH  14  15
HETATM   15  S           1     -19.187  -4.518  -7.409  0.00  0.00    -0.180 SA
HETATM   16  H           1     -19.832  -5.697  -7.447  0.00  0.00     0.101 HD
ENDBRANCH  14  15
ENDBRANCH  10  14
ENDBRANCH   8  10
ENDBRANCH   1   6
BRANCH   1  17
HETATM   17  C           1     -20.711  -7.285  -3.988  0.00  0.00     0.083 C 
BRANCH  17  18
HETATM   18  C           1     -21.291  -7.287  -2.607  0.00  0.00    -0.028 A 
HETATM   19  C           1     -22.072  -6.299  -2.054  0.00  0.00     0.096 A 
HETATM   20  N           1     -22.395  -6.685  -0.779  0.00  0.00    -0.365 N 
HETATM   21  H           1     -22.985  -6.127  -0.114  0.00  0.00     0.165 HD
HETATM   22  C           1     -21.834  -7.910  -0.496  0.00  0.00     0.042 A 
HETATM   23  C           1     -21.895  -8.687   0.667  0.00  0.00     0.030 A 
HETATM   24  C           1     -21.133  -8.313  -1.633  0.00  0.00    -0.002 A 
HETATM   25  C           1     -21.216  -9.910   0.665  0.00  0.00     0.002 A 
HETATM   26  C           1     -20.508 -10.336  -0.456  0.00  0.00     0.001 A 
HETATM   27  C           1     -20.457  -9.548  -1.612  0.00  0.00     0.014 A 
ENDBRANCH  17  18
ENDBRANCH   1  17
TORSDOF 8
ENDMDL
MODEL 7
REMARK VINA RESULT:      -6.4      3.898      7.749
REMARK  8 active torsions:
REMARK  status: ('A' for Active; 'I' for Inactive)
REMARK    1  A    between atoms: C_4  and  C_10 
REMARK    2  A    between atoms: C_10  and  C_25 
REMARK    3  A    between atoms: C_10  and  N_20 
REMARK    4  A    between atoms: S_12  and  C_25 
REMARK    5  A    between atoms: N_15  and  C_26 
REMARK       I    between atoms: N_20  and  C_21 
REMARK    6  A    between atoms: C_21  and  C_26 
REMARK    7  A    between atoms: C_23  and  C_24 
REMARK    8  A    between atoms: C_24  and  C_26 
ROOT
HETATM    1  C           1     -20.438  -6.267  -5.462  0.00  0.00     0.278 C 
ENDROOT
BRANCH   1   2
HETATM    2  N           1     -20.820  -7.105  -6.647  0.00  0.00    -0.066 N 
HETATM    3  H           1     -20.772  -8.116  -6.387  0.00  0.00     0.275 HD
HETATM    4  H           1     -20.159  -6.915  -7.435  0.00  0.00     0.275 HD
HETATM    5  H           1     -21.792  -6.867  -6.944  0.00  0.00     0.275 HD
ENDBRANCH   1   2
BRANCH   1   6
HETATM    6  C           1     -21.100  -6.816  -4.223  0.00  0.00     0.249 C 
HETATM    7  O           1     -21.740  -6.086  -3.505  0.00  0.00    -0.271 OA
HETATM    8  N           1     -20.975  -8.144  -3.912  0.00  0.00    -0.344 N 
HETATM    9  H           1     -20.439  -8.756  -4.513  0.00  0.00     0.163 HD
BRANCH   8  10
HETATM   10  C           1     -21.611  -8.672  -2.721  0.00  0.00     0.194 C 
BRANCH  10  11
HETATM   11  C           1     -20.612  -8.702  -1.589  0.00  0.00     0.197 C 
HETATM   12  O           1     -20.841  -8.068  -0.537  0.00  0.00    -0.646 OA
HETATM   13  O           1     -19.556  -9.361  -1.705  0.00  0.00    -0.646 OA
ENDBRANCH  10  11
BRANCH  10  14
HETATM   14  C           1     -22.110 -10.085  -2.994  0.00  0.00     0.106 C 
BRANCH  14  15
HETATM   15  S           1     -22.881 -10.757  -1.495  0.00  0.00    -0.180 SA
HETATM   16  H           1     -23.901 -11.367  -2.123  0.00  0.00     0.101 HD
ENDBRANCH  14  15
ENDBRANCH  10  14
ENDBRANCH   8  10
ENDBRANCH   1   6
BRANCH   1  17
HETATM   17  C           1     -20.895  -4.832  -5.689  0.00  0.00     0.083 C 
BRANCH  17  18
HETATM   18  C           1     -20.743  -4.483  -7.137  0.00  0.00    -0.028 A 
HETATM   19  C           1     -19.556  -4.340  -7.817  0.00  0.00     0.096 A 
HETATM   20  N           1     -19.853  -4.018  -9.116  0.00  0.00    -0.365 N 
HETATM   21  H           1     -19.143  -3.849  -9.870  0.00  0.00     0.165 HD
HETATM   22  C           1     -21.217  -3.951  -9.289  0.00  0.00     0.042 A 
HETATM   23  C           1     -21.970  -3.660 -10.433  0.00  0.00     0.030 A 
HETATM   24  C           1     -21.802  -4.240  -8.057  0.00  0.00    -0.002 A 
HETATM   25  C           1     -23.363  -3.664 -10.308  0.00  0.00     0.002 A 
HETATM   26  C           1     -23.975  -3.949  -9.089  0.00  0.00     0.001 A 
HETATM   27  C           1     -23.206  -4.239  -7.955  0.00  0.00     0.014 A 
ENDBRANCH  17  18
ENDBRANCH   1  17
TORSDOF 8
ENDMDL
MODEL 8
REMARK VINA RESULT:      -6.4      2.021      3.123
REMARK  8 active torsions:
REMARK  status: ('A' for Active; 'I' for Inactive)
REMARK    1  A    between atoms: C_4  and  C_10 
REMARK    2  A    between atoms: C_10  and  C_25 
REMARK    3  A    between atoms: C_10  and  N_20 
REMARK    4  A    between atoms: S_12  and  C_25 
REMARK    5  A    between atoms: N_15  and  C_26 
REMARK       I    between atoms: N_20  and  C_21 
REMARK    6  A    between atoms: C_21  and  C_26 
REMARK    7  A    between atoms: C_23  and  C_24 
REMARK    8  A    between atoms: C_24  and  C_26 
ROOT
HETATM    1  C           1     -21.031  -8.179  -4.765  0.00  0.00     0.278 C 
ENDROOT
BRANCH   1   2
HETATM    2  N           1     -21.110  -9.134  -5.920  0.00  0.00    -0.066 N 
HETATM    3  H           1     -20.196  -9.143  -6.426  0.00  0.00     0.275 HD
HETATM    4  H           1     -21.868  -8.828  -6.572  0.00  0.00     0.275 HD
HETATM    5  H           1     -21.323 -10.093  -5.566  0.00  0.00     0.275 HD
ENDBRANCH   1   2
BRANCH   1   6
HETATM    6  C           1     -21.044  -6.762  -5.282  0.00  0.00     0.249 C 
HETATM    7  O           1     -20.809  -5.843  -4.534  0.00  0.00    -0.271 OA
HETATM    8  N           1     -21.323  -6.518  -6.601  0.00  0.00    -0.344 N 
HETATM    9  H           1     -21.519  -7.287  -7.227  0.00  0.00     0.163 HD
BRANCH   8  10
HETATM   10  C           1     -21.336  -5.155  -7.098  0.00  0.00     0.194 C 
BRANCH  10  11
HETATM   11  C           1     -22.764  -4.695  -7.264  0.00  0.00     0.197 C 
HETATM   12  O           1     -23.585  -4.859  -6.337  0.00  0.00    -0.646 OA
HETATM   13  O           1     -23.124  -4.149  -8.330  0.00  0.00    -0.646 OA
ENDBRANCH  10  11
BRANCH  10  14
HETATM   14  C           1     -20.625  -5.099  -8.444  0.00  0.00     0.106 C 
BRANCH  14  15
HETATM   15  S           1     -19.311  -3.849  -8.383  0.00  0.00    -0.180 SA
HETATM   16  H           1     -18.913  -4.125  -7.128  0.00  0.00     0.101 HD
ENDBRANCH  14  15
ENDBRANCH  10  14
ENDBRANCH   8  10
ENDBRANCH   1   6
BRANCH   1  17
HETATM   17  C           1     -19.743  -8.426  -3.991  0.00  0.00     0.083 C 
BRANCH  17  18
HETATM   18  C           1     -20.065  -9.064  -2.675  0.00  0.00    -0.028 A 
HETATM   19  C           1     -19.591 -10.274  -2.224  0.00  0.00     0.096 A 
HETATM   20  N           1     -20.122 -10.494  -0.979  0.00  0.00    -0.365 N 
HETATM   21  H           1     -19.935 -11.340  -0.388  0.00  0.00     0.165 HD
HETATM   22  C           1     -20.935  -9.443  -0.616  0.00  0.00     0.042 A 
HETATM   23  C           1     -21.676  -9.235   0.552  0.00  0.00     0.030 A 
HETATM   24  C           1     -20.916  -8.528  -1.669  0.00  0.00    -0.002 A 
HETATM   25  C           1     -22.422  -8.055   0.644  0.00  0.00     0.002 A 
HETATM   26  C           1     -22.422  -7.123  -0.392  0.00  0.00     0.001 A 
HETATM   27  C           1     -21.674  -7.347  -1.554  0.00  0.00     0.014 A 
ENDBRANCH  17  18
ENDBRANCH   1  17
TORSDOF 8
ENDMDL
MODEL 9
REMARK VINA RESULT:      -6.4     13.392     15.031
REMARK  8 active torsions:
REMARK  status: ('A' for Active; 'I' for Inactive)
REMARK    1  A    between atoms: C_4  and  C_10 
REMARK    2  A    between atoms: C_10  and  C_25 
REMARK    3  A    between atoms: C_10  and  N_20 
REMARK    4  A    between atoms: S_12  and  C_25 
REMARK    5  A    between atoms: N_15  and  C_26 
REMARK       I    between atoms: N_20  and  C_21 
REMARK    6  A    between atoms: C_21  and  C_26 
REMARK    7  A    between atoms: C_23  and  C_24 
REMARK    8  A    between atoms: C_24  and  C_26 
ROOT
HETATM    1  C           1     -33.280  -4.488 -16.545  0.00  0.00     0.278 C 
ENDROOT
BRANCH   1   2
HETATM    2  N           1     -33.688  -3.240 -17.272  0.00  0.00    -0.066 N 
HETATM    3  H           1     -34.559  -3.425 -17.818  0.00  0.00     0.275 HD
HETATM    4  H           1     -32.921  -2.951 -17.922  0.00  0.00     0.275 HD
HETATM    5  H           1     -33.864  -2.476 -16.581  0.00  0.00     0.275 HD
ENDBRANCH   1   2
BRANCH   1   6
HETATM    6  C           1     -34.056  -4.595 -15.256  0.00  0.00     0.249 C 
HETATM    7  O           1     -35.107  -5.189 -15.230  0.00  0.00    -0.271 OA
HETATM    8  N           1     -33.569  -4.016 -14.114  0.00  0.00    -0.344 N 
HETATM    9  H           1     -32.688  -3.519 -14.135  0.00  0.00     0.163 HD
BRANCH   8  10
HETATM   10  C           1     -34.315  -4.118 -12.875  0.00  0.00     0.194 C 
BRANCH  10  11
HETATM   11  C           1     -34.924  -2.778 -12.543  0.00  0.00     0.197 C 
HETATM   12  O           1     -34.684  -1.787 -13.266  0.00  0.00    -0.646 OA
HETATM   13  O           1     -35.669  -2.659 -11.546  0.00  0.00    -0.646 OA
ENDBRANCH  10  11
BRANCH  10  14
HETATM   14  C           1     -33.378  -4.541 -11.750  0.00  0.00     0.106 C 
BRANCH  14  15
HETATM   15  S           1     -34.087  -5.962 -10.872  0.00  0.00    -0.180 SA
HETATM   16  H           1     -35.281  -5.927 -11.490  0.00  0.00     0.101 HD
ENDBRANCH  14  15
ENDBRANCH  10  14
ENDBRANCH   8  10
ENDBRANCH   1   6
BRANCH   1  17
HETATM   17  C           1     -31.790  -4.432 -16.238  0.00  0.00     0.083 C 
BRANCH  17  18
HETATM   18  C           1     -31.078  -5.490 -17.023  0.00  0.00    -0.028 A 
HETATM   19  C           1     -31.659  -6.584 -17.622  0.00  0.00     0.096 A 
HETATM   20  N           1     -30.666  -7.302 -18.236  0.00  0.00    -0.365 N 
HETATM   21  H           1     -30.813  -8.190 -18.776  0.00  0.00     0.165 HD
HETATM   22  C           1     -29.448  -6.690 -18.044  0.00  0.00     0.042 A 
HETATM   23  C           1     -28.171  -7.058 -18.483  0.00  0.00     0.030 A 
HETATM   24  C           1     -29.680  -5.544 -17.282  0.00  0.00    -0.002 A 
HETATM   25  C           1     -27.101  -6.229 -18.129  0.00  0.00     0.002 A 
HETATM   26  C           1     -27.304  -5.080 -17.369  0.00  0.00     0.001 A 
HETATM   27  C           1     -28.588  -4.725 -16.938  0.00  0.00     0.014 A 
ENDBRANCH  17  18
ENDBRANCH   1  17
TORSDOF 8
ENDMDL
