MODEL 1
REMARK VINA RESULT:      -7.4      0.000      0.000
REMARK  6 active torsions:
REMARK  status: ('A' for Active; 'I' for Inactive)
REMARK    1  A    between atoms: C_6  and  C_19 
REMARK    2  A    between atoms: C_6  and  C_14 
REMARK    3  A    between atoms: C_9  and  C_21 
REMARK    4  A    between atoms: N_11  and  C_14 
REMARK       I    between atoms: N_11  and  C_21 
REMARK    5  A    between atoms: C_14  and  C_23 
REMARK    6  A    between atoms: C_15  and  O_16 
ROOT
HETATM    1  C           1     -35.186  -1.142 -11.659  0.00  0.00     0.189 C 
ENDROOT
BRANCH   1   2
HETATM    2  C           1     -33.966  -1.733 -10.966  0.00  0.00     0.074 C 
BRANCH   2   3
HETATM    3  C           1     -34.050  -3.228 -10.994  0.00  0.00    -0.056 A 
HETATM    4  C           1     -35.236  -3.866 -10.628  0.00  0.00     0.010 A 
HETATM    5  C           1     -35.314  -5.258 -10.654  0.00  0.00     0.037 A 
HETATM    6  C           1     -34.208  -6.013 -11.046  0.00  0.00     0.065 A 
HETATM    7  C           1     -33.023  -5.374 -11.411  0.00  0.00     0.037 A 
HETATM    8  C           1     -32.944  -3.981 -11.386  0.00  0.00     0.010 A 
BRANCH   6   9
HETATM    9  O           1     -34.284  -7.366 -11.071  0.00  0.00    -0.361 OA
HETATM   10  H           1     -35.193  -7.620 -10.843  0.00  0.00     0.217 HD
ENDBRANCH   6   9
ENDBRANCH   2   3
ENDBRANCH   1   2
BRANCH   1  11
HETATM   11  N           1     -34.826   0.116 -12.282  0.00  0.00    -0.344 N 
HETATM   12  H           1     -34.327   0.819 -11.751  0.00  0.00     0.163 HD
HETATM   13  C           1     -35.160   0.355 -13.587  0.00  0.00     0.251 C 
HETATM   14  O           1     -34.860   1.404 -14.106  0.00  0.00    -0.271 OA
BRANCH  13  15
HETATM   15  C           1     -35.904  -0.692 -14.379  0.00  0.00     0.311 C 
HETATM   16  C           1     -35.825  -0.402 -15.868  0.00  0.00     0.047 C 
HETATM   17  C           1     -37.095   0.377 -16.189  0.00  0.00     0.033 C 
HETATM   18  C           1     -37.837   0.485 -14.868  0.00  0.00     0.271 C 
HETATM   19  N           1     -37.334  -0.643 -14.091  0.00  0.00     0.097 N 
HETATM   20  H           1     -37.795  -1.501 -14.398  0.00  0.00     0.317 HD
ENDBRANCH  13  15
ENDBRANCH   1  11
BRANCH   1  21
HETATM   21  C           1     -36.276  -0.905 -10.643  0.00  0.00     0.197 C 
HETATM   22  O           1     -35.983  -0.526  -9.488  0.00  0.00    -0.646 OA
HETATM   23  O           1     -37.473  -1.089 -10.956  0.00  0.00    -0.646 OA
ENDBRANCH   1  21
TORSDOF 6
ENDMDL
MODEL 2
REMARK VINA RESULT:      -6.7     15.666     17.813
REMARK  6 active torsions:
REMARK  status: ('A' for Active; 'I' for Inactive)
REMARK    1  A    between atoms: C_6  and  C_19 
REMARK    2  A    between atoms: C_6  and  C_14 
REMARK    3  A    between atoms: C_9  and  C_21 
REMARK    4  A    between atoms: N_11  and  C_14 
REMARK       I    between atoms: N_11  and  C_21 
REMARK    5  A    between atoms: C_14  and  C_23 
REMARK    6  A    between atoms: C_15  and  O_16 
ROOT
HETATM    1  C           1     -20.231  -8.703  -4.422  0.00  0.00     0.189 C 
ENDROOT
BRANCH   1   2
HETATM    2  C           1     -19.697  -8.846  -3.004  0.00  0.00     0.074 C 
BRANCH   2   3
HETATM    3  C           1     -20.797  -8.570  -2.026  0.00  0.00    -0.056 A 
HETATM    4  C           1     -21.102  -7.256  -1.671  0.00  0.00     0.010 A 
HETATM    5  C           1     -22.126  -7.000  -0.760  0.00  0.00     0.037 A 
HETATM    6  C           1     -22.847  -8.057  -0.204  0.00  0.00     0.065 A 
HETATM    7  C           1     -22.541  -9.371  -0.559  0.00  0.00     0.037 A 
HETATM    8  C           1     -21.516  -9.628  -1.470  0.00  0.00     0.010 A 
BRANCH   6   9
HETATM    9  O           1     -23.842  -7.809   0.681  0.00  0.00    -0.361 OA
HETATM   10  H           1     -24.496  -8.524   0.607  0.00  0.00     0.217 HD
ENDBRANCH   6   9
ENDBRANCH   2   3
ENDBRANCH   1   2
BRANCH   1  11
HETATM   11  N           1     -21.467  -7.946  -4.400  0.00  0.00    -0.344 N 
HETATM   12  H           1     -22.279  -8.318  -3.924  0.00  0.00     0.163 HD
HETATM   13  C           1     -21.536  -6.728  -5.020  0.00  0.00     0.251 C 
HETATM   14  O           1     -22.566  -6.098  -5.002  0.00  0.00    -0.271 OA
BRANCH  13  15
HETATM   15  C           1     -20.325  -6.173  -5.729  0.00  0.00     0.311 C 
HETATM   16  C           1     -20.280  -4.659  -5.618  0.00  0.00     0.047 C 
HETATM   17  C           1     -20.943  -4.147  -6.891  0.00  0.00     0.033 C 
HETATM   18  C           1     -21.327  -5.396  -7.667  0.00  0.00     0.271 C 
HETATM   19  N           1     -20.408  -6.414  -7.167  0.00  0.00     0.097 N 
HETATM   20  H           1     -19.495  -6.294  -7.607  0.00  0.00     0.317 HD
ENDBRANCH  13  15
ENDBRANCH   1  11
BRANCH   1  21
HETATM   21  C           1     -20.490 -10.071  -5.003  0.00  0.00     0.197 C 
HETATM   22  O           1     -20.109 -11.093  -4.391  0.00  0.00    -0.646 OA
HETATM   23  O           1     -21.087 -10.184  -6.095  0.00  0.00    -0.646 OA
ENDBRANCH   1  21
TORSDOF 6
ENDMDL
MODEL 3
REMARK VINA RESULT:      -6.5      9.807     11.814
REMARK  6 active torsions:
REMARK  status: ('A' for Active; 'I' for Inactive)
REMARK    1  A    between atoms: C_6  and  C_19 
REMARK    2  A    between atoms: C_6  and  C_14 
REMARK    3  A    between atoms: C_9  and  C_21 
REMARK    4  A    between atoms: N_11  and  C_14 
REMARK       I    between atoms: N_11  and  C_21 
REMARK    5  A    between atoms: C_14  and  C_23 
REMARK    6  A    between atoms: C_15  and  O_16 
ROOT
HETATM    1  C           1     -26.554  -5.966 -17.009  0.00  0.00     0.189 C 
ENDROOT
BRANCH   1   2
HETATM    2  C           1     -27.444  -5.508 -15.863  0.00  0.00     0.074 C 
BRANCH   2   3
HETATM    3  C           1     -28.675  -4.856 -16.414  0.00  0.00    -0.056 A 
HETATM    4  C           1     -29.913  -5.484 -16.286  0.00  0.00     0.010 A 
HETATM    5  C           1     -31.059  -4.876 -16.800  0.00  0.00     0.037 A 
HETATM    6  C           1     -30.966  -3.641 -17.442  0.00  0.00     0.065 A 
HETATM    7  C           1     -29.727  -3.015 -17.571  0.00  0.00     0.037 A 
HETATM    8  C           1     -28.580  -3.622 -17.057  0.00  0.00     0.010 A 
BRANCH   6   9
HETATM    9  O           1     -32.079  -3.051 -17.942  0.00  0.00    -0.361 OA
HETATM   10  H           1     -32.108  -3.225 -18.897  0.00  0.00     0.217 HD
ENDBRANCH   6   9
ENDBRANCH   2   3
ENDBRANCH   1   2
BRANCH   1  11
HETATM   11  N           1     -27.354  -6.674 -17.989  0.00  0.00    -0.344 N 
HETATM   12  H           1     -28.279  -7.004 -17.743  0.00  0.00     0.163 HD
HETATM   13  C           1     -26.861  -6.894 -19.246  0.00  0.00     0.251 C 
HETATM   14  O           1     -27.527  -7.484 -20.063  0.00  0.00    -0.271 OA
BRANCH  13  15
HETATM   15  C           1     -25.482  -6.401 -19.614  0.00  0.00     0.311 C 
HETATM   16  C           1     -25.441  -5.935 -21.058  0.00  0.00     0.047 C 
HETATM   17  C           1     -24.944  -7.138 -21.850  0.00  0.00     0.033 C 
HETATM   18  C           1     -24.719  -8.228 -20.815  0.00  0.00     0.271 C 
HETATM   19  N           1     -24.512  -7.491 -19.572  0.00  0.00     0.097 N 
HETATM   20  H           1     -23.559  -7.126 -19.547  0.00  0.00     0.317 HD
ENDBRANCH  13  15
ENDBRANCH   1  11
BRANCH   1  21
HETATM   21  C           1     -25.482  -6.884 -16.479  0.00  0.00     0.197 C 
HETATM   22  O           1     -24.303  -6.765 -16.878  0.00  0.00    -0.646 OA
HETATM   23  O           1     -25.771  -7.765 -15.640  0.00  0.00    -0.646 OA
ENDBRANCH   1  21
TORSDOF 6
ENDMDL
MODEL 4
REMARK VINA RESULT:      -6.4      9.985     11.617
REMARK  6 active torsions:
REMARK  status: ('A' for Active; 'I' for Inactive)
REMARK    1  A    between atoms: C_6  and  C_19 
REMARK    2  A    between atoms: C_6  and  C_14 
REMARK    3  A    between atoms: C_9  and  C_21 
REMARK    4  A    between atoms: N_11  and  C_14 
REMARK       I    between atoms: N_11  and  C_21 
REMARK    5  A    between atoms: C_14  and  C_23 
REMARK    6  A    between atoms: C_15  and  O_16 
ROOT
HETATM    1  C           1     -26.410  -6.254 -16.869  0.00  0.00     0.189 C 
ENDROOT
BRANCH   1   2
HETATM    2  C           1     -24.976  -6.280 -17.379  0.00  0.00     0.074 C 
BRANCH   2   3
HETATM    3  C           1     -24.948  -6.850 -18.763  0.00  0.00    -0.056 A 
HETATM    4  C           1     -26.092  -6.804 -19.559  0.00  0.00     0.010 A 
HETATM    5  C           1     -26.066  -7.336 -20.848  0.00  0.00     0.037 A 
HETATM    6  C           1     -24.896  -7.914 -21.342  0.00  0.00     0.065 A 
HETATM    7  C           1     -23.753  -7.960 -20.544  0.00  0.00     0.037 A 
HETATM    8  C           1     -23.778  -7.428 -19.255  0.00  0.00     0.010 A 
BRANCH   6   9
HETATM    9  O           1     -24.870  -8.430 -22.594  0.00  0.00    -0.361 OA
HETATM   10  H           1     -24.075  -8.982 -22.675  0.00  0.00     0.217 HD
ENDBRANCH   6   9
ENDBRANCH   2   3
ENDBRANCH   1   2
BRANCH   1  11
HETATM   11  N           1     -26.767  -4.897 -16.501  0.00  0.00    -0.344 N 
HETATM   12  H           1     -26.126  -4.336 -15.956  0.00  0.00     0.163 HD
HETATM   13  C           1     -27.972  -4.377 -16.890  0.00  0.00     0.251 C 
HETATM   14  O           1     -28.270  -3.247 -16.584  0.00  0.00    -0.271 OA
BRANCH  13  15
HETATM   15  C           1     -28.929  -5.214 -17.703  0.00  0.00     0.311 C 
HETATM   16  C           1     -29.961  -4.341 -18.392  0.00  0.00     0.047 C 
HETATM   17  C           1     -31.164  -4.333 -17.456  0.00  0.00     0.033 C 
HETATM   18  C           1     -30.758  -5.209 -16.283  0.00  0.00     0.271 C 
HETATM   19  N           1     -29.726  -6.079 -16.838  0.00  0.00     0.097 N 
HETATM   20  H           1     -30.164  -6.826 -17.379  0.00  0.00     0.317 HD
ENDBRANCH  13  15
ENDBRANCH   1  11
BRANCH   1  21
HETATM   21  C           1     -26.532  -7.150 -15.661  0.00  0.00     0.197 C 
HETATM   22  O           1     -27.659  -7.528 -15.274  0.00  0.00    -0.646 OA
HETATM   23  O           1     -25.506  -7.515 -15.047  0.00  0.00    -0.646 OA
ENDBRANCH   1  21
TORSDOF 6
ENDMDL
MODEL 5
REMARK VINA RESULT:      -6.3     16.115     18.934
REMARK  6 active torsions:
REMARK  status: ('A' for Active; 'I' for Inactive)
REMARK    1  A    between atoms: C_6  and  C_19 
REMARK    2  A    between atoms: C_6  and  C_14 
REMARK    3  A    between atoms: C_9  and  C_21 
REMARK    4  A    between atoms: N_11  and  C_14 
REMARK       I    between atoms: N_11  and  C_21 
REMARK    5  A    between atoms: C_14  and  C_23 
REMARK    6  A    between atoms: C_15  and  O_16 
ROOT
HETATM    1  C           1     -19.165  -9.306  -3.244  0.00  0.00     0.189 C 
ENDROOT
BRANCH   1   2
HETATM    2  C           1     -19.576 -10.170  -2.061  0.00  0.00     0.074 C 
BRANCH   2   3
HETATM    3  C           1     -20.721  -9.524  -1.343  0.00  0.00    -0.056 A 
HETATM    4  C           1     -21.775 -10.305  -0.868  0.00  0.00     0.010 A 
HETATM    5  C           1     -22.841  -9.703  -0.200  0.00  0.00     0.037 A 
HETATM    6  C           1     -22.854  -8.322  -0.007  0.00  0.00     0.065 A 
HETATM    7  C           1     -21.800  -7.542  -0.483  0.00  0.00     0.037 A 
HETATM    8  C           1     -20.733  -8.144  -1.151  0.00  0.00     0.010 A 
BRANCH   6   9
HETATM    9  O           1     -23.890  -7.737   0.643  0.00  0.00    -0.361 OA
HETATM   10  H           1     -24.521  -8.433   0.888  0.00  0.00     0.217 HD
ENDBRANCH   6   9
ENDBRANCH   2   3
ENDBRANCH   1   2
BRANCH   1  11
HETATM   11  N           1     -19.960  -9.664  -4.403  0.00  0.00    -0.344 N 
HETATM   12  H           1     -20.017 -10.631  -4.697  0.00  0.00     0.163 HD
HETATM   13  C           1     -20.634  -8.697  -5.098  0.00  0.00     0.251 C 
HETATM   14  O           1     -21.296  -8.995  -6.063  0.00  0.00    -0.271 OA
BRANCH  13  15
HETATM   15  C           1     -20.550  -7.256  -4.658  0.00  0.00     0.311 C 
HETATM   16  C           1     -21.934  -6.686  -4.402  0.00  0.00     0.047 C 
HETATM   17  C           1     -22.329  -6.001  -5.705  0.00  0.00     0.033 C 
HETATM   18  C           1     -21.146  -6.208  -6.635  0.00  0.00     0.271 C 
HETATM   19  N           1     -20.021  -6.416  -5.729  0.00  0.00     0.097 N 
HETATM   20  H           1     -19.709  -5.516  -5.362  0.00  0.00     0.317 HD
ENDBRANCH  13  15
ENDBRANCH   1  11
BRANCH   1  21
HETATM   21  C           1     -17.705  -9.529  -3.549  0.00  0.00     0.197 C 
HETATM   22  O           1     -16.837  -9.237  -2.698  0.00  0.00    -0.646 OA
HETATM   23  O           1     -17.362 -10.006  -4.653  0.00  0.00    -0.646 OA
ENDBRANCH   1  21
TORSDOF 6
ENDMDL
MODEL 6
REMARK VINA RESULT:      -6.3     15.493     18.429
REMARK  6 active torsions:
REMARK  status: ('A' for Active; 'I' for Inactive)
REMARK    1  A    between atoms: C_6  and  C_19 
REMARK    2  A    between atoms: C_6  and  C_14 
REMARK    3  A    between atoms: C_9  and  C_21 
REMARK    4  A    between atoms: N_11  and  C_14 
REMARK       I    between atoms: N_11  and  C_21 
REMARK    5  A    between atoms: C_14  and  C_23 
REMARK    6  A    between atoms: C_15  and  O_16 
ROOT
HETATM    1  C           1     -21.414  -7.264  -4.052  0.00  0.00     0.189 C 
ENDROOT
BRANCH   1   2
HETATM    2  C           1     -22.406  -6.492  -4.911  0.00  0.00     0.074 C 
BRANCH   2   3
HETATM    3  C           1     -21.665  -5.722  -5.960  0.00  0.00    -0.056 A 
HETATM    4  C           1     -22.348  -4.821  -6.776  0.00  0.00     0.010 A 
HETATM    5  C           1     -21.658  -4.104  -7.753  0.00  0.00     0.037 A 
HETATM    6  C           1     -20.284  -4.287  -7.914  0.00  0.00     0.065 A 
HETATM    7  C           1     -19.602  -5.189  -7.098  0.00  0.00     0.037 A 
HETATM    8  C           1     -20.292  -5.906  -6.120  0.00  0.00     0.010 A 
BRANCH   6   9
HETATM    9  O           1     -19.613  -3.590  -8.863  0.00  0.00    -0.361 OA
HETATM   10  H           1     -19.497  -4.169  -9.634  0.00  0.00     0.217 HD
ENDBRANCH   6   9
ENDBRANCH   2   3
ENDBRANCH   1   2
BRANCH   1  11
HETATM   11  N           1     -21.635  -8.687  -4.219  0.00  0.00    -0.344 N 
HETATM   12  H           1     -22.576  -9.058  -4.198  0.00  0.00     0.163 HD
HETATM   13  C           1     -20.572  -9.528  -4.407  0.00  0.00     0.251 C 
HETATM   14  O           1     -20.756 -10.714  -4.546  0.00  0.00    -0.271 OA
BRANCH  13  15
HETATM   15  C           1     -19.168  -8.975  -4.439  0.00  0.00     0.311 C 
HETATM   16  C           1     -18.261  -9.849  -5.287  0.00  0.00     0.047 C 
HETATM   17  C           1     -17.591 -10.799  -4.302  0.00  0.00     0.033 C 
HETATM   18  C           1     -18.145 -10.413  -2.940  0.00  0.00     0.271 C 
HETATM   19  N           1     -18.560  -9.025  -3.113  0.00  0.00     0.097 N 
HETATM   20  H           1     -17.741  -8.417  -3.068  0.00  0.00     0.317 HD
ENDBRANCH  13  15
ENDBRANCH   1  11
BRANCH   1  21
HETATM   21  C           1     -21.608  -6.893  -2.602  0.00  0.00     0.197 C 
HETATM   22  O           1     -20.955  -7.483  -1.714  0.00  0.00    -0.646 OA
HETATM   23  O           1     -22.421  -5.997  -2.289  0.00  0.00    -0.646 OA
ENDBRANCH   1  21
TORSDOF 6
ENDMDL
MODEL 7
REMARK VINA RESULT:      -6.2     17.500     18.992
REMARK  6 active torsions:
REMARK  status: ('A' for Active; 'I' for Inactive)
REMARK    1  A    between atoms: C_6  and  C_19 
REMARK    2  A    between atoms: C_6  and  C_14 
REMARK    3  A    between atoms: C_9  and  C_21 
REMARK    4  A    between atoms: N_11  and  C_14 
REMARK       I    between atoms: N_11  and  C_21 
REMARK    5  A    between atoms: C_14  and  C_23 
REMARK    6  A    between atoms: C_15  and  O_16 
ROOT
HETATM    1  C           1     -21.671  -7.882  -2.011  0.00  0.00     0.189 C 
ENDROOT
BRANCH   1   2
HETATM    2  C           1     -21.731  -8.058  -0.500  0.00  0.00     0.074 C 
BRANCH   2   3
HETATM    3  C           1     -22.095  -9.474  -0.176  0.00  0.00    -0.056 A 
HETATM    4  C           1     -23.412  -9.908  -0.327  0.00  0.00     0.010 A 
HETATM    5  C           1     -23.751 -11.226  -0.025  0.00  0.00     0.037 A 
HETATM    6  C           1     -22.773 -12.112   0.429  0.00  0.00     0.065 A 
HETATM    7  C           1     -21.457 -11.677   0.581  0.00  0.00     0.037 A 
HETATM    8  C           1     -21.117 -10.358   0.279  0.00  0.00     0.010 A 
BRANCH   6   9
HETATM    9  O           1     -23.102 -13.393   0.723  0.00  0.00    -0.361 OA
HETATM   10  H           1     -24.056 -13.500   0.575  0.00  0.00     0.217 HD
ENDBRANCH   6   9
ENDBRANCH   2   3
ENDBRANCH   1   2
BRANCH   1  11
HETATM   11  N           1     -20.334  -8.190  -2.480  0.00  0.00    -0.344 N 
HETATM   12  H           1     -19.529  -7.828  -1.985  0.00  0.00     0.163 HD
HETATM   13  C           1     -20.160  -8.970  -3.590  0.00  0.00     0.251 C 
HETATM   14  O           1     -19.046  -9.227  -3.981  0.00  0.00    -0.271 OA
BRANCH  13  15
HETATM   15  C           1     -21.360  -9.511  -4.328  0.00  0.00     0.311 C 
HETATM   16  C           1     -21.872 -10.781  -3.672  0.00  0.00     0.047 C 
HETATM   17  C           1     -21.208 -11.920  -4.436  0.00  0.00     0.033 C 
HETATM   18  C           1     -20.355 -11.241  -5.495  0.00  0.00     0.271 C 
HETATM   19  N           1     -20.992  -9.940  -5.675  0.00  0.00     0.097 N 
HETATM   20  H           1     -21.821 -10.044  -6.260  0.00  0.00     0.317 HD
ENDBRANCH  13  15
ENDBRANCH   1  11
BRANCH   1  21
HETATM   21  C           1     -22.011  -6.457  -2.367  0.00  0.00     0.197 C 
HETATM   22  O           1     -21.934  -6.073  -3.554  0.00  0.00    -0.646 OA
HETATM   23  O           1     -22.371  -5.658  -1.475  0.00  0.00    -0.646 OA
ENDBRANCH   1  21
TORSDOF 6
ENDMDL
MODEL 8
REMARK VINA RESULT:      -6.1     15.969     18.741
REMARK  6 active torsions:
REMARK  status: ('A' for Active; 'I' for Inactive)
REMARK    1  A    between atoms: C_6  and  C_19 
REMARK    2  A    between atoms: C_6  and  C_14 
REMARK    3  A    between atoms: C_9  and  C_21 
REMARK    4  A    between atoms: N_11  and  C_14 
REMARK       I    between atoms: N_11  and  C_21 
REMARK    5  A    between atoms: C_14  and  C_23 
REMARK    6  A    between atoms: C_15  and  O_16 
ROOT
HETATM    1  C           1     -20.589  -8.898  -4.944  0.00  0.00     0.189 C 
ENDROOT
BRANCH   1   2
HETATM    2  C           1     -19.670  -8.910  -3.731  0.00  0.00     0.074 C 
BRANCH   2   3
HETATM    3  C           1     -18.336  -9.468  -4.120  0.00  0.00    -0.056 A 
HETATM    4  C           1     -17.475  -9.963  -3.140  0.00  0.00     0.010 A 
HETATM    5  C           1     -16.233 -10.483  -3.502  0.00  0.00     0.037 A 
HETATM    6  C           1     -15.851 -10.508  -4.843  0.00  0.00     0.065 A 
HETATM    7  C           1     -16.712 -10.012  -5.822  0.00  0.00     0.037 A 
HETATM    8  C           1     -17.955  -9.492  -5.461  0.00  0.00     0.010 A 
BRANCH   6   9
HETATM    9  O           1     -14.643 -11.013  -5.196  0.00  0.00    -0.361 OA
HETATM   10  H           1     -14.443 -11.755  -4.601  0.00  0.00     0.217 HD
ENDBRANCH   6   9
ENDBRANCH   2   3
ENDBRANCH   1   2
BRANCH   1  11
HETATM   11  N           1     -21.694  -7.991  -4.705  0.00  0.00    -0.344 N 
HETATM   12  H           1     -22.530  -8.324  -4.242  0.00  0.00     0.163 HD
HETATM   13  C           1     -21.607  -6.685  -5.104  0.00  0.00     0.251 C 
HETATM   14  O           1     -22.528  -5.929  -4.905  0.00  0.00    -0.271 OA
BRANCH  13  15
HETATM   15  C           1     -20.361  -6.188  -5.795  0.00  0.00     0.311 C 
HETATM   16  C           1     -20.220  -4.684  -5.642  0.00  0.00     0.047 C 
HETATM   17  C           1     -20.845  -4.097  -6.902  0.00  0.00     0.033 C 
HETATM   18  C           1     -21.303  -5.297  -7.713  0.00  0.00     0.271 C 
HETATM   19  N           1     -20.453  -6.385  -7.239  0.00  0.00     0.097 N 
HETATM   20  H           1     -19.532  -6.311  -7.673  0.00  0.00     0.317 HD
ENDBRANCH  13  15
ENDBRANCH   1  11
BRANCH   1  21
HETATM   21  C           1     -21.124 -10.288  -5.185  0.00  0.00     0.197 C 
HETATM   22  O           1     -21.136 -10.762  -6.342  0.00  0.00    -0.646 OA
HETATM   23  O           1     -21.556 -10.966  -4.228  0.00  0.00    -0.646 OA
ENDBRANCH   1  21
TORSDOF 6
ENDMDL
MODEL 9
REMARK VINA RESULT:      -6.1     17.307     19.623
REMARK  6 active torsions:
REMARK  status: ('A' for Active; 'I' for Inactive)
REMARK    1  A    between atoms: C_6  and  C_19 
REMARK    2  A    between atoms: C_6  and  C_14 
REMARK    3  A    between atoms: C_9  and  C_21 
REMARK    4  A    between atoms: N_11  and  C_14 
REMARK       I    between atoms: N_11  and  C_21 
REMARK    5  A    between atoms: C_14  and  C_23 
REMARK    6  A    between atoms: C_15  and  O_16 
ROOT
HETATM    1  C           1     -21.565  -9.225  -0.519  0.00  0.00     0.189 C 
ENDROOT
BRANCH   1   2
HETATM    2  C           1     -21.579  -7.738  -0.844  0.00  0.00     0.074 C 
BRANCH   2   3
HETATM    3  C           1     -21.242  -7.539  -2.290  0.00  0.00    -0.056 A 
HETATM    4  C           1     -20.439  -8.468  -2.953  0.00  0.00     0.010 A 
HETATM    5  C           1     -20.125  -8.283  -4.299  0.00  0.00     0.037 A 
HETATM    6  C           1     -20.614  -7.170  -4.983  0.00  0.00     0.065 A 
HETATM    7  C           1     -21.417  -6.242  -4.320  0.00  0.00     0.037 A 
HETATM    8  C           1     -21.731  -6.426  -2.973  0.00  0.00     0.010 A 
BRANCH   6   9
HETATM    9  O           1     -20.310  -6.990  -6.292  0.00  0.00    -0.361 OA
HETATM   10  H           1     -21.142  -6.953  -6.791  0.00  0.00     0.217 HD
ENDBRANCH   6   9
ENDBRANCH   2   3
ENDBRANCH   1   2
BRANCH   1  11
HETATM   11  N           1     -22.917  -9.745  -0.580  0.00  0.00    -0.344 N 
HETATM   12  H           1     -23.670  -9.250  -0.120  0.00  0.00     0.163 HD
HETATM   13  C           1     -23.175 -10.904  -1.260  0.00  0.00     0.251 C 
HETATM   14  O           1     -24.301 -11.338  -1.310  0.00  0.00    -0.271 OA
BRANCH  13  15
HETATM   15  C           1     -22.052 -11.642  -1.947  0.00  0.00     0.311 C 
HETATM   16  C           1     -22.588 -12.541  -3.047  0.00  0.00     0.047 C 
HETATM   17  C           1     -22.750 -13.910  -2.398  0.00  0.00     0.033 C 
HETATM   18  C           1     -22.291 -13.724  -0.962  0.00  0.00     0.271 C 
HETATM   19  N           1     -21.401 -12.570  -1.026  0.00  0.00     0.097 N 
HETATM   20  H           1     -20.492 -12.861  -1.389  0.00  0.00     0.317 HD
ENDBRANCH  13  15
ENDBRANCH   1  11
BRANCH   1  21
HETATM   21  C           1     -21.010  -9.432   0.868  0.00  0.00     0.197 C 
HETATM   22  O           1     -20.959  -8.474   1.671  0.00  0.00    -0.646 OA
HETATM   23  O           1     -20.600 -10.561   1.216  0.00  0.00    -0.646 OA
ENDBRANCH   1  21
TORSDOF 6
ENDMDL
