MODEL 1
REMARK VINA RESULT:      -6.9      0.000      0.000
REMARK  9 active torsions:
REMARK  status: ('A' for Active; 'I' for Inactive)
REMARK       I    between atoms: N_1  and  C_15 
REMARK       I    between atoms: N_2  and  C_15 
REMARK    1  A    between atoms: N_2  and  C_21 
REMARK       I    between atoms: C_5  and  N_20 
REMARK    2  A    between atoms: C_5  and  C_14 
REMARK    3  A    between atoms: C_9  and  C_24 
REMARK    4  A    between atoms: C_9  and  C_19 
REMARK    5  A    between atoms: C_9  and  N_20 
REMARK    6  A    between atoms: C_10  and  C_14 
REMARK    7  A    between atoms: C_14  and  N_26 
REMARK    8  A    between atoms: C_21  and  C_23 
REMARK    9  A    between atoms: C_23  and  C_24 
ROOT
HETATM    1  C           1     -26.215  -6.063 -17.024  0.00  0.00     0.185 C 
ENDROOT
BRANCH   1   2
HETATM    2  C           1     -27.499  -5.248 -16.939  0.00  0.00     0.038 C 
BRANCH   2   3
HETATM    3  C           1     -28.401  -5.595 -18.116  0.00  0.00     0.023 C 
BRANCH   3   4
HETATM    4  C           1     -29.540  -4.586 -18.200  0.00  0.00     0.138 C 
BRANCH   4   5
HETATM    5  N           1     -30.611  -4.977 -17.272  0.00  0.00    -0.227 N 
HETATM    6  C           1     -31.578  -4.190 -17.054  0.00  0.00     0.665 C 
HETATM    7  N           1     -31.623  -3.066 -17.635  0.00  0.00    -0.235 N 
HETATM    8  N           1     -32.525  -4.536 -16.233  0.00  0.00    -0.235 N 
HETATM    9  H           1     -30.858  -2.787 -18.297  0.00  0.00     0.174 HD
HETATM   10  H           1     -32.425  -2.413 -17.454  0.00  0.00     0.174 HD
HETATM   11  H           1     -33.323  -3.886 -16.054  0.00  0.00     0.174 HD
HETATM   12  H           1     -32.488  -5.464 -15.754  0.00  0.00     0.174 HD
HETATM   13  H           1     -30.574  -5.909 -16.790  0.00  0.00     0.177 HD
ENDBRANCH   4   5
ENDBRANCH   3   4
ENDBRANCH   2   3
ENDBRANCH   1   2
BRANCH   1  14
HETATM   14  C           1     -26.157  -7.033 -15.869  0.00  0.00     0.196 C 
HETATM   15  O           1     -27.215  -7.475 -15.370  0.00  0.00    -0.646 OA
HETATM   16  O           1     -25.051  -7.395 -15.412  0.00  0.00    -0.646 OA
ENDBRANCH   1  14
BRANCH   1  17
HETATM   17  N           1     -26.192  -6.798 -18.273  0.00  0.00    -0.345 N 
HETATM   18  C           1     -25.007  -6.992 -18.931  0.00  0.00     0.249 C 
HETATM   19  O           1     -23.981  -6.551 -18.470  0.00  0.00    -0.271 OA
HETATM   20  H           1     -27.051  -7.168 -18.659  0.00  0.00     0.163 HD
BRANCH  18  21
HETATM   21  C           1     -24.982  -7.757 -20.231  0.00  0.00     0.278 C 
BRANCH  21  22
HETATM   22  C           1     -24.318  -6.909 -21.308  0.00  0.00     0.017 C 
HETATM   23  C           1     -24.044  -7.768 -22.535  0.00  0.00     0.012 C 
HETATM   24  C           1     -25.243  -5.760 -21.689  0.00  0.00     0.012 C 
ENDBRANCH  21  22
BRANCH  21  25
HETATM   25  N           1     -26.386  -8.082 -20.647  0.00  0.00    -0.066 N 
HETATM   26  H           1     -26.682  -8.981 -20.202  0.00  0.00     0.275 HD
HETATM   27  H           1     -27.027  -7.315 -20.342  0.00  0.00     0.275 HD
HETATM   28  H           1     -26.428  -8.178 -21.687  0.00  0.00     0.275 HD
ENDBRANCH  21  25
ENDBRANCH  18  21
ENDBRANCH   1  17
TORSDOF 9
ENDMDL
MODEL 2
REMARK VINA RESULT:      -6.5     11.619     14.384
REMARK  9 active torsions:
REMARK  status: ('A' for Active; 'I' for Inactive)
REMARK       I    between atoms: N_1  and  C_15 
REMARK       I    between atoms: N_2  and  C_15 
REMARK    1  A    between atoms: N_2  and  C_21 
REMARK       I    between atoms: C_5  and  N_20 
REMARK    2  A    between atoms: C_5  and  C_14 
REMARK    3  A    between atoms: C_9  and  C_24 
REMARK    4  A    between atoms: C_9  and  C_19 
REMARK    5  A    between atoms: C_9  and  N_20 
REMARK    6  A    between atoms: C_10  and  C_14 
REMARK    7  A    between atoms: C_14  and  N_26 
REMARK    8  A    between atoms: C_21  and  C_23 
REMARK    9  A    between atoms: C_23  and  C_24 
ROOT
HETATM    1  C           1     -21.262  -5.451  -6.642  0.00  0.00     0.185 C 
ENDROOT
BRANCH   1   2
HETATM    2  C           1     -21.751  -4.072  -7.064  0.00  0.00     0.038 C 
BRANCH   2   3
HETATM    3  C           1     -23.060  -4.208  -7.831  0.00  0.00     0.023 C 
BRANCH   3   4
HETATM    4  C           1     -22.767  -4.623  -9.268  0.00  0.00     0.138 C 
BRANCH   4   5
HETATM    5  N           1     -21.695  -3.778  -9.814  0.00  0.00    -0.227 N 
HETATM    6  C           1     -21.438  -3.804 -11.053  0.00  0.00     0.665 C 
HETATM    7  N           1     -22.104  -4.558 -11.822  0.00  0.00    -0.235 N 
HETATM    8  N           1     -20.490  -3.058 -11.536  0.00  0.00    -0.235 N 
HETATM    9  H           1     -22.869  -5.162 -11.432  0.00  0.00     0.174 HD
HETATM   10  H           1     -21.890  -4.580 -12.850  0.00  0.00     0.174 HD
HETATM   11  H           1     -20.278  -3.080 -12.558  0.00  0.00     0.174 HD
HETATM   12  H           1     -19.940  -2.436 -10.901  0.00  0.00     0.174 HD
HETATM   13  H           1     -21.143  -3.153  -9.176  0.00  0.00     0.177 HD
ENDBRANCH   4   5
ENDBRANCH   3   4
ENDBRANCH   2   3
ENDBRANCH   1   2
BRANCH   1  14
HETATM   14  C           1     -19.960  -5.759  -7.339  0.00  0.00     0.196 C 
HETATM   15  O           1     -19.471  -4.935  -8.143  0.00  0.00    -0.646 OA
HETATM   16  O           1     -19.369  -6.837  -7.113  0.00  0.00    -0.646 OA
ENDBRANCH   1  14
BRANCH   1  17
HETATM   17  N           1     -21.058  -5.472  -5.207  0.00  0.00    -0.345 N 
HETATM   18  C           1     -21.578  -6.493  -4.458  0.00  0.00     0.249 C 
HETATM   19  O           1     -22.206  -7.376  -4.991  0.00  0.00    -0.271 OA
HETATM   20  H           1     -20.533  -4.733  -4.759  0.00  0.00     0.163 HD
BRANCH  18  21
HETATM   21  C           1     -21.366  -6.515  -2.964  0.00  0.00     0.278 C 
BRANCH  21  22
HETATM   22  C           1     -21.354  -7.958  -2.474  0.00  0.00     0.017 C 
HETATM   23  C           1     -19.941  -8.517  -2.576  0.00  0.00     0.012 C 
HETATM   24  C           1     -21.814  -8.004  -1.022  0.00  0.00     0.012 C 
ENDBRANCH  21  22
BRANCH  21  25
HETATM   25  N           1     -22.480  -5.769  -2.290  0.00  0.00    -0.066 N 
HETATM   26  H           1     -22.082  -4.978  -1.734  0.00  0.00     0.275 HD
HETATM   27  H           1     -23.136  -5.394  -3.011  0.00  0.00     0.275 HD
HETATM   28  H           1     -22.996  -6.416  -1.652  0.00  0.00     0.275 HD
ENDBRANCH  21  25
ENDBRANCH  18  21
ENDBRANCH   1  17
TORSDOF 9
ENDMDL
MODEL 3
REMARK VINA RESULT:      -6.3      2.000      6.599
REMARK  9 active torsions:
REMARK  status: ('A' for Active; 'I' for Inactive)
REMARK       I    between atoms: N_1  and  C_15 
REMARK       I    between atoms: N_2  and  C_15 
REMARK    1  A    between atoms: N_2  and  C_21 
REMARK       I    between atoms: C_5  and  N_20 
REMARK    2  A    between atoms: C_5  and  C_14 
REMARK    3  A    between atoms: C_9  and  C_24 
REMARK    4  A    between atoms: C_9  and  C_19 
REMARK    5  A    between atoms: C_9  and  N_20 
REMARK    6  A    between atoms: C_10  and  C_14 
REMARK    7  A    between atoms: C_14  and  N_26 
REMARK    8  A    between atoms: C_21  and  C_23 
REMARK    9  A    between atoms: C_23  and  C_24 
ROOT
HETATM    1  C           1     -25.880  -6.914 -17.640  0.00  0.00     0.185 C 
ENDROOT
BRANCH   1   2
HETATM    2  C           1     -25.041  -6.706 -18.894  0.00  0.00     0.038 C 
BRANCH   2   3
HETATM    3  C           1     -25.915  -6.888 -20.127  0.00  0.00     0.023 C 
BRANCH   3   4
HETATM    4  C           1     -25.297  -7.942 -21.038  0.00  0.00     0.138 C 
BRANCH   4   5
HETATM    5  N           1     -23.932  -8.245 -20.583  0.00  0.00    -0.227 N 
HETATM    6  C           1     -23.039  -8.556 -21.424  0.00  0.00     0.665 C 
HETATM    7  N           1     -23.321  -8.606 -22.657  0.00  0.00    -0.235 N 
HETATM    8  N           1     -21.832  -8.823 -21.021  0.00  0.00    -0.235 N 
HETATM    9  H           1     -24.295  -8.390 -22.982  0.00  0.00     0.174 HD
HETATM   10  H           1     -22.580  -8.864 -23.355  0.00  0.00     0.174 HD
HETATM   11  H           1     -21.095  -9.080 -21.716  0.00  0.00     0.174 HD
HETATM   12  H           1     -21.600  -8.782 -20.004  0.00  0.00     0.174 HD
HETATM   13  H           1     -23.698  -8.203 -19.560  0.00  0.00     0.177 HD
ENDBRANCH   4   5
ENDBRANCH   3   4
ENDBRANCH   2   3
ENDBRANCH   1   2
BRANCH   1  14
HETATM   14  C           1     -24.980  -6.928 -16.429  0.00  0.00     0.196 C 
HETATM   15  O           1     -24.340  -7.962 -16.137  0.00  0.00    -0.646 OA
HETATM   16  O           1     -24.874  -5.907 -15.716  0.00  0.00    -0.646 OA
ENDBRANCH   1  14
BRANCH   1  17
HETATM   17  N           1     -26.839  -5.834 -17.516  0.00  0.00    -0.345 N 
HETATM   18  C           1     -27.949  -5.992 -16.731  0.00  0.00     0.249 C 
HETATM   19  O           1     -28.129  -7.030 -16.140  0.00  0.00    -0.271 OA
HETATM   20  H           1     -26.689  -4.965 -18.011  0.00  0.00     0.163 HD
BRANCH  18  21
HETATM   21  C           1     -28.947  -4.868 -16.602  0.00  0.00     0.278 C 
BRANCH  21  22
HETATM   22  C           1     -30.040  -5.035 -17.650  0.00  0.00     0.017 C 
HETATM   23  C           1     -30.932  -6.211 -17.272  0.00  0.00     0.012 C 
HETATM   24  C           1     -30.876  -3.764 -17.718  0.00  0.00     0.012 C 
ENDBRANCH  21  22
BRANCH  21  25
HETATM   25  N           1     -28.252  -3.555 -16.811  0.00  0.00    -0.066 N 
HETATM   26  H           1     -27.246  -3.648 -16.544  0.00  0.00     0.275 HD
HETATM   27  H           1     -28.323  -3.278 -17.816  0.00  0.00     0.275 HD
HETATM   28  H           1     -28.704  -2.823 -16.217  0.00  0.00     0.275 HD
ENDBRANCH  21  25
ENDBRANCH  18  21
ENDBRANCH   1  17
TORSDOF 9
ENDMDL
MODEL 4
REMARK VINA RESULT:      -6.1     13.744     16.437
REMARK  9 active torsions:
REMARK  status: ('A' for Active; 'I' for Inactive)
REMARK       I    between atoms: N_1  and  C_15 
REMARK       I    between atoms: N_2  and  C_15 
REMARK    1  A    between atoms: N_2  and  C_21 
REMARK       I    between atoms: C_5  and  N_20 
REMARK    2  A    between atoms: C_5  and  C_14 
REMARK    3  A    between atoms: C_9  and  C_24 
REMARK    4  A    between atoms: C_9  and  C_19 
REMARK    5  A    between atoms: C_9  and  N_20 
REMARK    6  A    between atoms: C_10  and  C_14 
REMARK    7  A    between atoms: C_14  and  N_26 
REMARK    8  A    between atoms: C_21  and  C_23 
REMARK    9  A    between atoms: C_23  and  C_24 
ROOT
HETATM    1  C           1     -20.709  -8.611  -4.550  0.00  0.00     0.185 C 
ENDROOT
BRANCH   1   2
HETATM    2  C           1     -21.329  -7.783  -5.667  0.00  0.00     0.038 C 
BRANCH   2   3
HETATM    3  C           1     -21.802  -6.447  -5.109  0.00  0.00     0.023 C 
BRANCH   3   4
HETATM    4  C           1     -21.457  -5.334  -6.091  0.00  0.00     0.138 C 
BRANCH   4   5
HETATM    5  N           1     -22.695  -4.714  -6.585  0.00  0.00    -0.227 N 
HETATM    6  C           1     -22.820  -4.443  -7.815  0.00  0.00     0.665 C 
HETATM    7  N           1     -21.879  -4.706  -8.620  0.00  0.00    -0.235 N 
HETATM    8  N           1     -23.914  -3.894  -8.252  0.00  0.00    -0.235 N 
HETATM    9  H           1     -20.994  -5.150  -8.268  0.00  0.00     0.174 HD
HETATM   10  H           1     -21.982  -4.482  -9.641  0.00  0.00     0.174 HD
HETATM   11  H           1     -24.017  -3.671  -9.267  0.00  0.00     0.174 HD
HETATM   12  H           1     -24.691  -3.677  -7.587  0.00  0.00     0.174 HD
HETATM   13  H           1     -23.475  -4.495  -5.917  0.00  0.00     0.177 HD
ENDBRANCH   4   5
ENDBRANCH   3   4
ENDBRANCH   2   3
ENDBRANCH   1   2
BRANCH   1  14
HETATM   14  C           1     -19.257  -8.873  -4.863  0.00  0.00     0.196 C 
HETATM   15  O           1     -18.461  -9.164  -3.943  0.00  0.00    -0.646 OA
HETATM   16  O           1     -18.848  -8.800  -6.042  0.00  0.00    -0.646 OA
ENDBRANCH   1  14
BRANCH   1  17
HETATM   17  N           1     -20.811  -7.886  -3.299  0.00  0.00    -0.345 N 
HETATM   18  C           1     -21.329  -8.502  -2.191  0.00  0.00     0.249 C 
HETATM   19  O           1     -21.701  -9.649  -2.256  0.00  0.00    -0.271 OA
HETATM   20  H           1     -20.499  -6.925  -3.244  0.00  0.00     0.163 HD
BRANCH  18  21
HETATM   21  C           1     -21.434  -7.748  -0.889  0.00  0.00     0.278 C 
BRANCH  21  22
HETATM   22  C           1     -21.997  -8.667   0.188  0.00  0.00     0.017 C 
HETATM   23  C           1     -21.040  -8.708   1.372  0.00  0.00     0.012 C 
HETATM   24  C           1     -23.351  -8.141   0.647  0.00  0.00     0.012 C 
ENDBRANCH  21  22
BRANCH  21  25
HETATM   25  N           1     -22.347  -6.570  -1.065  0.00  0.00    -0.066 N 
HETATM   26  H           1     -22.763  -6.593  -2.024  0.00  0.00     0.275 HD
HETATM   27  H           1     -23.109  -6.608  -0.352  0.00  0.00     0.275 HD
HETATM   28  H           1     -21.802  -5.686  -0.945  0.00  0.00     0.275 HD
ENDBRANCH  21  25
ENDBRANCH  18  21
ENDBRANCH   1  17
TORSDOF 9
ENDMDL
MODEL 5
REMARK VINA RESULT:      -5.8     12.026     14.247
REMARK  9 active torsions:
REMARK  status: ('A' for Active; 'I' for Inactive)
REMARK       I    between atoms: N_1  and  C_15 
REMARK       I    between atoms: N_2  and  C_15 
REMARK    1  A    between atoms: N_2  and  C_21 
REMARK       I    between atoms: C_5  and  N_20 
REMARK    2  A    between atoms: C_5  and  C_14 
REMARK    3  A    between atoms: C_9  and  C_24 
REMARK    4  A    between atoms: C_9  and  C_19 
REMARK    5  A    between atoms: C_9  and  N_20 
REMARK    6  A    between atoms: C_10  and  C_14 
REMARK    7  A    between atoms: C_14  and  N_26 
REMARK    8  A    between atoms: C_21  and  C_23 
REMARK    9  A    between atoms: C_23  and  C_24 
ROOT
HETATM    1  C           1     -20.541  -6.771  -5.395  0.00  0.00     0.185 C 
ENDROOT
BRANCH   1   2
HETATM    2  C           1     -20.373  -6.004  -6.700  0.00  0.00     0.038 C 
BRANCH   2   3
HETATM    3  C           1     -20.163  -4.526  -6.398  0.00  0.00     0.023 C 
BRANCH   3   4
HETATM    4  C           1     -20.806  -3.686  -7.495  0.00  0.00     0.138 C 
BRANCH   4   5
HETATM    5  N           1     -22.268  -3.821  -7.423  0.00  0.00    -0.227 N 
HETATM    6  C           1     -22.952  -3.870  -8.487  0.00  0.00     0.665 C 
HETATM    7  N           1     -22.377  -3.804  -9.613  0.00  0.00    -0.235 N 
HETATM    8  N           1     -24.245  -3.990  -8.423  0.00  0.00    -0.235 N 
HETATM    9  H           1     -21.333  -3.708  -9.665  0.00  0.00     0.174 HD
HETATM   10  H           1     -22.945  -3.845 -10.495  0.00  0.00     0.174 HD
HETATM   11  H           1     -24.810  -4.030  -9.301  0.00  0.00     0.174 HD
HETATM   12  H           1     -24.719  -4.044  -7.493  0.00  0.00     0.174 HD
HETATM   13  H           1     -22.745  -3.876  -6.489  0.00  0.00     0.177 HD
ENDBRANCH   4   5
ENDBRANCH   3   4
ENDBRANCH   2   3
ENDBRANCH   1   2
BRANCH   1  14
HETATM   14  C           1     -21.796  -6.309  -4.697  0.00  0.00     0.196 C 
HETATM   15  O           1     -21.782  -6.089  -3.467  0.00  0.00    -0.646 OA
HETATM   16  O           1     -22.850  -6.146  -5.349  0.00  0.00    -0.646 OA
ENDBRANCH   1  14
BRANCH   1  17
HETATM   17  N           1     -20.640  -8.189  -5.679  0.00  0.00    -0.345 N 
HETATM   18  C           1     -19.946  -9.090  -4.916  0.00  0.00     0.249 C 
HETATM   19  O           1     -19.252  -8.703  -4.006  0.00  0.00    -0.271 OA
HETATM   20  H           1     -21.221  -8.514  -6.441  0.00  0.00     0.163 HD
BRANCH  18  21
HETATM   21  C           1     -20.049 -10.566  -5.211  0.00  0.00     0.278 C 
BRANCH  21  22
HETATM   22  C           1     -18.711 -11.076  -5.729  0.00  0.00     0.017 C 
HETATM   23  C           1     -18.035 -11.916  -4.652  0.00  0.00     0.012 C 
HETATM   24  C           1     -18.939 -11.930  -6.970  0.00  0.00     0.012 C 
ENDBRANCH  21  22
BRANCH  21  25
HETATM   25  N           1     -21.107 -10.795  -6.251  0.00  0.00    -0.066 N 
HETATM   26  H           1     -21.565  -9.886  -6.487  0.00  0.00     0.275 HD
HETATM   27  H           1     -20.670 -11.200  -7.109  0.00  0.00     0.275 HD
HETATM   28  H           1     -21.823 -11.459  -5.878  0.00  0.00     0.275 HD
ENDBRANCH  21  25
ENDBRANCH  18  21
ENDBRANCH   1  17
TORSDOF 9
ENDMDL
MODEL 6
REMARK VINA RESULT:      -5.8     12.902     15.114
REMARK  9 active torsions:
REMARK  status: ('A' for Active; 'I' for Inactive)
REMARK       I    between atoms: N_1  and  C_15 
REMARK       I    between atoms: N_2  and  C_15 
REMARK    1  A    between atoms: N_2  and  C_21 
REMARK       I    between atoms: C_5  and  N_20 
REMARK    2  A    between atoms: C_5  and  C_14 
REMARK    3  A    between atoms: C_9  and  C_24 
REMARK    4  A    between atoms: C_9  and  C_19 
REMARK    5  A    between atoms: C_9  and  N_20 
REMARK    6  A    between atoms: C_10  and  C_14 
REMARK    7  A    between atoms: C_14  and  N_26 
REMARK    8  A    between atoms: C_21  and  C_23 
REMARK    9  A    between atoms: C_23  and  C_24 
ROOT
HETATM    1  C           1     -20.968  -6.565  -5.040  0.00  0.00     0.185 C 
ENDROOT
BRANCH   1   2
HETATM    2  C           1     -22.027  -6.767  -3.965  0.00  0.00     0.038 C 
BRANCH   2   3
HETATM    3  C           1     -21.606  -6.044  -2.692  0.00  0.00     0.023 C 
BRANCH   3   4
HETATM    4  C           1     -21.848  -6.948  -1.490  0.00  0.00     0.138 C 
BRANCH   4   5
HETATM    5  N           1     -20.882  -8.055  -1.506  0.00  0.00    -0.227 N 
HETATM    6  C           1     -21.253  -9.224  -1.193  0.00  0.00     0.665 C 
HETATM    7  N           1     -22.458  -9.439  -0.866  0.00  0.00    -0.235 N 
HETATM    8  N           1     -20.399 -10.204  -1.208  0.00  0.00    -0.235 N 
HETATM    9  H           1     -23.148  -8.648  -0.855  0.00  0.00     0.174 HD
HETATM   10  H           1     -22.766 -10.409  -0.607  0.00  0.00     0.174 HD
HETATM   11  H           1     -20.707 -11.168  -0.949  0.00  0.00     0.174 HD
HETATM   12  H           1     -19.406 -10.026  -1.477  0.00  0.00     0.174 HD
HETATM   13  H           1     -19.883  -7.877  -1.777  0.00  0.00     0.177 HD
ENDBRANCH   4   5
ENDBRANCH   3   4
ENDBRANCH   2   3
ENDBRANCH   1   2
BRANCH   1  14
HETATM   14  C           1     -20.112  -7.803  -5.143  0.00  0.00     0.196 C 
HETATM   15  O           1     -19.304  -7.928  -6.089  0.00  0.00    -0.646 OA
HETATM   16  O           1     -20.211  -8.705  -4.283  0.00  0.00    -0.646 OA
ENDBRANCH   1  14
BRANCH   1  17
HETATM   17  N           1     -21.615  -6.317  -6.314  0.00  0.00    -0.345 N 
HETATM   18  C           1     -21.598  -5.060  -6.856  0.00  0.00     0.249 C 
HETATM   19  O           1     -21.046  -4.157  -6.274  0.00  0.00    -0.271 OA
HETATM   20  H           1     -22.078  -7.073  -6.802  0.00  0.00     0.163 HD
BRANCH  18  21
HETATM   21  C           1     -22.271  -4.802  -8.181  0.00  0.00     0.278 C 
BRANCH  21  22
HETATM   22  C           1     -21.360  -3.951  -9.057  0.00  0.00     0.017 C 
HETATM   23  C           1     -20.107  -4.743  -9.407  0.00  0.00     0.012 C 
HETATM   24  C           1     -22.096  -3.573 -10.336  0.00  0.00     0.012 C 
ENDBRANCH  21  22
BRANCH  21  25
HETATM   25  N           1     -23.564  -4.076  -7.953  0.00  0.00    -0.066 N 
HETATM   26  H           1     -24.335  -4.770  -7.823  0.00  0.00     0.275 HD
HETATM   27  H           1     -23.484  -3.479  -7.099  0.00  0.00     0.275 HD
HETATM   28  H           1     -23.775  -3.473  -8.780  0.00  0.00     0.275 HD
ENDBRANCH  21  25
ENDBRANCH  18  21
ENDBRANCH   1  17
TORSDOF 9
ENDMDL
MODEL 7
REMARK VINA RESULT:      -5.8      1.635      2.209
REMARK  9 active torsions:
REMARK  status: ('A' for Active; 'I' for Inactive)
REMARK       I    between atoms: N_1  and  C_15 
REMARK       I    between atoms: N_2  and  C_15 
REMARK    1  A    between atoms: N_2  and  C_21 
REMARK       I    between atoms: C_5  and  N_20 
REMARK    2  A    between atoms: C_5  and  C_14 
REMARK    3  A    between atoms: C_9  and  C_24 
REMARK    4  A    between atoms: C_9  and  C_19 
REMARK    5  A    between atoms: C_9  and  N_20 
REMARK    6  A    between atoms: C_10  and  C_14 
REMARK    7  A    between atoms: C_14  and  N_26 
REMARK    8  A    between atoms: C_21  and  C_23 
REMARK    9  A    between atoms: C_23  and  C_24 
ROOT
HETATM    1  C           1     -26.050  -6.030 -17.101  0.00  0.00     0.185 C 
ENDROOT
BRANCH   1   2
HETATM    2  C           1     -27.282  -5.135 -17.106  0.00  0.00     0.038 C 
BRANCH   2   3
HETATM    3  C           1     -27.971  -5.224 -18.460  0.00  0.00     0.023 C 
BRANCH   3   4
HETATM    4  C           1     -29.428  -5.629 -18.265  0.00  0.00     0.138 C 
BRANCH   4   5
HETATM    5  N           1     -29.521  -6.619 -17.182  0.00  0.00    -0.227 N 
HETATM    6  C           1     -29.493  -7.855 -17.452  0.00  0.00     0.665 C 
HETATM    7  N           1     -29.385  -8.239 -18.654  0.00  0.00    -0.235 N 
HETATM    8  N           1     -29.576  -8.731 -16.495  0.00  0.00    -0.235 N 
HETATM    9  H           1     -29.318  -7.532 -19.427  0.00  0.00     0.174 HD
HETATM   10  H           1     -29.362  -9.265 -18.877  0.00  0.00     0.174 HD
HETATM   11  H           1     -29.553  -9.752 -16.718  0.00  0.00     0.174 HD
HETATM   12  H           1     -29.665  -8.414 -15.503  0.00  0.00     0.174 HD
HETATM   13  H           1     -29.611  -6.301 -16.186  0.00  0.00     0.177 HD
ENDBRANCH   4   5
ENDBRANCH   3   4
ENDBRANCH   2   3
ENDBRANCH   1   2
BRANCH   1  14
HETATM   14  C           1     -26.076  -6.918 -15.883  0.00  0.00     0.196 C 
HETATM   15  O           1     -27.163  -7.173 -15.318  0.00  0.00    -0.646 OA
HETATM   16  O           1     -25.013  -7.401 -15.437  0.00  0.00    -0.646 OA
ENDBRANCH   1  14
BRANCH   1  17
HETATM   17  N           1     -26.045  -6.850 -18.297  0.00  0.00    -0.345 N 
HETATM   18  C           1     -24.870  -7.090 -18.957  0.00  0.00     0.249 C 
HETATM   19  O           1     -23.837  -6.618 -18.544  0.00  0.00    -0.271 OA
HETATM   20  H           1     -26.909  -7.244 -18.643  0.00  0.00     0.163 HD
BRANCH  18  21
HETATM   21  C           1     -24.864  -7.943 -20.201  0.00  0.00     0.278 C 
BRANCH  21  22
HETATM   22  C           1     -23.734  -7.497 -21.119  0.00  0.00     0.017 C 
HETATM   23  C           1     -22.624  -8.540 -21.105  0.00  0.00     0.012 C 
HETATM   24  C           1     -24.266  -7.341 -22.538  0.00  0.00     0.012 C 
ENDBRANCH  21  22
BRANCH  21  25
HETATM   25  N           1     -26.175  -7.795 -20.915  0.00  0.00    -0.066 N 
HETATM   26  H           1     -26.764  -8.640 -20.740  0.00  0.00     0.275 HD
HETATM   27  H           1     -26.671  -6.945 -20.562  0.00  0.00     0.275 HD
HETATM   28  H           1     -26.004  -7.697 -21.941  0.00  0.00     0.275 HD
ENDBRANCH  21  25
ENDBRANCH  18  21
ENDBRANCH   1  17
TORSDOF 9
ENDMDL
MODEL 8
REMARK VINA RESULT:      -5.8     15.901     18.530
REMARK  9 active torsions:
REMARK  status: ('A' for Active; 'I' for Inactive)
REMARK       I    between atoms: N_1  and  C_15 
REMARK       I    between atoms: N_2  and  C_15 
REMARK    1  A    between atoms: N_2  and  C_21 
REMARK       I    between atoms: C_5  and  N_20 
REMARK    2  A    between atoms: C_5  and  C_14 
REMARK    3  A    between atoms: C_9  and  C_24 
REMARK    4  A    between atoms: C_9  and  C_19 
REMARK    5  A    between atoms: C_9  and  N_20 
REMARK    6  A    between atoms: C_10  and  C_14 
REMARK    7  A    between atoms: C_14  and  N_26 
REMARK    8  A    between atoms: C_21  and  C_23 
REMARK    9  A    between atoms: C_23  and  C_24 
ROOT
HETATM    1  C           1     -21.198  -8.158  -0.679  0.00  0.00     0.185 C 
ENDROOT
BRANCH   1   2
HETATM    2  C           1     -20.286  -7.724  -1.819  0.00  0.00     0.038 C 
BRANCH   2   3
HETATM    3  C           1     -20.037  -8.903  -2.749  0.00  0.00     0.023 C 
BRANCH   3   4
HETATM    4  C           1     -20.366  -8.500  -4.181  0.00  0.00     0.138 C 
BRANCH   4   5
HETATM    5  N           1     -21.501  -7.565  -4.180  0.00  0.00    -0.227 N 
HETATM    6  C           1     -21.782  -6.910  -5.225  0.00  0.00     0.665 C 
HETATM    7  N           1     -21.087  -7.059  -6.273  0.00  0.00    -0.235 N 
HETATM    8  N           1     -22.786  -6.084  -5.224  0.00  0.00    -0.235 N 
HETATM    9  H           1     -20.276  -7.726  -6.274  0.00  0.00     0.174 HD
HETATM   10  H           1     -21.320  -6.515  -7.140  0.00  0.00     0.174 HD
HETATM   11  H           1     -23.018  -5.543  -6.087  0.00  0.00     0.174 HD
HETATM   12  H           1     -23.360  -5.961  -4.359  0.00  0.00     0.174 HD
HETATM   13  H           1     -22.077  -7.441  -3.312  0.00  0.00     0.177 HD
ENDBRANCH   4   5
ENDBRANCH   3   4
ENDBRANCH   2   3
ENDBRANCH   1   2
BRANCH   1  14
HETATM   14  C           1     -22.427  -7.284  -0.656  0.00  0.00     0.196 C 
HETATM   15  O           1     -22.546  -6.350  -1.480  0.00  0.00    -0.646 OA
HETATM   16  O           1     -23.327  -7.492   0.186  0.00  0.00    -0.646 OA
ENDBRANCH   1  14
BRANCH   1  17
HETATM   17  N           1     -21.592  -9.540  -0.876  0.00  0.00    -0.345 N 
HETATM   18  C           1     -21.381 -10.459   0.116  0.00  0.00     0.249 C 
HETATM   19  O           1     -20.868 -10.120   1.156  0.00  0.00    -0.271 OA
HETATM   20  H           1     -22.021  -9.824  -1.747  0.00  0.00     0.163 HD
BRANCH  18  21
HETATM   21  C           1     -21.791 -11.896  -0.088  0.00  0.00     0.278 C 
BRANCH  21  22
HETATM   22  C           1     -23.240 -12.079   0.345  0.00  0.00     0.017 C 
HETATM   23  C           1     -24.119 -12.266  -0.885  0.00  0.00     0.012 C 
HETATM   24  C           1     -23.351 -13.307   1.239  0.00  0.00     0.012 C 
ENDBRANCH  21  22
BRANCH  21  25
HETATM   25  N           1     -20.909 -12.790   0.733  0.00  0.00    -0.066 N 
HETATM   26  H           1     -19.976 -12.879   0.270  0.00  0.00     0.275 HD
HETATM   27  H           1     -20.787 -12.379   1.687  0.00  0.00     0.275 HD
HETATM   28  H           1     -21.349 -13.734   0.815  0.00  0.00     0.275 HD
ENDBRANCH  21  25
ENDBRANCH  18  21
ENDBRANCH   1  17
TORSDOF 9
ENDMDL
MODEL 9
REMARK VINA RESULT:      -5.4      2.401      7.069
REMARK  9 active torsions:
REMARK  status: ('A' for Active; 'I' for Inactive)
REMARK       I    between atoms: N_1  and  C_15 
REMARK       I    between atoms: N_2  and  C_15 
REMARK    1  A    between atoms: N_2  and  C_21 
REMARK       I    between atoms: C_5  and  N_20 
REMARK    2  A    between atoms: C_5  and  C_14 
REMARK    3  A    between atoms: C_9  and  C_24 
REMARK    4  A    between atoms: C_9  and  C_19 
REMARK    5  A    between atoms: C_9  and  N_20 
REMARK    6  A    between atoms: C_10  and  C_14 
REMARK    7  A    between atoms: C_14  and  N_26 
REMARK    8  A    between atoms: C_21  and  C_23 
REMARK    9  A    between atoms: C_23  and  C_24 
ROOT
HETATM    1  C           1     -26.167  -6.992 -19.047  0.00  0.00     0.185 C 
ENDROOT
BRANCH   1   2
HETATM    2  C           1     -25.826  -6.548 -20.464  0.00  0.00     0.038 C 
BRANCH   2   3
HETATM    3  C           1     -25.330  -7.743 -21.266  0.00  0.00     0.023 C 
BRANCH   3   4
HETATM    4  C           1     -24.082  -7.348 -22.048  0.00  0.00     0.138 C 
BRANCH   4   5
HETATM    5  N           1     -23.508  -8.540 -22.689  0.00  0.00    -0.227 N 
HETATM    6  C           1     -22.487  -9.097 -22.190  0.00  0.00     0.665 C 
HETATM    7  N           1     -21.960  -8.629 -21.138  0.00  0.00    -0.235 N 
HETATM    8  N           1     -21.979 -10.151 -22.758  0.00  0.00    -0.235 N 
HETATM    9  H           1     -22.371  -7.778 -20.680  0.00  0.00     0.174 HD
HETATM   10  H           1     -21.114  -9.091 -20.724  0.00  0.00     0.174 HD
HETATM   11  H           1     -21.136 -10.610 -22.345  0.00  0.00     0.174 HD
HETATM   12  H           1     -22.413 -10.537 -23.626  0.00  0.00     0.174 HD
HETATM   13  H           1     -23.944  -8.928 -23.562  0.00  0.00     0.177 HD
ENDBRANCH   4   5
ENDBRANCH   3   4
ENDBRANCH   2   3
ENDBRANCH   1   2
BRANCH   1  14
HETATM   14  C           1     -24.993  -6.723 -18.139  0.00  0.00     0.196 C 
HETATM   15  O           1     -25.184  -6.454 -16.933  0.00  0.00    -0.646 OA
HETATM   16  O           1     -23.829  -6.770 -18.591  0.00  0.00    -0.646 OA
ENDBRANCH   1  14
BRANCH   1  17
HETATM   17  N           1     -27.322  -6.254 -18.575  0.00  0.00    -0.345 N 
HETATM   18  C           1     -28.573  -6.800 -18.681  0.00  0.00     0.249 C 
HETATM   19  O           1     -28.715  -7.897 -19.166  0.00  0.00    -0.271 OA
HETATM   20  H           1     -27.204  -5.335 -18.169  0.00  0.00     0.163 HD
BRANCH  18  21
HETATM   21  C           1     -29.775  -6.032 -18.189  0.00  0.00     0.278 C 
BRANCH  21  22
HETATM   22  C           1     -29.325  -4.955 -17.210  0.00  0.00     0.017 C 
HETATM   23  C           1     -30.088  -3.666 -17.487  0.00  0.00     0.012 C 
HETATM   24  C           1     -29.608  -5.415 -15.786  0.00  0.00     0.012 C 
ENDBRANCH  21  22
BRANCH  21  25
HETATM   25  N           1     -30.720  -6.971 -17.499  0.00  0.00    -0.066 N 
HETATM   26  H           1     -31.190  -7.576 -18.209  0.00  0.00     0.275 HD
HETATM   27  H           1     -30.189  -7.570 -16.827  0.00  0.00     0.275 HD
HETATM   28  H           1     -31.440  -6.420 -16.979  0.00  0.00     0.275 HD
ENDBRANCH  21  25
ENDBRANCH  18  21
ENDBRANCH   1  17
TORSDOF 9
ENDMDL
