MODEL 1
REMARK VINA RESULT:      -8.2      0.000      0.000
REMARK  5 active torsions:
REMARK  status: ('A' for Active; 'I' for Inactive)
REMARK    1  A    between atoms: C_1  and  C_2 
REMARK       I    between atoms: C_9  and  N_19 
REMARK    2  A    between atoms: C_9  and  C_11 
REMARK    3  A    between atoms: C_11  and  C_13 
REMARK    4  A    between atoms: C_11  and  N_21 
REMARK    5  A    between atoms: C_13  and  C_18 
ROOT
HETATM    1  C           1     -21.236  -6.042  -5.404  0.00  0.00     0.279 C 
ENDROOT
BRANCH   1   2
HETATM    2  C           1     -20.275  -7.175  -5.665  0.00  0.00     0.251 C 
HETATM    3  N           1     -20.267  -8.270  -4.842  0.00  0.00    -0.336 N 
HETATM    4  C           1     -19.105  -8.950  -4.278  0.00  0.00     0.188 C 
HETATM    5  C           1     -21.419  -9.010  -4.336  0.00  0.00     0.127 C 
HETATM    6  C           1     -19.528  -9.270  -2.855  0.00  0.00     0.038 C 
HETATM    7  C           1     -21.051  -9.315  -2.895  0.00  0.00     0.022 C 
HETATM    8  O           1     -19.514  -7.118  -6.600  0.00  0.00    -0.271 OA
BRANCH   4   9
HETATM    9  C           1     -18.798 -10.212  -5.045  0.00  0.00     0.196 C 
HETATM   10  O           1     -18.637 -11.291  -4.434  0.00  0.00    -0.646 OA
HETATM   11  O           1     -18.706 -10.181  -6.292  0.00  0.00    -0.646 OA
ENDBRANCH   4   9
ENDBRANCH   1   2
BRANCH   1  12
HETATM   12  C           1     -20.803  -4.814  -6.194  0.00  0.00     0.083 C 
BRANCH  12  13
HETATM   13  C           1     -21.793  -4.547  -7.284  0.00  0.00    -0.028 A 
HETATM   14  C           1     -23.151  -4.391  -7.128  0.00  0.00     0.096 A 
HETATM   15  N           1     -23.692  -4.163  -8.365  0.00  0.00    -0.365 N 
HETATM   16  C           1     -22.705  -4.168  -9.325  0.00  0.00     0.042 A 
HETATM   17  H           1     -24.713  -4.007  -8.555  0.00  0.00     0.165 HD
HETATM   18  C           1     -22.788  -3.981 -10.710  0.00  0.00     0.030 A 
HETATM   19  C           1     -21.497  -4.409  -8.669  0.00  0.00    -0.002 A 
HETATM   20  C           1     -21.598  -4.041 -11.443  0.00  0.00     0.002 A 
HETATM   21  C           1     -20.378  -4.279 -10.814  0.00  0.00     0.001 A 
HETATM   22  C           1     -20.312  -4.464  -9.428  0.00  0.00     0.014 A 
ENDBRANCH  12  13
ENDBRANCH   1  12
BRANCH   1  23
HETATM   23  N           1     -21.240  -5.719  -3.940  0.00  0.00    -0.066 N 
HETATM   24  H           1     -21.010  -4.708  -3.805  0.00  0.00     0.275 HD
HETATM   25  H           1     -22.187  -5.914  -3.542  0.00  0.00     0.275 HD
HETATM   26  H           1     -20.527  -6.307  -3.451  0.00  0.00     0.275 HD
ENDBRANCH   1  23
TORSDOF 5
ENDMDL
MODEL 2
REMARK VINA RESULT:      -8.0      2.920      7.546
REMARK  5 active torsions:
REMARK  status: ('A' for Active; 'I' for Inactive)
REMARK    1  A    between atoms: C_1  and  C_2 
REMARK       I    between atoms: C_9  and  N_19 
REMARK    2  A    between atoms: C_9  and  C_11 
REMARK    3  A    between atoms: C_11  and  C_13 
REMARK    4  A    between atoms: C_11  and  N_21 
REMARK    5  A    between atoms: C_13  and  C_18 
ROOT
HETATM    1  C           1     -20.836  -5.006  -7.000  0.00  0.00     0.279 C 
ENDROOT
BRANCH   1   2
HETATM    2  C           1     -22.174  -4.634  -7.588  0.00  0.00     0.251 C 
HETATM    3  N           1     -22.297  -4.436  -8.938  0.00  0.00    -0.336 N 
HETATM    4  C           1     -22.996  -3.350  -9.617  0.00  0.00     0.188 C 
HETATM    5  C           1     -21.756  -5.265 -10.011  0.00  0.00     0.127 C 
HETATM    6  C           1     -22.079  -2.995 -10.774  0.00  0.00     0.038 C 
HETATM    7  C           1     -21.266  -4.258 -11.036  0.00  0.00     0.022 C 
HETATM    8  O           1     -23.137  -4.513  -6.870  0.00  0.00    -0.271 OA
BRANCH   4   9
HETATM    9  C           1     -24.343  -3.810 -10.120  0.00  0.00     0.196 C 
HETATM   10  O           1     -24.823  -4.892  -9.717  0.00  0.00    -0.646 OA
HETATM   11  O           1     -24.978  -3.110 -10.938  0.00  0.00    -0.646 OA
ENDBRANCH   4   9
ENDBRANCH   1   2
BRANCH   1  12
HETATM   12  C           1     -20.901  -4.905  -5.481  0.00  0.00     0.083 C 
BRANCH  12  13
HETATM   13  C           1     -20.787  -6.272  -4.884  0.00  0.00    -0.028 A 
HETATM   14  C           1     -20.227  -7.376  -5.484  0.00  0.00     0.096 A 
HETATM   15  N           1     -20.322  -8.424  -4.606  0.00  0.00    -0.365 N 
HETATM   16  C           1     -20.936  -8.016  -3.444  0.00  0.00     0.042 A 
HETATM   17  H           1     -19.977  -9.397  -4.793  0.00  0.00     0.165 HD
HETATM   18  C           1     -21.243  -8.736  -2.282  0.00  0.00     0.030 A 
HETATM   19  C           1     -21.240  -6.663  -3.593  0.00  0.00    -0.002 A 
HETATM   20  C           1     -21.880  -8.047  -1.245  0.00  0.00     0.002 A 
HETATM   21  C           1     -22.195  -6.695  -1.366  0.00  0.00     0.001 A 
HETATM   22  C           1     -21.880  -5.991  -2.534  0.00  0.00     0.014 A 
ENDBRANCH  12  13
ENDBRANCH   1  12
BRANCH   1  23
HETATM   23  N           1     -19.785  -4.071  -7.518  0.00  0.00    -0.066 N 
HETATM   24  H           1     -19.881  -3.142  -7.049  0.00  0.00     0.275 HD
HETATM   25  H           1     -18.838  -4.465  -7.317  0.00  0.00     0.275 HD
HETATM   26  H           1     -19.902  -3.953  -8.551  0.00  0.00     0.275 HD
ENDBRANCH   1  23
TORSDOF 5
ENDMDL
MODEL 3
REMARK VINA RESULT:      -7.7      1.796      2.079
REMARK  5 active torsions:
REMARK  status: ('A' for Active; 'I' for Inactive)
REMARK    1  A    between atoms: C_1  and  C_2 
REMARK       I    between atoms: C_9  and  N_19 
REMARK    2  A    between atoms: C_9  and  C_11 
REMARK    3  A    between atoms: C_11  and  C_13 
REMARK    4  A    between atoms: C_11  and  N_21 
REMARK    5  A    between atoms: C_13  and  C_18 
ROOT
HETATM    1  C           1     -20.971  -5.522  -5.381  0.00  0.00     0.279 C 
ENDROOT
BRANCH   1   2
HETATM    2  C           1     -21.061  -6.970  -4.966  0.00  0.00     0.251 C 
HETATM    3  N           1     -21.433  -7.293  -3.687  0.00  0.00    -0.336 N 
HETATM    4  C           1     -20.818  -8.281  -2.806  0.00  0.00     0.188 C 
HETATM    5  C           1     -22.530  -6.725  -2.910  0.00  0.00     0.127 C 
HETATM    6  C           1     -20.820  -7.604  -1.446  0.00  0.00     0.038 C 
HETATM    7  C           1     -21.950  -6.583  -1.514  0.00  0.00     0.022 C 
HETATM    8  O           1     -20.807  -7.843  -5.759  0.00  0.00    -0.271 OA
BRANCH   4   9
HETATM    9  C           1     -21.631  -9.552  -2.775  0.00  0.00     0.196 C 
HETATM   10  O           1     -21.978 -10.045  -1.680  0.00  0.00    -0.646 OA
HETATM   11  O           1     -21.958 -10.112  -3.844  0.00  0.00    -0.646 OA
ENDBRANCH   4   9
ENDBRANCH   1   2
BRANCH   1  12
HETATM   12  C           1     -20.432  -5.433  -6.802  0.00  0.00     0.083 C 
BRANCH  12  13
HETATM   13  C           1     -21.453  -4.785  -7.684  0.00  0.00    -0.028 A 
HETATM   14  C           1     -22.733  -4.433  -7.321  0.00  0.00     0.096 A 
HETATM   15  N           1     -23.339  -3.870  -8.413  0.00  0.00    -0.365 N 
HETATM   16  C           1     -22.471  -3.851  -9.482  0.00  0.00     0.042 A 
HETATM   17  H           1     -24.323  -3.506  -8.433  0.00  0.00     0.165 HD
HETATM   18  C           1     -22.652  -3.377 -10.787  0.00  0.00     0.030 A 
HETATM   19  C           1     -21.274  -4.423  -9.048  0.00  0.00    -0.002 A 
HETATM   20  C           1     -21.575  -3.492 -11.672  0.00  0.00     0.002 A 
HETATM   21  C           1     -20.369  -4.058 -11.266  0.00  0.00     0.001 A 
HETATM   22  C           1     -20.204  -4.527  -9.957  0.00  0.00     0.014 A 
ENDBRANCH  12  13
ENDBRANCH   1  12
BRANCH   1  23
HETATM   23  N           1     -20.049  -4.792  -4.450  0.00  0.00    -0.066 N 
HETATM   24  H           1     -19.070  -5.129  -4.593  0.00  0.00     0.275 HD
HETATM   25  H           1     -20.095  -3.767  -4.647  0.00  0.00     0.275 HD
HETATM   26  H           1     -20.338  -4.973  -3.462  0.00  0.00     0.275 HD
ENDBRANCH   1  23
TORSDOF 5
ENDMDL
MODEL 4
REMARK VINA RESULT:      -7.7      1.821      2.341
REMARK  5 active torsions:
REMARK  status: ('A' for Active; 'I' for Inactive)
REMARK    1  A    between atoms: C_1  and  C_2 
REMARK       I    between atoms: C_9  and  N_19 
REMARK    2  A    between atoms: C_9  and  C_11 
REMARK    3  A    between atoms: C_11  and  C_13 
REMARK    4  A    between atoms: C_11  and  N_21 
REMARK    5  A    between atoms: C_13  and  C_18 
ROOT
HETATM    1  C           1     -20.243  -5.920  -6.013  0.00  0.00     0.279 C 
ENDROOT
BRANCH   1   2
HETATM    2  C           1     -20.787  -6.409  -4.693  0.00  0.00     0.251 C 
HETATM    3  N           1     -20.642  -7.724  -4.339  0.00  0.00    -0.336 N 
HETATM    4  C           1     -21.652  -8.607  -3.763  0.00  0.00     0.188 C 
HETATM    5  C           1     -19.443  -8.549  -4.453  0.00  0.00     0.127 C 
HETATM    6  C           1     -21.426  -9.929  -4.474  0.00  0.00     0.038 C 
HETATM    7  C           1     -19.970  -9.893  -4.925  0.00  0.00     0.022 C 
HETATM    8  O           1     -21.349  -5.642  -3.950  0.00  0.00    -0.271 OA
BRANCH   4   9
HETATM    9  C           1     -21.451  -8.755  -2.275  0.00  0.00     0.196 C 
HETATM   10  O           1     -21.403  -9.894  -1.761  0.00  0.00    -0.646 OA
HETATM   11  O           1     -21.330  -7.739  -1.556  0.00  0.00    -0.646 OA
ENDBRANCH   4   9
ENDBRANCH   1   2
BRANCH   1  12
HETATM   12  C           1     -20.607  -4.454  -6.202  0.00  0.00     0.083 C 
BRANCH  12  13
HETATM   13  C           1     -21.661  -4.333  -7.258  0.00  0.00    -0.028 A 
HETATM   14  C           1     -23.021  -4.347  -7.053  0.00  0.00     0.096 A 
HETATM   15  N           1     -23.631  -4.211  -8.272  0.00  0.00    -0.365 N 
HETATM   16  C           1     -22.686  -4.110  -9.268  0.00  0.00     0.042 A 
HETATM   17  H           1     -24.669  -4.189  -8.425  0.00  0.00     0.165 HD
HETATM   18  C           1     -22.842  -3.959 -10.651  0.00  0.00     0.030 A 
HETATM   19  C           1     -21.435  -4.184  -8.655  0.00  0.00    -0.002 A 
HETATM   20  C           1     -21.681  -3.883 -11.428  0.00  0.00     0.002 A 
HETATM   21  C           1     -20.419  -3.954 -10.842  0.00  0.00     0.001 A 
HETATM   22  C           1     -20.281  -4.104  -9.458  0.00  0.00     0.014 A 
ENDBRANCH  12  13
ENDBRANCH   1  12
BRANCH   1  23
HETATM   23  N           1     -20.835  -6.730  -7.128  0.00  0.00    -0.066 N 
HETATM   24  H           1     -21.021  -7.702  -6.793  0.00  0.00     0.275 HD
HETATM   25  H           1     -21.732  -6.293  -7.438  0.00  0.00     0.275 HD
HETATM   26  H           1     -20.165  -6.761  -7.930  0.00  0.00     0.275 HD
ENDBRANCH   1  23
TORSDOF 5
ENDMDL
MODEL 5
REMARK VINA RESULT:      -7.6      2.576      3.384
REMARK  5 active torsions:
REMARK  status: ('A' for Active; 'I' for Inactive)
REMARK    1  A    between atoms: C_1  and  C_2 
REMARK       I    between atoms: C_9  and  N_19 
REMARK    2  A    between atoms: C_9  and  C_11 
REMARK    3  A    between atoms: C_11  and  C_13 
REMARK    4  A    between atoms: C_11  and  N_21 
REMARK    5  A    between atoms: C_13  and  C_18 
ROOT
HETATM    1  C           1     -21.006  -6.771  -5.145  0.00  0.00     0.279 C 
ENDROOT
BRANCH   1   2
HETATM    2  C           1     -21.518  -6.909  -3.732  0.00  0.00     0.251 C 
HETATM    3  N           1     -21.067  -7.929  -2.938  0.00  0.00    -0.336 N 
HETATM    4  C           1     -21.860  -8.803  -2.077  0.00  0.00     0.188 C 
HETATM    5  C           1     -19.690  -8.382  -2.766  0.00  0.00     0.127 C 
HETATM    6  C           1     -21.237 -10.173  -2.279  0.00  0.00     0.038 C 
HETATM    7  C           1     -19.806  -9.895  -2.728  0.00  0.00     0.022 C 
HETATM    8  O           1     -22.323  -6.119  -3.301  0.00  0.00    -0.271 OA
BRANCH   4   9
HETATM    9  C           1     -21.758  -8.372  -0.635  0.00  0.00     0.196 C 
HETATM   10  O           1     -22.192  -7.253  -0.285  0.00  0.00    -0.646 OA
HETATM   11  O           1     -21.240  -9.133   0.211  0.00  0.00    -0.646 OA
ENDBRANCH   4   9
ENDBRANCH   1   2
BRANCH   1  12
HETATM   12  C           1     -21.770  -5.663  -5.858  0.00  0.00     0.083 C 
BRANCH  12  13
HETATM   13  C           1     -20.929  -5.109  -6.965  0.00  0.00    -0.028 A 
HETATM   14  C           1     -19.578  -4.860  -6.910  0.00  0.00     0.096 A 
HETATM   15  N           1     -19.194  -4.358  -8.126  0.00  0.00    -0.365 N 
HETATM   16  C           1     -20.278  -4.278  -8.971  0.00  0.00     0.042 A 
HETATM   17  H           1     -18.215  -4.076  -8.377  0.00  0.00     0.165 HD
HETATM   18  C           1     -20.362  -3.831 -10.295  0.00  0.00     0.030 A 
HETATM   19  C           1     -21.385  -4.745  -8.262  0.00  0.00    -0.002 A 
HETATM   20  C           1     -21.618  -3.865 -10.910  0.00  0.00     0.002 A 
HETATM   21  C           1     -22.741  -4.327 -10.227  0.00  0.00     0.001 A 
HETATM   22  C           1     -22.639  -4.771  -8.903  0.00  0.00     0.014 A 
ENDBRANCH  12  13
ENDBRANCH   1  12
BRANCH   1  23
HETATM   23  N           1     -21.205  -8.066  -5.876  0.00  0.00    -0.066 N 
HETATM   24  H           1     -21.759  -8.722  -5.280  0.00  0.00     0.275 HD
HETATM   25  H           1     -21.722  -7.887  -6.766  0.00  0.00     0.275 HD
HETATM   26  H           1     -20.275  -8.491  -6.090  0.00  0.00     0.275 HD
ENDBRANCH   1  23
TORSDOF 5
ENDMDL
MODEL 6
REMARK VINA RESULT:      -7.2      4.243      6.367
REMARK  5 active torsions:
REMARK  status: ('A' for Active; 'I' for Inactive)
REMARK    1  A    between atoms: C_1  and  C_2 
REMARK       I    between atoms: C_9  and  N_19 
REMARK    2  A    between atoms: C_9  and  C_11 
REMARK    3  A    between atoms: C_11  and  C_13 
REMARK    4  A    between atoms: C_11  and  N_21 
REMARK    5  A    between atoms: C_13  and  C_18 
ROOT
HETATM    1  C           1     -19.768  -8.266  -4.913  0.00  0.00     0.279 C 
ENDROOT
BRANCH   1   2
HETATM    2  C           1     -19.109  -9.592  -5.202  0.00  0.00     0.251 C 
HETATM    3  N           1     -18.005  -9.977  -4.490  0.00  0.00    -0.336 N 
HETATM    4  C           1     -16.773 -10.565  -5.008  0.00  0.00     0.188 C 
HETATM    5  C           1     -17.802  -9.889  -3.046  0.00  0.00     0.127 C 
HETATM    6  C           1     -15.680  -9.885  -4.202  0.00  0.00     0.038 C 
HETATM    7  C           1     -16.357  -9.444  -2.909  0.00  0.00     0.022 C 
HETATM    8  O           1     -19.556 -10.314  -6.060  0.00  0.00    -0.271 OA
BRANCH   4   9
HETATM    9  C           1     -16.756 -12.058  -4.785  0.00  0.00     0.196 C 
HETATM   10  O           1     -15.777 -12.595  -4.222  0.00  0.00    -0.646 OA
HETATM   11  O           1     -17.721 -12.758  -5.162  0.00  0.00    -0.646 OA
ENDBRANCH   4   9
ENDBRANCH   1   2
BRANCH   1  12
HETATM   12  C           1     -21.243  -8.485  -4.605  0.00  0.00     0.083 C 
BRANCH  12  13
HETATM   13  C           1     -21.636  -7.655  -3.424  0.00  0.00    -0.028 A 
HETATM   14  C           1     -21.917  -6.309  -3.435  0.00  0.00     0.096 A 
HETATM   15  N           1     -22.232  -5.935  -2.156  0.00  0.00    -0.365 N 
HETATM   16  C           1     -22.160  -7.020  -1.312  0.00  0.00     0.042 A 
HETATM   17  H           1     -22.491  -4.961  -1.861  0.00  0.00     0.165 HD
HETATM   18  C           1     -22.395  -7.113   0.066  0.00  0.00     0.030 A 
HETATM   19  C           1     -21.785  -8.118  -2.087  0.00  0.00    -0.002 A 
HETATM   20  C           1     -22.241  -8.367   0.665  0.00  0.00     0.002 A 
HETATM   21  C           1     -21.869  -9.481  -0.085  0.00  0.00     0.001 A 
HETATM   22  C           1     -21.638  -9.371  -1.461  0.00  0.00     0.014 A 
ENDBRANCH  12  13
ENDBRANCH   1  12
BRANCH   1  23
HETATM   23  N           1     -19.634  -7.371  -6.109  0.00  0.00    -0.066 N 
HETATM   24  H           1     -18.623  -7.238  -6.335  0.00  0.00     0.275 HD
HETATM   25  H           1     -20.118  -7.808  -6.926  0.00  0.00     0.275 HD
HETATM   26  H           1     -20.069  -6.443  -5.900  0.00  0.00     0.275 HD
ENDBRANCH   1  23
TORSDOF 5
ENDMDL
MODEL 7
REMARK VINA RESULT:      -7.1     13.986     15.367
REMARK  5 active torsions:
REMARK  status: ('A' for Active; 'I' for Inactive)
REMARK    1  A    between atoms: C_1  and  C_2 
REMARK       I    between atoms: C_9  and  N_19 
REMARK    2  A    between atoms: C_9  and  C_11 
REMARK    3  A    between atoms: C_11  and  C_13 
REMARK    4  A    between atoms: C_11  and  N_21 
REMARK    5  A    between atoms: C_13  and  C_18 
ROOT
HETATM    1  C           1     -33.907  -4.765 -15.227  0.00  0.00     0.279 C 
ENDROOT
BRANCH   1   2
HETATM    2  C           1     -34.255  -3.612 -14.318  0.00  0.00     0.251 C 
HETATM    3  N           1     -34.017  -3.706 -12.972  0.00  0.00    -0.336 N 
HETATM    4  C           1     -34.910  -3.325 -11.882  0.00  0.00     0.188 C 
HETATM    5  C           1     -32.814  -4.209 -12.315  0.00  0.00     0.127 C 
HETATM    6  C           1     -34.731  -4.436 -10.862  0.00  0.00     0.038 C 
HETATM    7  C           1     -33.349  -5.014 -11.144  0.00  0.00     0.022 C 
HETATM    8  O           1     -34.742  -2.607 -14.776  0.00  0.00    -0.271 OA
BRANCH   4   9
HETATM    9  C           1     -34.509  -1.991 -11.302  0.00  0.00     0.196 C 
HETATM   10  O           1     -34.560  -0.961 -12.008  0.00  0.00    -0.646 OA
HETATM   11  O           1     -34.127  -1.915 -10.114  0.00  0.00    -0.646 OA
ENDBRANCH   4   9
ENDBRANCH   1   2
BRANCH   1  12
HETATM   12  C           1     -33.256  -4.234 -16.497  0.00  0.00     0.083 C 
BRANCH  12  13
HETATM   13  C           1     -32.178  -5.175 -16.936  0.00  0.00    -0.028 A 
HETATM   14  C           1     -32.331  -6.513 -17.212  0.00  0.00     0.096 A 
HETATM   15  N           1     -31.108  -7.009 -17.579  0.00  0.00    -0.365 N 
HETATM   16  C           1     -30.161  -6.011 -17.545  0.00  0.00     0.042 A 
HETATM   17  H           1     -30.920  -8.006 -17.847  0.00  0.00     0.165 HD
HETATM   18  C           1     -28.792  -6.051 -17.837  0.00  0.00     0.030 A 
HETATM   19  C           1     -30.810  -4.843 -17.142  0.00  0.00    -0.002 A 
HETATM   20  C           1     -28.068  -4.861 -17.713  0.00  0.00     0.002 A 
HETATM   21  C           1     -28.691  -3.680 -17.313  0.00  0.00     0.001 A 
HETATM   22  C           1     -30.060  -3.657 -17.025  0.00  0.00     0.014 A 
ENDBRANCH  12  13
ENDBRANCH   1  12
BRANCH   1  23
HETATM   23  N           1     -35.157  -5.516 -15.582  0.00  0.00    -0.066 N 
HETATM   24  H           1     -35.386  -6.192 -14.819  0.00  0.00     0.275 HD
HETATM   25  H           1     -35.947  -4.842 -15.696  0.00  0.00     0.275 HD
HETATM   26  H           1     -35.008  -6.036 -16.476  0.00  0.00     0.275 HD
ENDBRANCH   1  23
TORSDOF 5
ENDMDL
MODEL 8
REMARK VINA RESULT:      -6.7      4.474      6.683
REMARK  5 active torsions:
REMARK  status: ('A' for Active; 'I' for Inactive)
REMARK    1  A    between atoms: C_1  and  C_2 
REMARK       I    between atoms: C_9  and  N_19 
REMARK    2  A    between atoms: C_9  and  C_11 
REMARK    3  A    between atoms: C_11  and  C_13 
REMARK    4  A    between atoms: C_11  and  N_21 
REMARK    5  A    between atoms: C_13  and  C_18 
ROOT
HETATM    1  C           1     -19.885  -8.500  -4.930  0.00  0.00     0.279 C 
ENDROOT
BRANCH   1   2
HETATM    2  C           1     -19.062  -9.715  -5.281  0.00  0.00     0.251 C 
HETATM    3  N           1     -17.964 -10.039  -4.529  0.00  0.00    -0.336 N 
HETATM    4  C           1     -16.645 -10.440  -5.009  0.00  0.00     0.188 C 
HETATM    5  C           1     -17.857 -10.057  -3.073  0.00  0.00     0.127 C 
HETATM    6  C           1     -15.686  -9.719  -4.079  0.00  0.00     0.038 C 
HETATM    7  C           1     -16.483  -9.471  -2.803  0.00  0.00     0.022 C 
HETATM    8  O           1     -19.373 -10.403  -6.223  0.00  0.00    -0.271 OA
BRANCH   4   9
HETATM    9  C           1     -16.470 -11.935  -4.908  0.00  0.00     0.196 C 
HETATM   10  O           1     -15.468 -12.410  -4.330  0.00  0.00    -0.646 OA
HETATM   11  O           1     -17.326 -12.701  -5.402  0.00  0.00    -0.646 OA
ENDBRANCH   4   9
ENDBRANCH   1   2
BRANCH   1  12
HETATM   12  C           1     -21.348  -8.899  -4.787  0.00  0.00     0.083 C 
BRANCH  12  13
HETATM   13  C           1     -21.581  -9.458  -3.418  0.00  0.00    -0.028 A 
HETATM   14  C           1     -21.583 -10.791  -3.076  0.00  0.00     0.096 A 
HETATM   15  N           1     -21.834 -10.878  -1.732  0.00  0.00    -0.365 N 
HETATM   16  C           1     -21.996  -9.621  -1.196  0.00  0.00     0.042 A 
HETATM   17  H           1     -21.895 -11.775  -1.190  0.00  0.00     0.165 HD
HETATM   18  C           1     -22.265  -9.226   0.121  0.00  0.00     0.030 A 
HETATM   19  C           1     -21.841  -8.707  -2.239  0.00  0.00    -0.002 A 
HETATM   20  C           1     -22.379  -7.855   0.374  0.00  0.00     0.002 A 
HETATM   21  C           1     -22.229  -6.920  -0.648  0.00  0.00     0.001 A 
HETATM   22  C           1     -21.959  -7.332  -1.959  0.00  0.00     0.014 A 
ENDBRANCH  12  13
ENDBRANCH   1  12
BRANCH   1  23
HETATM   23  N           1     -19.750  -7.475  -6.017  0.00  0.00    -0.066 N 
HETATM   24  H           1     -20.038  -7.895  -6.930  0.00  0.00     0.275 HD
HETATM   25  H           1     -20.364  -6.657  -5.802  0.00  0.00     0.275 HD
HETATM   26  H           1     -18.755  -7.160  -6.077  0.00  0.00     0.275 HD
ENDBRANCH   1  23
TORSDOF 5
ENDMDL
MODEL 9
REMARK VINA RESULT:      -6.7     14.160     15.552
REMARK  5 active torsions:
REMARK  status: ('A' for Active; 'I' for Inactive)
REMARK    1  A    between atoms: C_1  and  C_2 
REMARK       I    between atoms: C_9  and  N_19 
REMARK    2  A    between atoms: C_9  and  C_11 
REMARK    3  A    between atoms: C_11  and  C_13 
REMARK    4  A    between atoms: C_11  and  N_21 
REMARK    5  A    between atoms: C_13  and  C_18 
ROOT
HETATM    1  C           1     -33.908  -4.641 -15.381  0.00  0.00     0.279 C 
ENDROOT
BRANCH   1   2
HETATM    2  C           1     -34.262  -3.535 -14.417  0.00  0.00     0.251 C 
HETATM    3  N           1     -33.998  -3.682 -13.081  0.00  0.00    -0.336 N 
HETATM    4  C           1     -34.879  -3.366 -11.960  0.00  0.00     0.188 C 
HETATM    5  C           1     -32.774  -4.190 -12.466  0.00  0.00     0.127 C 
HETATM    6  C           1     -34.661  -4.516 -10.993  0.00  0.00     0.038 C 
HETATM    7  C           1     -33.274  -5.055 -11.323  0.00  0.00     0.022 C 
HETATM    8  O           1     -34.775  -2.521 -14.822  0.00  0.00    -0.271 OA
BRANCH   4   9
HETATM    9  C           1     -34.493  -2.051 -11.329  0.00  0.00     0.196 C 
HETATM   10  O           1     -34.062  -2.024 -10.155  0.00  0.00    -0.646 OA
HETATM   11  O           1     -34.602  -0.989 -11.978  0.00  0.00    -0.646 OA
ENDBRANCH   4   9
ENDBRANCH   1   2
BRANCH   1  12
HETATM   12  C           1     -33.786  -4.070 -16.787  0.00  0.00     0.083 C 
BRANCH  12  13
HETATM   13  C           1     -32.343  -4.016 -17.181  0.00  0.00    -0.028 A 
HETATM   14  C           1     -31.614  -2.878 -17.437  0.00  0.00     0.096 A 
HETATM   15  N           1     -30.339  -3.261 -17.763  0.00  0.00    -0.365 N 
HETATM   16  C           1     -30.230  -4.633 -17.723  0.00  0.00     0.042 A 
HETATM   17  H           1     -29.559  -2.604 -18.008  0.00  0.00     0.165 HD
HETATM   18  C           1     -29.130  -5.461 -17.979  0.00  0.00     0.030 A 
HETATM   19  C           1     -31.481  -5.133 -17.359  0.00  0.00    -0.002 A 
HETATM   20  C           1     -29.319  -6.842 -17.858  0.00  0.00     0.002 A 
HETATM   21  C           1     -30.557  -7.369 -17.495  0.00  0.00     0.001 A 
HETATM   22  C           1     -31.646  -6.527 -17.242  0.00  0.00     0.014 A 
ENDBRANCH  12  13
ENDBRANCH   1  12
BRANCH   1  23
HETATM   23  N           1     -34.983  -5.686 -15.357  0.00  0.00    -0.066 N 
HETATM   24  H           1     -34.577  -6.611 -15.627  0.00  0.00     0.275 HD
HETATM   25  H           1     -35.384  -5.751 -14.395  0.00  0.00     0.275 HD
HETATM   26  H           1     -35.737  -5.426 -16.034  0.00  0.00     0.275 HD
ENDBRANCH   1  23
TORSDOF 5
ENDMDL
