MODEL 1
REMARK VINA RESULT:      -6.7      0.000      0.000
REMARK  9 active torsions:
REMARK  status: ('A' for Active; 'I' for Inactive)
REMARK    1  A    between atoms: S_2  and  C_7 
REMARK    2  A    between atoms: C_3  and  C_6 
REMARK    3  A    between atoms: C_3  and  C_18 
REMARK    4  A    between atoms: C_3  and  N_22 
REMARK    5  A    between atoms: O_4  and  C_17 
REMARK       I    between atoms: C_6  and  N_12 
REMARK    6  A    between atoms: C_7  and  C_9 
REMARK    7  A    between atoms: C_8  and  C_18 
REMARK    8  A    between atoms: C_9  and  C_25 
REMARK    9  A    between atoms: C_9  and  N_12 
ROOT
HETATM    1  C           1     -22.138  -5.199  -6.734  0.00  0.00     0.278 C 
ENDROOT
BRANCH   1   2
HETATM    2  C           1     -21.275  -5.685  -5.595  0.00  0.00     0.249 C 
HETATM    3  N           1     -21.452  -6.945  -5.092  0.00  0.00    -0.344 N 
HETATM    4  H           1     -22.162  -7.551  -5.483  0.00  0.00     0.163 HD
HETATM    5  O           1     -20.428  -4.961  -5.128  0.00  0.00    -0.271 OA
BRANCH   3   6
HETATM    6  C           1     -20.624  -7.412  -3.997  0.00  0.00     0.194 C 
BRANCH   6   7
HETATM    7  C           1     -21.510  -7.857  -2.841  0.00  0.00     0.106 C 
BRANCH   7   8
HETATM    8  S           1     -22.103  -6.401  -1.935  0.00  0.00    -0.180 SA
HETATM    9  H           1     -21.975  -6.938  -0.708  0.00  0.00     0.101 HD
ENDBRANCH   7   8
ENDBRANCH   6   7
BRANCH   6  10
HETATM   10  C           1     -19.784  -8.576  -4.463  0.00  0.00     0.197 C 
HETATM   11  O           1     -19.979  -9.075  -5.592  0.00  0.00    -0.646 OA
HETATM   12  O           1     -18.892  -9.040  -3.719  0.00  0.00    -0.646 OA
ENDBRANCH   6  10
ENDBRANCH   3   6
ENDBRANCH   1   2
BRANCH   1  13
HETATM   13  C           1     -21.592  -3.876  -7.257  0.00  0.00     0.081 C 
BRANCH  13  14
HETATM   14  C           1     -21.624  -3.879  -8.753  0.00  0.00    -0.056 A 
HETATM   15  C           1     -22.826  -3.660  -9.425  0.00  0.00     0.010 A 
HETATM   16  C           1     -22.856  -3.661 -10.820  0.00  0.00     0.037 A 
HETATM   17  C           1     -21.684  -3.881 -11.542  0.00  0.00     0.065 A 
HETATM   18  C           1     -20.481  -4.099 -10.870  0.00  0.00     0.037 A 
HETATM   19  C           1     -20.451  -4.098  -9.476  0.00  0.00     0.010 A 
BRANCH  17  20
HETATM   20  O           1     -21.712  -3.882 -12.896  0.00  0.00    -0.361 OA
HETATM   21  H           1     -22.637  -3.778 -13.178  0.00  0.00     0.217 HD
ENDBRANCH  17  20
ENDBRANCH  13  14
ENDBRANCH   1  13
BRANCH   1  22
HETATM   22  N           1     -23.543  -5.002  -6.248  0.00  0.00    -0.066 N 
HETATM   23  H           1     -24.213  -5.268  -7.005  0.00  0.00     0.275 HD
HETATM   24  H           1     -23.708  -5.603  -5.409  0.00  0.00     0.275 HD
HETATM   25  H           1     -23.687  -4.000  -5.992  0.00  0.00     0.275 HD
ENDBRANCH   1  22
TORSDOF 9
ENDMDL
MODEL 2
REMARK VINA RESULT:      -6.7     13.432     16.024
REMARK  9 active torsions:
REMARK  status: ('A' for Active; 'I' for Inactive)
REMARK    1  A    between atoms: S_2  and  C_7 
REMARK    2  A    between atoms: C_3  and  C_6 
REMARK    3  A    between atoms: C_3  and  C_18 
REMARK    4  A    between atoms: C_3  and  N_22 
REMARK    5  A    between atoms: O_4  and  C_17 
REMARK       I    between atoms: C_6  and  N_12 
REMARK    6  A    between atoms: C_7  and  C_9 
REMARK    7  A    between atoms: C_8  and  C_18 
REMARK    8  A    between atoms: C_9  and  C_25 
REMARK    9  A    between atoms: C_9  and  N_12 
ROOT
HETATM    1  C           1     -34.011  -3.053 -11.441  0.00  0.00     0.278 C 
ENDROOT
BRANCH   1   2
HETATM    2  C           1     -34.617  -2.423 -12.671  0.00  0.00     0.249 C 
HETATM    3  N           1     -35.308  -1.246 -12.567  0.00  0.00    -0.344 N 
HETATM    4  H           1     -35.413  -0.799 -11.665  0.00  0.00     0.163 HD
HETATM    5  O           1     -34.491  -2.957 -13.748  0.00  0.00    -0.271 OA
BRANCH   3   6
HETATM    6  C           1     -35.890  -0.641 -13.748  0.00  0.00     0.194 C 
BRANCH   6   7
HETATM    7  C           1     -37.243  -0.036 -13.397  0.00  0.00     0.106 C 
BRANCH   7   8
HETATM    8  S           1     -37.521  -0.166 -11.609  0.00  0.00    -0.180 SA
HETATM    9  H           1     -38.496   0.758 -11.550  0.00  0.00     0.101 HD
ENDBRANCH   7   8
ENDBRANCH   6   7
BRANCH   6  10
HETATM   10  C           1     -34.974   0.444 -14.262  0.00  0.00     0.197 C 
HETATM   11  O           1     -34.434   0.327 -15.383  0.00  0.00    -0.646 OA
HETATM   12  O           1     -34.756   1.459 -13.565  0.00  0.00    -0.646 OA
ENDBRANCH   6  10
ENDBRANCH   3   6
ENDBRANCH   1   2
BRANCH   1  13
HETATM   13  C           1     -35.077  -3.854 -10.703  0.00  0.00     0.081 C 
BRANCH  13  14
HETATM   14  C           1     -34.610  -5.265 -10.526  0.00  0.00    -0.056 A 
HETATM   15  C           1     -35.387  -6.170  -9.802  0.00  0.00     0.010 A 
HETATM   16  C           1     -34.953  -7.485  -9.636  0.00  0.00     0.037 A 
HETATM   17  C           1     -33.742  -7.895 -10.194  0.00  0.00     0.065 A 
HETATM   18  C           1     -32.966  -6.990 -10.919  0.00  0.00     0.037 A 
HETATM   19  C           1     -33.400  -5.675 -11.084  0.00  0.00     0.010 A 
BRANCH  17  20
HETATM   20  O           1     -33.320  -9.172 -10.034  0.00  0.00    -0.361 OA
HETATM   21  H           1     -32.584  -9.169  -9.398  0.00  0.00     0.217 HD
ENDBRANCH  17  20
ENDBRANCH  13  14
ENDBRANCH   1  13
BRANCH   1  22
HETATM   22  N           1     -33.479  -1.980 -10.539  0.00  0.00    -0.066 N 
HETATM   23  H           1     -33.452  -2.333  -9.556  0.00  0.00     0.275 HD
HETATM   24  H           1     -32.514  -1.718 -10.842  0.00  0.00     0.275 HD
HETATM   25  H           1     -34.099  -1.141 -10.591  0.00  0.00     0.275 HD
ENDBRANCH   1  22
TORSDOF 9
ENDMDL
MODEL 3
REMARK VINA RESULT:      -6.6      3.060      7.400
REMARK  9 active torsions:
REMARK  status: ('A' for Active; 'I' for Inactive)
REMARK    1  A    between atoms: S_2  and  C_7 
REMARK    2  A    between atoms: C_3  and  C_6 
REMARK    3  A    between atoms: C_3  and  C_18 
REMARK    4  A    between atoms: C_3  and  N_22 
REMARK    5  A    between atoms: O_4  and  C_17 
REMARK       I    between atoms: C_6  and  N_12 
REMARK    6  A    between atoms: C_7  and  C_9 
REMARK    7  A    between atoms: C_8  and  C_18 
REMARK    8  A    between atoms: C_9  and  C_25 
REMARK    9  A    between atoms: C_9  and  N_12 
ROOT
HETATM    1  C           1     -21.177  -5.661  -6.940  0.00  0.00     0.278 C 
ENDROOT
BRANCH   1   2
HETATM    2  C           1     -21.777  -4.503  -7.700  0.00  0.00     0.249 C 
HETATM    3  N           1     -22.289  -4.699  -8.954  0.00  0.00    -0.344 N 
HETATM    4  H           1     -22.265  -5.621  -9.371  0.00  0.00     0.163 HD
HETATM    5  O           1     -21.805  -3.403  -7.200  0.00  0.00    -0.271 OA
BRANCH   3   6
HETATM    6  C           1     -22.864  -3.587  -9.684  0.00  0.00     0.194 C 
BRANCH   6   7
HETATM    7  C           1     -22.009  -3.285 -10.908  0.00  0.00     0.106 C 
BRANCH   7   8
HETATM    8  S           1     -20.534  -4.342 -10.895  0.00  0.00    -0.180 SA
HETATM    9  H           1     -20.409  -4.391  -9.557  0.00  0.00     0.101 HD
ENDBRANCH   7   8
ENDBRANCH   6   7
BRANCH   6  10
HETATM   10  C           1     -24.263  -3.944 -10.125  0.00  0.00     0.197 C 
HETATM   11  O           1     -24.750  -5.054  -9.820  0.00  0.00    -0.646 OA
HETATM   12  O           1     -24.934  -3.129 -10.793  0.00  0.00    -0.646 OA
ENDBRANCH   6  10
ENDBRANCH   3   6
ENDBRANCH   1   2
BRANCH   1  13
HETATM   13  C           1     -20.838  -5.218  -5.522  0.00  0.00     0.081 C 
BRANCH  13  14
HETATM   14  C           1     -21.126  -6.333  -4.567  0.00  0.00    -0.056 A 
HETATM   15  C           1     -21.284  -6.062  -3.207  0.00  0.00     0.010 A 
HETATM   16  C           1     -21.553  -7.100  -2.316  0.00  0.00     0.037 A 
HETATM   17  C           1     -21.664  -8.410  -2.783  0.00  0.00     0.065 A 
HETATM   18  C           1     -21.506  -8.681  -4.143  0.00  0.00     0.037 A 
HETATM   19  C           1     -21.237  -7.642  -5.034  0.00  0.00     0.010 A 
BRANCH  17  20
HETATM   20  O           1     -21.925  -9.419  -1.918  0.00  0.00    -0.361 OA
HETATM   21  H           1     -22.436 -10.097  -2.391  0.00  0.00     0.217 HD
ENDBRANCH  17  20
ENDBRANCH  13  14
ENDBRANCH   1  13
BRANCH   1  22
HETATM   22  N           1     -19.929  -6.120  -7.632  0.00  0.00    -0.066 N 
HETATM   23  H           1     -19.100  -5.650  -7.203  0.00  0.00     0.275 HD
HETATM   24  H           1     -19.834  -7.156  -7.527  0.00  0.00     0.275 HD
HETATM   25  H           1     -19.982  -5.876  -8.646  0.00  0.00     0.275 HD
ENDBRANCH   1  22
TORSDOF 9
ENDMDL
MODEL 4
REMARK VINA RESULT:      -6.6     14.118     17.168
REMARK  9 active torsions:
REMARK  status: ('A' for Active; 'I' for Inactive)
REMARK    1  A    between atoms: S_2  and  C_7 
REMARK    2  A    between atoms: C_3  and  C_6 
REMARK    3  A    between atoms: C_3  and  C_18 
REMARK    4  A    between atoms: C_3  and  N_22 
REMARK    5  A    between atoms: O_4  and  C_17 
REMARK       I    between atoms: C_6  and  N_12 
REMARK    6  A    between atoms: C_7  and  C_9 
REMARK    7  A    between atoms: C_8  and  C_18 
REMARK    8  A    between atoms: C_9  and  C_25 
REMARK    9  A    between atoms: C_9  and  N_12 
ROOT
HETATM    1  C           1     -36.007  -0.443 -11.350  0.00  0.00     0.278 C 
ENDROOT
BRANCH   1   2
HETATM    2  C           1     -36.806  -0.474 -12.630  0.00  0.00     0.249 C 
HETATM    3  N           1     -36.170  -0.357 -13.837  0.00  0.00    -0.344 N 
HETATM    4  H           1     -35.164  -0.249 -13.870  0.00  0.00     0.163 HD
HETATM    5  O           1     -38.007  -0.603 -12.590  0.00  0.00    -0.271 OA
BRANCH   3   6
HETATM    6  C           1     -36.937  -0.386 -15.066  0.00  0.00     0.194 C 
BRANCH   6   7
HETATM    7  C           1     -37.242   1.039 -15.511  0.00  0.00     0.106 C 
BRANCH   7   8
HETATM    8  S           1     -35.696   1.983 -15.622  0.00  0.00    -0.180 SA
HETATM    9  H           1     -35.993   2.853 -14.641  0.00  0.00     0.101 HD
ENDBRANCH   7   8
ENDBRANCH   6   7
BRANCH   6  10
HETATM   10  C           1     -36.140  -1.087 -16.140  0.00  0.00     0.197 C 
HETATM   11  O           1     -35.145  -1.776 -15.830  0.00  0.00    -0.646 OA
HETATM   12  O           1     -36.478  -0.979 -17.339  0.00  0.00    -0.646 OA
ENDBRANCH   6  10
ENDBRANCH   3   6
ENDBRANCH   1   2
BRANCH   1  13
HETATM   13  C           1     -36.277  -1.711 -10.551  0.00  0.00     0.081 C 
BRANCH  13  14
HETATM   14  C           1     -35.228  -2.732 -10.863  0.00  0.00    -0.056 A 
HETATM   15  C           1     -33.924  -2.327 -11.148  0.00  0.00     0.010 A 
HETATM   16  C           1     -32.946  -3.278 -11.438  0.00  0.00     0.037 A 
HETATM   17  C           1     -33.271  -4.634 -11.443  0.00  0.00     0.065 A 
HETATM   18  C           1     -34.575  -5.039 -11.156  0.00  0.00     0.037 A 
HETATM   19  C           1     -35.553  -4.089 -10.866  0.00  0.00     0.010 A 
BRANCH  17  20
HETATM   20  O           1     -32.322  -5.558 -11.724  0.00  0.00    -0.361 OA
HETATM   21  H           1     -32.506  -6.350 -11.192  0.00  0.00     0.217 HD
ENDBRANCH  17  20
ENDBRANCH  13  14
ENDBRANCH   1  13
BRANCH   1  22
HETATM   22  N           1     -36.409   0.753 -10.539  0.00  0.00    -0.066 N 
HETATM   23  H           1     -37.427   0.694 -10.313  0.00  0.00     0.275 HD
HETATM   24  H           1     -35.856   0.775  -9.653  0.00  0.00     0.275 HD
HETATM   25  H           1     -36.224   1.624 -11.087  0.00  0.00     0.275 HD
ENDBRANCH   1  22
TORSDOF 9
ENDMDL
MODEL 5
REMARK VINA RESULT:      -6.5      0.774      1.352
REMARK  9 active torsions:
REMARK  status: ('A' for Active; 'I' for Inactive)
REMARK    1  A    between atoms: S_2  and  C_7 
REMARK    2  A    between atoms: C_3  and  C_6 
REMARK    3  A    between atoms: C_3  and  C_18 
REMARK    4  A    between atoms: C_3  and  N_22 
REMARK    5  A    between atoms: O_4  and  C_17 
REMARK       I    between atoms: C_6  and  N_12 
REMARK    6  A    between atoms: C_7  and  C_9 
REMARK    7  A    between atoms: C_8  and  C_18 
REMARK    8  A    between atoms: C_9  and  C_25 
REMARK    9  A    between atoms: C_9  and  N_12 
ROOT
HETATM    1  C           1     -22.201  -5.290  -6.739  0.00  0.00     0.278 C 
ENDROOT
BRANCH   1   2
HETATM    2  C           1     -21.336  -5.907  -5.668  0.00  0.00     0.249 C 
HETATM    3  N           1     -21.368  -7.259  -5.456  0.00  0.00    -0.344 N 
HETATM    4  H           1     -21.972  -7.844  -6.018  0.00  0.00     0.163 HD
HETATM    5  O           1     -20.614  -5.207  -4.996  0.00  0.00    -0.271 OA
BRANCH   3   6
HETATM    6  C           1     -20.538  -7.851  -4.426  0.00  0.00     0.194 C 
BRANCH   6   7
HETATM    7  C           1     -21.415  -8.339  -3.281  0.00  0.00     0.106 C 
BRANCH   7   8
HETATM    8  S           1     -20.587  -8.011  -1.700  0.00  0.00    -0.180 SA
HETATM    9  H           1     -19.506  -8.771  -1.948  0.00  0.00     0.101 HD
ENDBRANCH   7   8
ENDBRANCH   6   7
BRANCH   6  10
HETATM   10  C           1     -19.774  -9.018  -5.005  0.00  0.00     0.197 C 
HETATM   11  O           1     -18.901  -8.822  -5.877  0.00  0.00    -0.646 OA
HETATM   12  O           1     -20.015 -10.179  -4.610  0.00  0.00    -0.646 OA
ENDBRANCH   6  10
ENDBRANCH   3   6
ENDBRANCH   1   2
BRANCH   1  13
HETATM   13  C           1     -21.564  -3.994  -7.224  0.00  0.00     0.081 C 
BRANCH  13  14
HETATM   14  C           1     -21.593  -3.951  -8.720  0.00  0.00    -0.056 A 
HETATM   15  C           1     -20.423  -4.179  -9.446  0.00  0.00     0.010 A 
HETATM   16  C           1     -20.449  -4.140 -10.840  0.00  0.00     0.037 A 
HETATM   17  C           1     -21.644  -3.873 -11.508  0.00  0.00     0.065 A 
HETATM   18  C           1     -22.814  -3.647 -10.782  0.00  0.00     0.037 A 
HETATM   19  C           1     -22.788  -3.686  -9.388  0.00  0.00     0.010 A 
BRANCH  17  20
HETATM   20  O           1     -21.670  -3.835 -12.862  0.00  0.00    -0.361 OA
HETATM   21  H           1     -20.795  -3.547 -13.172  0.00  0.00     0.217 HD
ENDBRANCH  17  20
ENDBRANCH  13  14
ENDBRANCH   1  13
BRANCH   1  22
HETATM   22  N           1     -23.561  -4.998  -6.177  0.00  0.00    -0.066 N 
HETATM   23  H           1     -24.011  -5.891  -5.876  0.00  0.00     0.275 HD
HETATM   24  H           1     -23.467  -4.360  -5.355  0.00  0.00     0.275 HD
HETATM   25  H           1     -24.149  -4.539  -6.908  0.00  0.00     0.275 HD
ENDBRANCH   1  22
TORSDOF 9
ENDMDL
MODEL 6
REMARK VINA RESULT:      -6.5     13.662     14.755
REMARK  9 active torsions:
REMARK  status: ('A' for Active; 'I' for Inactive)
REMARK    1  A    between atoms: S_2  and  C_7 
REMARK    2  A    between atoms: C_3  and  C_6 
REMARK    3  A    between atoms: C_3  and  C_18 
REMARK    4  A    between atoms: C_3  and  N_22 
REMARK    5  A    between atoms: O_4  and  C_17 
REMARK       I    between atoms: C_6  and  N_12 
REMARK    6  A    between atoms: C_7  and  C_9 
REMARK    7  A    between atoms: C_8  and  C_18 
REMARK    8  A    between atoms: C_9  and  C_25 
REMARK    9  A    between atoms: C_9  and  N_12 
ROOT
HETATM    1  C           1     -32.900  -4.485 -16.659  0.00  0.00     0.278 C 
ENDROOT
BRANCH   1   2
HETATM    2  C           1     -33.796  -4.465 -15.446  0.00  0.00     0.249 C 
HETATM    3  N           1     -33.300  -4.063 -14.235  0.00  0.00    -0.344 N 
HETATM    4  H           1     -32.333  -3.778 -14.154  0.00  0.00     0.163 HD
HETATM    5  O           1     -34.952  -4.805 -15.543  0.00  0.00    -0.271 OA
BRANCH   3   6
HETATM    6  C           1     -34.161  -4.045 -13.069  0.00  0.00     0.194 C 
BRANCH   6   7
HETATM    7  C           1     -33.390  -4.556 -11.858  0.00  0.00     0.106 C 
BRANCH   7   8
HETATM    8  S           1     -34.358  -5.843 -11.022  0.00  0.00    -0.180 SA
HETATM    9  H           1     -33.469  -6.834 -11.215  0.00  0.00     0.101 HD
ENDBRANCH   7   8
ENDBRANCH   6   7
BRANCH   6  10
HETATM   10  C           1     -34.626  -2.633 -12.808  0.00  0.00     0.197 C 
HETATM   11  O           1     -34.643  -2.186 -11.642  0.00  0.00    -0.646 OA
HETATM   12  O           1     -34.993  -1.910 -13.761  0.00  0.00    -0.646 OA
ENDBRANCH   6  10
ENDBRANCH   3   6
ENDBRANCH   1   2
BRANCH   1  13
HETATM   13  C           1     -31.443  -4.492 -16.216  0.00  0.00     0.081 C 
BRANCH  13  14
HETATM   14  C           1     -30.652  -5.397 -17.108  0.00  0.00    -0.056 A 
HETATM   15  C           1     -29.466  -4.944 -17.686  0.00  0.00     0.010 A 
HETATM   16  C           1     -28.729  -5.786 -18.518  0.00  0.00     0.037 A 
HETATM   17  C           1     -29.177  -7.082 -18.772  0.00  0.00     0.065 A 
HETATM   18  C           1     -30.363  -7.536 -18.193  0.00  0.00     0.037 A 
HETATM   19  C           1     -31.100  -6.694 -17.362  0.00  0.00     0.010 A 
BRANCH  17  20
HETATM   20  O           1     -28.461  -7.901 -19.579  0.00  0.00    -0.361 OA
HETATM   21  H           1     -28.293  -8.728 -19.096  0.00  0.00     0.217 HD
ENDBRANCH  17  20
ENDBRANCH  13  14
ENDBRANCH   1  13
BRANCH   1  22
HETATM   22  N           1     -33.161  -3.266 -17.494  0.00  0.00    -0.066 N 
HETATM   23  H           1     -33.564  -3.554 -18.414  0.00  0.00     0.275 HD
HETATM   24  H           1     -33.838  -2.643 -16.997  0.00  0.00     0.275 HD
HETATM   25  H           1     -32.266  -2.752 -17.651  0.00  0.00     0.275 HD
ENDBRANCH   1  22
TORSDOF 9
ENDMDL
MODEL 7
REMARK VINA RESULT:      -6.5      2.046      2.521
REMARK  9 active torsions:
REMARK  status: ('A' for Active; 'I' for Inactive)
REMARK    1  A    between atoms: S_2  and  C_7 
REMARK    2  A    between atoms: C_3  and  C_6 
REMARK    3  A    between atoms: C_3  and  C_18 
REMARK    4  A    between atoms: C_3  and  N_22 
REMARK    5  A    between atoms: O_4  and  C_17 
REMARK       I    between atoms: C_6  and  N_12 
REMARK    6  A    between atoms: C_7  and  C_9 
REMARK    7  A    between atoms: C_8  and  C_18 
REMARK    8  A    between atoms: C_9  and  C_25 
REMARK    9  A    between atoms: C_9  and  N_12 
ROOT
HETATM    1  C           1     -20.413  -5.084  -6.593  0.00  0.00     0.278 C 
ENDROOT
BRANCH   1   2
HETATM    2  C           1     -21.332  -5.833  -5.660  0.00  0.00     0.249 C 
HETATM    3  N           1     -20.824  -6.782  -4.814  0.00  0.00    -0.344 N 
HETATM    4  H           1     -19.832  -6.981  -4.815  0.00  0.00     0.163 HD
HETATM    5  O           1     -22.517  -5.595  -5.659  0.00  0.00    -0.271 OA
BRANCH   3   6
HETATM    6  C           1     -21.707  -7.502  -3.918  0.00  0.00     0.194 C 
BRANCH   6   7
HETATM    7  C           1     -21.293  -8.967  -3.863  0.00  0.00     0.106 C 
BRANCH   7   8
HETATM    8  S           1     -19.681  -9.173  -4.670  0.00  0.00    -0.180 SA
HETATM    9  H           1     -20.154  -9.780  -5.773  0.00  0.00     0.101 HD
ENDBRANCH   7   8
ENDBRANCH   6   7
BRANCH   6  10
HETATM   10  C           1     -21.618  -6.903  -2.535  0.00  0.00     0.197 C 
HETATM   11  O           1     -22.330  -5.922  -2.233  0.00  0.00    -0.646 OA
HETATM   12  O           1     -20.833  -7.390  -1.693  0.00  0.00    -0.646 OA
ENDBRANCH   6  10
ENDBRANCH   3   6
ENDBRANCH   1   2
BRANCH   1  13
HETATM   13  C           1     -21.117  -3.835  -7.106  0.00  0.00     0.081 C 
BRANCH  13  14
HETATM   14  C           1     -21.474  -4.018  -8.548  0.00  0.00    -0.056 A 
HETATM   15  C           1     -20.496  -3.872  -9.532  0.00  0.00     0.010 A 
HETATM   16  C           1     -20.827  -4.043 -10.876  0.00  0.00     0.037 A 
HETATM   17  C           1     -22.137  -4.360 -11.237  0.00  0.00     0.065 A 
HETATM   18  C           1     -23.115  -4.507 -10.253  0.00  0.00     0.037 A 
HETATM   19  C           1     -22.783  -4.336  -8.909  0.00  0.00     0.010 A 
BRANCH  17  20
HETATM   20  O           1     -22.459  -4.527 -12.542  0.00  0.00    -0.361 OA
HETATM   21  H           1     -23.428  -4.577 -12.609  0.00  0.00     0.217 HD
ENDBRANCH  17  20
ENDBRANCH  13  14
ENDBRANCH   1  13
BRANCH   1  22
HETATM   22  N           1     -20.051  -5.965  -7.752  0.00  0.00    -0.066 N 
HETATM   23  H           1     -20.855  -6.012  -8.417  0.00  0.00     0.275 HD
HETATM   24  H           1     -19.217  -5.570  -8.241  0.00  0.00     0.275 HD
HETATM   25  H           1     -19.829  -6.925  -7.405  0.00  0.00     0.275 HD
ENDBRANCH   1  22
TORSDOF 9
ENDMDL
MODEL 8
REMARK VINA RESULT:      -6.1     13.629     16.245
REMARK  9 active torsions:
REMARK  status: ('A' for Active; 'I' for Inactive)
REMARK    1  A    between atoms: S_2  and  C_7 
REMARK    2  A    between atoms: C_3  and  C_6 
REMARK    3  A    between atoms: C_3  and  C_18 
REMARK    4  A    between atoms: C_3  and  N_22 
REMARK    5  A    between atoms: O_4  and  C_17 
REMARK       I    between atoms: C_6  and  N_12 
REMARK    6  A    between atoms: C_7  and  C_9 
REMARK    7  A    between atoms: C_8  and  C_18 
REMARK    8  A    between atoms: C_9  and  C_25 
REMARK    9  A    between atoms: C_9  and  N_12 
ROOT
HETATM    1  C           1     -34.294  -3.693 -12.581  0.00  0.00     0.278 C 
ENDROOT
BRANCH   1   2
HETATM    2  C           1     -34.619  -2.238 -12.345  0.00  0.00     0.249 C 
HETATM    3  N           1     -35.384  -1.553 -13.250  0.00  0.00    -0.344 N 
HETATM    4  H           1     -35.732  -2.022 -14.077  0.00  0.00     0.163 HD
HETATM    5  O           1     -34.204  -1.679 -11.358  0.00  0.00    -0.271 OA
BRANCH   3   6
HETATM    6  C           1     -35.696  -0.156 -13.024  0.00  0.00     0.194 C 
BRANCH   6   7
HETATM    7  C           1     -35.695   0.588 -14.354  0.00  0.00     0.106 C 
BRANCH   7   8
HETATM    8  S           1     -35.718  -0.608 -15.718  0.00  0.00    -0.180 SA
HETATM    9  H           1     -37.050  -0.793 -15.720  0.00  0.00     0.101 HD
ENDBRANCH   7   8
ENDBRANCH   6   7
BRANCH   6  10
HETATM   10  C           1     -37.059  -0.040 -12.385  0.00  0.00     0.197 C 
HETATM   11  O           1     -37.171   0.434 -11.235  0.00  0.00    -0.646 OA
HETATM   12  O           1     -38.075  -0.418 -13.009  0.00  0.00    -0.646 OA
ENDBRANCH   6  10
ENDBRANCH   3   6
ENDBRANCH   1   2
BRANCH   1  13
HETATM   13  C           1     -33.190  -4.128 -11.626  0.00  0.00     0.081 C 
BRANCH  13  14
HETATM   14  C           1     -33.550  -5.445 -11.011  0.00  0.00    -0.056 A 
HETATM   15  C           1     -32.644  -6.505 -11.053  0.00  0.00     0.010 A 
HETATM   16  C           1     -32.978  -7.731 -10.479  0.00  0.00     0.037 A 
HETATM   17  C           1     -34.219  -7.899  -9.865  0.00  0.00     0.065 A 
HETATM   18  C           1     -35.125  -6.839  -9.823  0.00  0.00     0.037 A 
HETATM   19  C           1     -34.791  -5.612 -10.396  0.00  0.00     0.010 A 
BRANCH  17  20
HETATM   20  O           1     -34.544  -9.090  -9.308  0.00  0.00    -0.361 OA
HETATM   21  H           1     -34.757  -8.936  -8.372  0.00  0.00     0.217 HD
ENDBRANCH  17  20
ENDBRANCH  13  14
ENDBRANCH   1  13
BRANCH   1  22
HETATM   22  N           1     -33.833  -3.880 -13.996  0.00  0.00    -0.066 N 
HETATM   23  H           1     -33.416  -2.988 -14.346  0.00  0.00     0.275 HD
HETATM   24  H           1     -33.116  -4.638 -14.030  0.00  0.00     0.275 HD
HETATM   25  H           1     -34.647  -4.143 -14.596  0.00  0.00     0.275 HD
ENDBRANCH   1  22
TORSDOF 9
ENDMDL
MODEL 9
REMARK VINA RESULT:      -6.0      2.243      2.642
REMARK  9 active torsions:
REMARK  status: ('A' for Active; 'I' for Inactive)
REMARK    1  A    between atoms: S_2  and  C_7 
REMARK    2  A    between atoms: C_3  and  C_6 
REMARK    3  A    between atoms: C_3  and  C_18 
REMARK    4  A    between atoms: C_3  and  N_22 
REMARK    5  A    between atoms: O_4  and  C_17 
REMARK       I    between atoms: C_6  and  N_12 
REMARK    6  A    between atoms: C_7  and  C_9 
REMARK    7  A    between atoms: C_8  and  C_18 
REMARK    8  A    between atoms: C_9  and  C_25 
REMARK    9  A    between atoms: C_9  and  N_12 
ROOT
HETATM    1  C           1     -20.306  -5.845  -5.836  0.00  0.00     0.278 C 
ENDROOT
BRANCH   1   2
HETATM    2  C           1     -21.317  -6.423  -4.877  0.00  0.00     0.249 C 
HETATM    3  N           1     -20.898  -7.151  -3.796  0.00  0.00    -0.344 N 
HETATM    4  H           1     -19.909  -7.300  -3.641  0.00  0.00     0.163 HD
HETATM    5  O           1     -22.498  -6.245  -5.064  0.00  0.00    -0.271 OA
BRANCH   3   6
HETATM    6  C           1     -21.869  -7.707  -2.876  0.00  0.00     0.194 C 
BRANCH   6   7
HETATM    7  C           1     -21.410  -9.088  -2.424  0.00  0.00     0.106 C 
BRANCH   7   8
HETATM    8  S           1     -19.631  -9.266  -2.728  0.00  0.00    -0.180 SA
HETATM    9  H           1     -19.281  -8.070  -2.223  0.00  0.00     0.101 HD
ENDBRANCH   7   8
ENDBRANCH   6   7
BRANCH   6  10
HETATM   10  C           1     -21.998  -6.803  -1.674  0.00  0.00     0.197 C 
HETATM   11  O           1     -22.143  -5.572  -1.831  0.00  0.00    -0.646 OA
HETATM   12  O           1     -21.961  -7.287  -0.521  0.00  0.00    -0.646 OA
ENDBRANCH   6  10
ENDBRANCH   3   6
ENDBRANCH   1   2
BRANCH   1  13
HETATM   13  C           1     -20.647  -4.387  -6.116  0.00  0.00     0.081 C 
BRANCH  13  14
HETATM   14  C           1     -21.072  -4.237  -7.543  0.00  0.00    -0.056 A 
HETATM   15  C           1     -22.429  -4.218  -7.868  0.00  0.00     0.010 A 
HETATM   16  C           1     -22.826  -4.078  -9.197  0.00  0.00     0.037 A 
HETATM   17  C           1     -21.867  -3.957 -10.203  0.00  0.00     0.065 A 
HETATM   18  C           1     -20.510  -3.975  -9.878  0.00  0.00     0.037 A 
HETATM   19  C           1     -20.113  -4.116  -8.549  0.00  0.00     0.010 A 
BRANCH  17  20
HETATM   20  O           1     -22.252  -3.821 -11.494  0.00  0.00    -0.361 OA
HETATM   21  H           1     -23.213  -3.671 -11.508  0.00  0.00     0.217 HD
ENDBRANCH  17  20
ENDBRANCH  13  14
ENDBRANCH   1  13
BRANCH   1  22
HETATM   22  N           1     -20.335  -6.620  -7.121  0.00  0.00    -0.066 N 
HETATM   23  H           1     -21.300  -6.594  -7.521  0.00  0.00     0.275 HD
HETATM   24  H           1     -19.664  -6.193  -7.799  0.00  0.00     0.275 HD
HETATM   25  H           1     -20.061  -7.611  -6.936  0.00  0.00     0.275 HD
ENDBRANCH   1  22
TORSDOF 9
ENDMDL
