MODEL 1
REMARK VINA RESULT:      -7.6      0.000      0.000
REMARK  11 active torsions:
REMARK  status: ('A' for Active; 'I' for Inactive)
REMARK    1  A    between atoms: C_2  and  C_17 
REMARK    2  A    between atoms: C_2  and  C_14 
REMARK    3  A    between atoms: C_7  and  C_18 
REMARK    4  A    between atoms: C_7  and  C_17 
REMARK    5  A    between atoms: N_8  and  C_30 
REMARK       I    between atoms: N_8  and  C_19 
REMARK    6  A    between atoms: N_12  and  C_14 
REMARK    7  A    between atoms: N_13  and  C_18 
REMARK    8  A    between atoms: C_16  and  C_30 
REMARK    9  A    between atoms: C_18  and  C_19 
REMARK   10  A    between atoms: C_26  and  C_27 
REMARK   11  A    between atoms: C_27  and  C_30 
ROOT
HETATM    1  H           1     -23.499  -6.030  -4.184  0.00  0.00     0.163 HD
HETATM    2  N           1     -22.528  -6.310  -4.207  0.00  0.00    -0.344 N 
HETATM    3  O           1     -21.174  -5.296  -2.750  0.00  0.00    -0.271 OA
HETATM    4  C           1     -21.783  -6.292  -3.058  0.00  0.00     0.249 C 
ENDROOT
BRANCH   2   5
HETATM    5  C           1     -21.924  -6.734  -5.455  0.00  0.00     0.190 C 
BRANCH   5   6
HETATM    6  C           1     -20.996  -7.895  -5.195  0.00  0.00     0.197 C 
HETATM    7  O           1     -19.760  -7.712  -5.165  0.00  0.00    -0.646 OA
HETATM    8  O           1     -21.463  -9.040  -5.010  0.00  0.00    -0.646 OA
ENDBRANCH   5   6
BRANCH   5   9
HETATM    9  C           1     -21.135  -5.577  -6.055  0.00  0.00     0.077 C 
BRANCH   9  10
HETATM   10  C           1     -21.938  -4.938  -7.146  0.00  0.00    -0.021 A 
HETATM   11  C           1     -21.482  -4.649  -8.462  0.00  0.00     0.005 A 
HETATM   12  C           1     -22.547  -4.059  -9.145  0.00  0.00     0.132 A 
HETATM   13  C           1     -20.262  -4.836  -9.141  0.00  0.00     0.014 A 
HETATM   14  N           1     -23.604  -3.995  -8.266  0.00  0.00    -0.077 N 
HETATM   15  C           1     -22.451  -3.643 -10.478  0.00  0.00     0.037 A 
HETATM   16  C           1     -23.247  -4.524  -7.054  0.00  0.00     0.195 A 
HETATM   17  H           1     -24.549  -3.597  -8.493  0.00  0.00     0.271 HD
HETATM   18  C           1     -21.230  -3.838 -11.130  0.00  0.00     0.002 A 
HETATM   19  C           1     -20.150  -4.426 -10.474  0.00  0.00     0.001 A 
ENDBRANCH   9  10
ENDBRANCH   5   9
ENDBRANCH   2   5
BRANCH   4  20
HETATM   20  C           1     -21.725  -7.515  -2.176  0.00  0.00     0.274 C 
BRANCH  20  21
HETATM   21  C           1     -22.232  -7.162  -0.784  0.00  0.00     0.043 C 
BRANCH  21  22
HETATM   22  C           1     -22.519  -8.441  -0.007  0.00  0.00     0.006 C 
BRANCH  22  23
HETATM   23  C           1     -21.538  -8.562   1.151  0.00  0.00     0.420 C 
BRANCH  23  24
HETATM   24  C           1     -20.804  -9.892   1.058  0.00  0.00     0.231 C 
BRANCH  24  25
HETATM   25  N           1     -21.660 -10.888   0.334  0.00  0.00    -0.079 N 
HETATM   26  H           1     -22.589 -10.956   0.806  0.00  0.00     0.274 HD
HETATM   27  H           1     -21.793 -10.580  -0.656  0.00  0.00     0.274 HD
HETATM   28  H           1     -21.192 -11.823   0.347  0.00  0.00     0.274 HD
ENDBRANCH  24  25
ENDBRANCH  23  24
ENDBRANCH  22  23
ENDBRANCH  21  22
ENDBRANCH  20  21
BRANCH  20  29
HETATM   29  N           1     -20.307  -7.996  -2.083  0.00  0.00    -0.067 N 
HETATM   30  H           1     -20.286  -8.936  -1.627  0.00  0.00     0.275 HD
HETATM   31  H           1     -19.900  -8.067  -3.043  0.00  0.00     0.275 HD
HETATM   32  H           1     -19.747  -7.321  -1.515  0.00  0.00     0.275 HD
ENDBRANCH  20  29
ENDBRANCH   4  20
TORSDOF 11
ENDMDL
MODEL 2
REMARK VINA RESULT:      -7.5      3.152      7.373
REMARK  11 active torsions:
REMARK  status: ('A' for Active; 'I' for Inactive)
REMARK    1  A    between atoms: C_2  and  C_17 
REMARK    2  A    between atoms: C_2  and  C_14 
REMARK    3  A    between atoms: C_7  and  C_18 
REMARK    4  A    between atoms: C_7  and  C_17 
REMARK    5  A    between atoms: N_8  and  C_30 
REMARK       I    between atoms: N_8  and  C_19 
REMARK    6  A    between atoms: N_12  and  C_14 
REMARK    7  A    between atoms: N_13  and  C_18 
REMARK    8  A    between atoms: C_16  and  C_30 
REMARK    9  A    between atoms: C_18  and  C_19 
REMARK   10  A    between atoms: C_26  and  C_27 
REMARK   11  A    between atoms: C_27  and  C_30 
ROOT
HETATM    1  H           1     -21.124  -5.742  -2.303  0.00  0.00     0.163 HD
HETATM    2  N           1     -21.347  -6.525  -2.903  0.00  0.00    -0.344 N 
HETATM    3  O           1     -22.740  -6.105  -4.597  0.00  0.00    -0.271 OA
HETATM    4  C           1     -21.609  -6.318  -4.231  0.00  0.00     0.249 C 
ENDROOT
BRANCH   2   5
HETATM    5  C           1     -21.388  -7.868  -2.359  0.00  0.00     0.190 C 
BRANCH   5   6
HETATM    6  C           1     -22.177  -7.864  -1.073  0.00  0.00     0.197 C 
HETATM    7  O           1     -22.795  -6.836  -0.722  0.00  0.00    -0.646 OA
HETATM    8  O           1     -22.214  -8.890  -0.358  0.00  0.00    -0.646 OA
ENDBRANCH   5   6
BRANCH   5   9
HETATM    9  C           1     -19.968  -8.347  -2.082  0.00  0.00     0.077 C 
BRANCH   9  10
HETATM   10  C           1     -19.530  -9.269  -3.177  0.00  0.00    -0.021 A 
HETATM   11  C           1     -18.192  -9.665  -3.455  0.00  0.00     0.005 A 
HETATM   12  C           1     -18.237 -10.525  -4.552  0.00  0.00     0.132 A 
HETATM   13  C           1     -16.943  -9.373  -2.873  0.00  0.00     0.014 A 
HETATM   14  N           1     -19.559 -10.640  -4.921  0.00  0.00    -0.077 N 
HETATM   15  C           1     -17.090 -11.109  -5.102  0.00  0.00     0.037 A 
HETATM   16  C           1     -20.349  -9.884  -4.096  0.00  0.00     0.195 A 
HETATM   17  H           1     -19.909 -11.223  -5.721  0.00  0.00     0.271 HD
HETATM   18  C           1     -15.862 -10.804  -4.508  0.00  0.00     0.002 A 
HETATM   19  C           1     -15.786  -9.949  -3.410  0.00  0.00     0.001 A 
ENDBRANCH   9  10
ENDBRANCH   5   9
ENDBRANCH   2   5
BRANCH   4  20
HETATM   20  C           1     -20.484  -6.352  -5.237  0.00  0.00     0.274 C 
BRANCH  20  21
HETATM   21  C           1     -20.147  -4.931  -5.671  0.00  0.00     0.043 C 
BRANCH  21  22
HETATM   22  C           1     -20.515  -4.746  -7.137  0.00  0.00     0.006 C 
BRANCH  22  23
HETATM   23  C           1     -21.511  -3.602  -7.269  0.00  0.00     0.420 C 
BRANCH  23  24
HETATM   24  C           1     -22.381  -3.824  -8.499  0.00  0.00     0.231 C 
BRANCH  24  25
HETATM   25  N           1     -23.799  -4.062  -8.074  0.00  0.00    -0.079 N 
HETATM   26  H           1     -24.235  -3.154  -7.795  0.00  0.00     0.274 HD
HETATM   27  H           1     -24.337  -4.476  -8.868  0.00  0.00     0.274 HD
HETATM   28  H           1     -23.814  -4.720  -7.263  0.00  0.00     0.274 HD
ENDBRANCH  24  25
ENDBRANCH  23  24
ENDBRANCH  22  23
ENDBRANCH  21  22
ENDBRANCH  20  21
BRANCH  20  29
HETATM   29  N           1     -20.908  -7.151  -6.433  0.00  0.00    -0.067 N 
HETATM   30  H           1     -20.717  -8.164  -6.263  0.00  0.00     0.275 HD
HETATM   31  H           1     -21.931  -7.014  -6.598  0.00  0.00     0.275 HD
HETATM   32  H           1     -20.374  -6.832  -7.273  0.00  0.00     0.275 HD
ENDBRANCH  20  29
ENDBRANCH   4  20
TORSDOF 11
ENDMDL
MODEL 3
REMARK VINA RESULT:      -7.4      2.239      8.437
REMARK  11 active torsions:
REMARK  status: ('A' for Active; 'I' for Inactive)
REMARK    1  A    between atoms: C_2  and  C_17 
REMARK    2  A    between atoms: C_2  and  C_14 
REMARK    3  A    between atoms: C_7  and  C_18 
REMARK    4  A    between atoms: C_7  and  C_17 
REMARK    5  A    between atoms: N_8  and  C_30 
REMARK       I    between atoms: N_8  and  C_19 
REMARK    6  A    between atoms: N_12  and  C_14 
REMARK    7  A    between atoms: N_13  and  C_18 
REMARK    8  A    between atoms: C_16  and  C_30 
REMARK    9  A    between atoms: C_18  and  C_19 
REMARK   10  A    between atoms: C_26  and  C_27 
REMARK   11  A    between atoms: C_27  and  C_30 
ROOT
HETATM    1  H           1     -19.297  -7.063  -6.161  0.00  0.00     0.163 HD
HETATM    2  N           1     -20.168  -6.634  -5.876  0.00  0.00    -0.344 N 
HETATM    3  O           1     -20.089  -4.448  -5.428  0.00  0.00    -0.271 OA
HETATM    4  C           1     -20.421  -5.325  -6.189  0.00  0.00     0.249 C 
ENDROOT
BRANCH   2   5
HETATM    5  C           1     -21.148  -7.404  -5.137  0.00  0.00     0.190 C 
BRANCH   5   6
HETATM    6  C           1     -22.111  -6.466  -4.451  0.00  0.00     0.197 C 
HETATM    7  O           1     -23.191  -6.167  -5.003  0.00  0.00    -0.646 OA
HETATM    8  O           1     -21.828  -5.989  -3.331  0.00  0.00    -0.646 OA
ENDBRANCH   5   6
BRANCH   5   9
HETATM    9  C           1     -20.440  -8.258  -4.093  0.00  0.00     0.077 C 
BRANCH   9  10
HETATM   10  C           1     -21.320  -9.408  -3.708  0.00  0.00    -0.021 A 
HETATM   11  C           1     -21.960  -9.588  -2.451  0.00  0.00     0.005 A 
HETATM   12  C           1     -22.677 -10.784  -2.523  0.00  0.00     0.132 A 
HETATM   13  C           1     -22.001  -8.845  -1.255  0.00  0.00     0.014 A 
HETATM   14  N           1     -22.470 -11.303  -3.782  0.00  0.00    -0.077 N 
HETATM   15  C           1     -23.433 -11.277  -1.453  0.00  0.00     0.037 A 
HETATM   16  C           1     -21.651 -10.479  -4.506  0.00  0.00     0.195 A 
HETATM   17  H           1     -22.882 -12.202  -4.134  0.00  0.00     0.271 HD
HETATM   18  C           1     -23.457 -10.522  -0.277  0.00  0.00     0.002 A 
HETATM   19  C           1     -22.753  -9.324  -0.176  0.00  0.00     0.001 A 
ENDBRANCH   9  10
ENDBRANCH   5   9
ENDBRANCH   2   5
BRANCH   4  20
HETATM   20  C           1     -21.111  -4.978  -7.485  0.00  0.00     0.274 C 
BRANCH  20  21
HETATM   21  C           1     -20.177  -4.143  -8.351  0.00  0.00     0.043 C 
BRANCH  21  22
HETATM   22  C           1     -20.097  -4.750  -9.746  0.00  0.00     0.006 C 
BRANCH  22  23
HETATM   23  C           1     -20.521  -3.713 -10.776  0.00  0.00     0.420 C 
BRANCH  23  24
HETATM   24  C           1     -22.031  -3.774 -10.966  0.00  0.00     0.231 C 
BRANCH  24  25
HETATM   25  N           1     -22.358  -4.717 -12.085  0.00  0.00    -0.079 N 
HETATM   26  H           1     -23.321  -5.098 -11.949  0.00  0.00     0.274 HD
HETATM   27  H           1     -22.311  -4.208 -12.996  0.00  0.00     0.274 HD
HETATM   28  H           1     -21.669  -5.503 -12.090  0.00  0.00     0.274 HD
ENDBRANCH  24  25
ENDBRANCH  23  24
ENDBRANCH  22  23
ENDBRANCH  21  22
ENDBRANCH  20  21
BRANCH  20  29
HETATM   29  N           1     -22.355  -4.193  -7.193  0.00  0.00    -0.067 N 
HETATM   30  H           1     -22.797  -4.549  -6.316  0.00  0.00     0.275 HD
HETATM   31  H           1     -22.109  -3.184  -7.073  0.00  0.00     0.275 HD
HETATM   32  H           1     -23.027  -4.295  -7.987  0.00  0.00     0.275 HD
ENDBRANCH  20  29
ENDBRANCH   4  20
TORSDOF 11
ENDMDL
MODEL 4
REMARK VINA RESULT:      -7.4      2.055      8.014
REMARK  11 active torsions:
REMARK  status: ('A' for Active; 'I' for Inactive)
REMARK    1  A    between atoms: C_2  and  C_17 
REMARK    2  A    between atoms: C_2  and  C_14 
REMARK    3  A    between atoms: C_7  and  C_18 
REMARK    4  A    between atoms: C_7  and  C_17 
REMARK    5  A    between atoms: N_8  and  C_30 
REMARK       I    between atoms: N_8  and  C_19 
REMARK    6  A    between atoms: N_12  and  C_14 
REMARK    7  A    between atoms: N_13  and  C_18 
REMARK    8  A    between atoms: C_16  and  C_30 
REMARK    9  A    between atoms: C_18  and  C_19 
REMARK   10  A    between atoms: C_26  and  C_27 
REMARK   11  A    between atoms: C_27  and  C_30 
ROOT
HETATM    1  H           1     -21.700  -7.996  -6.593  0.00  0.00     0.163 HD
HETATM    2  N           1     -20.942  -7.556  -6.088  0.00  0.00    -0.344 N 
HETATM    3  O           1     -19.472  -6.410  -7.317  0.00  0.00    -0.271 OA
HETATM    4  C           1     -20.403  -6.384  -6.548  0.00  0.00     0.249 C 
ENDROOT
BRANCH   2   5
HETATM    5  C           1     -20.428  -8.163  -4.876  0.00  0.00     0.190 C 
BRANCH   5   6
HETATM    6  C           1     -19.431  -9.237  -5.237  0.00  0.00     0.197 C 
HETATM    7  O           1     -18.288  -9.222  -4.732  0.00  0.00    -0.646 OA
HETATM    8  O           1     -19.748 -10.140  -6.041  0.00  0.00    -0.646 OA
ENDBRANCH   5   6
BRANCH   5   9
HETATM    9  C           1     -21.579  -8.782  -4.091  0.00  0.00     0.077 C 
BRANCH   9  10
HETATM   10  C           1     -21.744  -8.056  -2.792  0.00  0.00    -0.021 A 
HETATM   11  C           1     -21.524  -8.598  -1.496  0.00  0.00     0.005 A 
HETATM   12  C           1     -21.793  -7.584  -0.575  0.00  0.00     0.132 A 
HETATM   13  C           1     -21.118  -9.858  -1.015  0.00  0.00     0.014 A 
HETATM   14  N           1     -22.164  -6.471  -1.297  0.00  0.00    -0.077 N 
HETATM   15  C           1     -21.678  -7.768   0.807  0.00  0.00     0.037 A 
HETATM   16  C           1     -22.138  -6.746  -2.639  0.00  0.00     0.195 A 
HETATM   17  H           1     -22.429  -5.546  -0.878  0.00  0.00     0.271 HD
HETATM   18  C           1     -21.274  -9.028   1.260  0.00  0.00     0.002 A 
HETATM   19  C           1     -20.997 -10.059   0.364  0.00  0.00     0.001 A 
ENDBRANCH   9  10
ENDBRANCH   5   9
ENDBRANCH   2   5
BRANCH   4  20
HETATM   20  C           1     -20.972  -5.062  -6.095  0.00  0.00     0.274 C 
BRANCH  20  21
HETATM   21  C           1     -20.980  -4.085  -7.264  0.00  0.00     0.043 C 
BRANCH  21  22
HETATM   22  C           1     -22.350  -4.096  -7.927  0.00  0.00     0.006 C 
BRANCH  22  23
HETATM   23  C           1     -22.185  -3.965  -9.435  0.00  0.00     0.420 C 
BRANCH  23  24
HETATM   24  C           1     -23.533  -3.647 -10.068  0.00  0.00     0.231 C 
BRANCH  24  25
HETATM   25  N           1     -24.542  -3.377  -8.992  0.00  0.00    -0.079 N 
HETATM   26  H           1     -24.795  -4.274  -8.520  0.00  0.00     0.274 HD
HETATM   27  H           1     -24.137  -2.717  -8.291  0.00  0.00     0.274 HD
HETATM   28  H           1     -25.397  -2.952  -9.416  0.00  0.00     0.274 HD
ENDBRANCH  24  25
ENDBRANCH  23  24
ENDBRANCH  22  23
ENDBRANCH  21  22
ENDBRANCH  20  21
BRANCH  20  29
HETATM   29  N           1     -20.126  -4.507  -4.987  0.00  0.00    -0.067 N 
HETATM   30  H           1     -20.172  -3.463  -5.001  0.00  0.00     0.275 HD
HETATM   31  H           1     -20.481  -4.859  -4.069  0.00  0.00     0.275 HD
HETATM   32  H           1     -19.135  -4.813  -5.119  0.00  0.00     0.275 HD
ENDBRANCH  20  29
ENDBRANCH   4  20
TORSDOF 11
ENDMDL
MODEL 5
REMARK VINA RESULT:      -7.4      1.928      7.794
REMARK  11 active torsions:
REMARK  status: ('A' for Active; 'I' for Inactive)
REMARK    1  A    between atoms: C_2  and  C_17 
REMARK    2  A    between atoms: C_2  and  C_14 
REMARK    3  A    between atoms: C_7  and  C_18 
REMARK    4  A    between atoms: C_7  and  C_17 
REMARK    5  A    between atoms: N_8  and  C_30 
REMARK       I    between atoms: N_8  and  C_19 
REMARK    6  A    between atoms: N_12  and  C_14 
REMARK    7  A    between atoms: N_13  and  C_18 
REMARK    8  A    between atoms: C_16  and  C_30 
REMARK    9  A    between atoms: C_18  and  C_19 
REMARK   10  A    between atoms: C_26  and  C_27 
REMARK   11  A    between atoms: C_27  and  C_30 
ROOT
HETATM    1  H           1     -19.434  -7.506  -7.277  0.00  0.00     0.163 HD
HETATM    2  N           1     -19.817  -7.094  -6.437  0.00  0.00    -0.344 N 
HETATM    3  O           1     -19.448  -4.910  -6.153  0.00  0.00    -0.271 OA
HETATM    4  C           1     -20.227  -5.787  -6.441  0.00  0.00     0.249 C 
ENDROOT
BRANCH   2   5
HETATM    5  C           1     -19.934  -7.886  -5.228  0.00  0.00     0.190 C 
BRANCH   5   6
HETATM    6  C           1     -18.811  -8.893  -5.177  0.00  0.00     0.197 C 
HETATM    7  O           1     -18.489  -9.523  -6.208  0.00  0.00    -0.646 OA
HETATM    8  O           1     -18.203  -9.097  -4.104  0.00  0.00    -0.646 OA
ENDBRANCH   5   6
BRANCH   5   9
HETATM    9  C           1     -21.271  -8.616  -5.228  0.00  0.00     0.077 C 
BRANCH   9  10
HETATM   10  C           1     -21.544  -9.158  -3.859  0.00  0.00    -0.021 A 
HETATM   11  C           1     -21.800  -8.391  -2.689  0.00  0.00     0.005 A 
HETATM   12  C           1     -22.000  -9.292  -1.642  0.00  0.00     0.132 A 
HETATM   13  C           1     -21.885  -7.011  -2.421  0.00  0.00     0.014 A 
HETATM   14  N           1     -21.865 -10.557  -2.168  0.00  0.00    -0.077 N 
HETATM   15  C           1     -22.278  -8.879  -0.334  0.00  0.00     0.037 A 
HETATM   16  C           1     -21.589 -10.488  -3.507  0.00  0.00     0.195 A 
HETATM   17  H           1     -21.960 -11.447  -1.618  0.00  0.00     0.271 HD
HETATM   18  C           1     -22.356  -7.505  -0.092  0.00  0.00     0.002 A 
HETATM   19  C           1     -22.162  -6.581  -1.119  0.00  0.00     0.001 A 
ENDBRANCH   9  10
ENDBRANCH   5   9
ENDBRANCH   2   5
BRANCH   4  20
HETATM   20  C           1     -21.650  -5.444  -6.807  0.00  0.00     0.274 C 
BRANCH  20  21
HETATM   21  C           1     -21.711  -4.010  -7.318  0.00  0.00     0.043 C 
BRANCH  21  22
HETATM   22  C           1     -21.760  -4.015  -8.840  0.00  0.00     0.006 C 
BRANCH  22  23
HETATM   23  C           1     -23.088  -4.599  -9.304  0.00  0.00     0.420 C 
BRANCH  23  24
HETATM   24  C           1     -23.864  -3.544 -10.080  0.00  0.00     0.231 C 
BRANCH  24  25
HETATM   25  N           1     -25.304  -3.570  -9.661  0.00  0.00    -0.079 N 
HETATM   26  H           1     -25.912  -3.406 -10.495  0.00  0.00     0.274 HD
HETATM   27  H           1     -25.529  -4.501  -9.243  0.00  0.00     0.274 HD
HETATM   28  H           1     -25.473  -2.821  -8.952  0.00  0.00     0.274 HD
ENDBRANCH  24  25
ENDBRANCH  23  24
ENDBRANCH  22  23
ENDBRANCH  21  22
ENDBRANCH  20  21
BRANCH  20  29
HETATM   29  N           1     -22.523  -5.578  -5.594  0.00  0.00    -0.067 N 
HETATM   30  H           1     -21.939  -5.499  -4.732  0.00  0.00     0.275 HD
HETATM   31  H           1     -23.241  -4.818  -5.598  0.00  0.00     0.275 HD
HETATM   32  H           1     -22.999  -6.508  -5.608  0.00  0.00     0.275 HD
ENDBRANCH  20  29
ENDBRANCH   4  20
TORSDOF 11
ENDMDL
MODEL 6
REMARK VINA RESULT:      -7.1     13.845     15.314
REMARK  11 active torsions:
REMARK  status: ('A' for Active; 'I' for Inactive)
REMARK    1  A    between atoms: C_2  and  C_17 
REMARK    2  A    between atoms: C_2  and  C_14 
REMARK    3  A    between atoms: C_7  and  C_18 
REMARK    4  A    between atoms: C_7  and  C_17 
REMARK    5  A    between atoms: N_8  and  C_30 
REMARK       I    between atoms: N_8  and  C_19 
REMARK    6  A    between atoms: N_12  and  C_14 
REMARK    7  A    between atoms: N_13  and  C_18 
REMARK    8  A    between atoms: C_16  and  C_30 
REMARK    9  A    between atoms: C_18  and  C_19 
REMARK   10  A    between atoms: C_26  and  C_27 
REMARK   11  A    between atoms: C_27  and  C_30 
ROOT
HETATM    1  H           1     -34.328  -5.185 -16.151  0.00  0.00     0.163 HD
HETATM    2  N           1     -33.704  -4.557 -15.663  0.00  0.00    -0.344 N 
HETATM    3  O           1     -34.669  -2.902 -14.516  0.00  0.00    -0.271 OA
HETATM    4  C           1     -34.103  -3.968 -14.493  0.00  0.00     0.249 C 
ENDROOT
BRANCH   2   5
HETATM    5  C           1     -32.386  -4.281 -16.199  0.00  0.00     0.190 C 
BRANCH   5   6
HETATM    6  C           1     -32.501  -3.280 -17.322  0.00  0.00     0.197 C 
HETATM    7  O           1     -33.600  -2.739 -17.567  0.00  0.00    -0.646 OA
HETATM    8  O           1     -31.495  -2.992 -18.008  0.00  0.00    -0.646 OA
ENDBRANCH   5   6
BRANCH   5   9
HETATM    9  C           1     -31.774  -5.572 -16.730  0.00  0.00     0.077 C 
BRANCH   9  10
HETATM   10  C           1     -30.329  -5.635 -16.343  0.00  0.00    -0.021 A 
HETATM   11  C           1     -29.233  -5.843 -17.225  0.00  0.00     0.005 A 
HETATM   12  C           1     -28.073  -5.831 -16.449  0.00  0.00     0.132 A 
HETATM   13  C           1     -29.117  -6.039 -18.615  0.00  0.00     0.014 A 
HETATM   14  N           1     -28.462  -5.624 -15.145  0.00  0.00    -0.077 N 
HETATM   15  C           1     -26.797  -6.008 -16.997  0.00  0.00     0.037 A 
HETATM   16  C           1     -29.824  -5.505 -15.069  0.00  0.00     0.195 A 
HETATM   17  H           1     -27.807  -5.567 -14.326  0.00  0.00     0.271 HD
HETATM   18  C           1     -26.707  -6.201 -18.378  0.00  0.00     0.002 A 
HETATM   19  C           1     -27.848  -6.217 -19.178  0.00  0.00     0.001 A 
ENDBRANCH   9  10
ENDBRANCH   5   9
ENDBRANCH   2   5
BRANCH   4  20
HETATM   20  C           1     -33.838  -4.653 -13.174  0.00  0.00     0.274 C 
BRANCH  20  21
HETATM   21  C           1     -34.668  -3.991 -12.082  0.00  0.00     0.043 C 
BRANCH  21  22
HETATM   22  C           1     -33.782  -3.691 -10.880  0.00  0.00     0.006 C 
BRANCH  22  23
HETATM   23  C           1     -33.886  -2.213 -10.530  0.00  0.00     0.420 C 
BRANCH  23  24
HETATM   24  C           1     -35.129  -1.622 -11.181  0.00  0.00     0.231 C 
BRANCH  24  25
HETATM   25  N           1     -34.760  -0.374 -11.927  0.00  0.00    -0.079 N 
HETATM   26  H           1     -34.039   0.154 -11.385  0.00  0.00     0.274 HD
HETATM   27  H           1     -34.374  -0.627 -12.864  0.00  0.00     0.274 HD
HETATM   28  H           1     -35.610   0.221 -12.050  0.00  0.00     0.274 HD
ENDBRANCH  24  25
ENDBRANCH  23  24
ENDBRANCH  22  23
ENDBRANCH  21  22
ENDBRANCH  20  21
BRANCH  20  29
HETATM   29  N           1     -32.382  -4.535 -12.834  0.00  0.00    -0.067 N 
HETATM   30  H           1     -31.840  -5.258 -13.360  0.00  0.00     0.275 HD
HETATM   31  H           1     -32.040  -3.584 -13.098  0.00  0.00     0.275 HD
HETATM   32  H           1     -32.251  -4.681 -11.808  0.00  0.00     0.275 HD
ENDBRANCH  20  29
ENDBRANCH   4  20
TORSDOF 11
ENDMDL
MODEL 7
REMARK VINA RESULT:      -7.0     13.659     15.038
REMARK  11 active torsions:
REMARK  status: ('A' for Active; 'I' for Inactive)
REMARK    1  A    between atoms: C_2  and  C_17 
REMARK    2  A    between atoms: C_2  and  C_14 
REMARK    3  A    between atoms: C_7  and  C_18 
REMARK    4  A    between atoms: C_7  and  C_17 
REMARK    5  A    between atoms: N_8  and  C_30 
REMARK       I    between atoms: N_8  and  C_19 
REMARK    6  A    between atoms: N_12  and  C_14 
REMARK    7  A    between atoms: N_13  and  C_18 
REMARK    8  A    between atoms: C_16  and  C_30 
REMARK    9  A    between atoms: C_18  and  C_19 
REMARK   10  A    between atoms: C_26  and  C_27 
REMARK   11  A    between atoms: C_27  and  C_30 
ROOT
HETATM    1  H           1     -34.104  -5.410 -16.042  0.00  0.00     0.163 HD
HETATM    2  N           1     -33.562  -4.623 -15.709  0.00  0.00    -0.344 N 
HETATM    3  O           1     -34.724  -2.862 -14.981  0.00  0.00    -0.271 OA
HETATM    4  C           1     -34.053  -3.828 -14.709  0.00  0.00     0.249 C 
ENDROOT
BRANCH   2   5
HETATM    5  C           1     -32.265  -4.339 -16.290  0.00  0.00     0.190 C 
BRANCH   5   6
HETATM    6  C           1     -32.428  -3.364 -17.430  0.00  0.00     0.197 C 
HETATM    7  O           1     -31.450  -3.081 -18.155  0.00  0.00    -0.646 OA
HETATM    8  O           1     -33.542  -2.840 -17.650  0.00  0.00    -0.646 OA
ENDBRANCH   5   6
BRANCH   5   9
HETATM    9  C           1     -31.648  -5.631 -16.812  0.00  0.00     0.077 C 
BRANCH   9  10
HETATM   10  C           1     -30.207  -5.696 -16.408  0.00  0.00    -0.021 A 
HETATM   11  C           1     -29.102  -5.904 -17.277  0.00  0.00     0.005 A 
HETATM   12  C           1     -27.950  -5.892 -16.488  0.00  0.00     0.132 A 
HETATM   13  C           1     -28.970  -6.100 -18.666  0.00  0.00     0.014 A 
HETATM   14  N           1     -28.354  -5.685 -15.188  0.00  0.00    -0.077 N 
HETATM   15  C           1     -26.668  -6.070 -17.021  0.00  0.00     0.037 A 
HETATM   16  C           1     -29.717  -5.565 -15.128  0.00  0.00     0.195 A 
HETATM   17  H           1     -27.709  -5.629 -14.362  0.00  0.00     0.271 HD
HETATM   18  C           1     -26.563  -6.264 -18.401  0.00  0.00     0.002 A 
HETATM   19  C           1     -27.695  -6.279 -19.214  0.00  0.00     0.001 A 
ENDBRANCH   9  10
ENDBRANCH   5   9
ENDBRANCH   2   5
BRANCH   4  20
HETATM   20  C           1     -33.757  -4.159 -13.267  0.00  0.00     0.274 C 
BRANCH  20  21
HETATM   21  C           1     -34.768  -5.179 -12.762  0.00  0.00     0.043 C 
BRANCH  21  22
HETATM   22  C           1     -34.923  -5.040 -11.253  0.00  0.00     0.006 C 
BRANCH  22  23
HETATM   23  C           1     -34.009  -6.037 -10.555  0.00  0.00     0.420 C 
BRANCH  23  24
HETATM   24  C           1     -34.805  -7.280 -10.181  0.00  0.00     0.231 C 
BRANCH  24  25
HETATM   25  N           1     -33.956  -8.500 -10.388  0.00  0.00    -0.079 N 
HETATM   26  H           1     -34.495  -9.209 -10.935  0.00  0.00     0.274 HD
HETATM   27  H           1     -33.091  -8.239 -10.913  0.00  0.00     0.274 HD
HETATM   28  H           1     -33.692  -8.901  -9.460  0.00  0.00     0.274 HD
ENDBRANCH  24  25
ENDBRANCH  23  24
ENDBRANCH  22  23
ENDBRANCH  21  22
ENDBRANCH  20  21
BRANCH  20  29
HETATM   29  N           1     -33.851  -2.912 -12.439  0.00  0.00    -0.067 N 
HETATM   30  H           1     -34.254  -3.143 -11.503  0.00  0.00     0.275 HD
HETATM   31  H           1     -32.897  -2.504 -12.315  0.00  0.00     0.275 HD
HETATM   32  H           1     -34.467  -2.219 -12.921  0.00  0.00     0.275 HD
ENDBRANCH  20  29
ENDBRANCH   4  20
TORSDOF 11
ENDMDL
MODEL 8
REMARK VINA RESULT:      -6.8      2.752      4.225
REMARK  11 active torsions:
REMARK  status: ('A' for Active; 'I' for Inactive)
REMARK    1  A    between atoms: C_2  and  C_17 
REMARK    2  A    between atoms: C_2  and  C_14 
REMARK    3  A    between atoms: C_7  and  C_18 
REMARK    4  A    between atoms: C_7  and  C_17 
REMARK    5  A    between atoms: N_8  and  C_30 
REMARK       I    between atoms: N_8  and  C_19 
REMARK    6  A    between atoms: N_12  and  C_14 
REMARK    7  A    between atoms: N_13  and  C_18 
REMARK    8  A    between atoms: C_16  and  C_30 
REMARK    9  A    between atoms: C_18  and  C_19 
REMARK   10  A    between atoms: C_26  and  C_27 
REMARK   11  A    between atoms: C_27  and  C_30 
ROOT
HETATM    1  H           1     -22.610  -9.170  -3.724  0.00  0.00     0.163 HD
HETATM    2  N           1     -21.646  -8.864  -3.711  0.00  0.00    -0.344 N 
HETATM    3  O           1     -20.216 -10.154  -2.582  0.00  0.00    -0.271 OA
HETATM    4  C           1     -20.635  -9.785  -3.653  0.00  0.00     0.249 C 
ENDROOT
BRANCH   2   5
HETATM    5  C           1     -21.334  -7.448  -3.754  0.00  0.00     0.190 C 
BRANCH   5   6
HETATM    6  C           1     -21.620  -6.829  -2.409  0.00  0.00     0.197 C 
HETATM    7  O           1     -22.377  -5.839  -2.325  0.00  0.00    -0.646 OA
HETATM    8  O           1     -21.100  -7.308  -1.377  0.00  0.00    -0.646 OA
ENDBRANCH   5   6
BRANCH   5   9
HETATM    9  C           1     -22.191  -6.772  -4.817  0.00  0.00     0.077 C 
BRANCH   9  10
HETATM   10  C           1     -21.318  -6.303  -5.939  0.00  0.00    -0.021 A 
HETATM   11  C           1     -21.704  -5.429  -6.992  0.00  0.00     0.005 A 
HETATM   12  C           1     -20.588  -5.257  -7.813  0.00  0.00     0.132 A 
HETATM   13  C           1     -22.899  -4.763  -7.326  0.00  0.00     0.014 A 
HETATM   14  N           1     -19.568  -6.006  -7.270  0.00  0.00    -0.077 N 
HETATM   15  C           1     -20.610  -4.451  -8.958  0.00  0.00     0.037 A 
HETATM   16  C           1     -19.999  -6.643  -6.137  0.00  0.00     0.195 A 
HETATM   17  H           1     -18.600  -6.078  -7.669  0.00  0.00     0.271 HD
HETATM   18  C           1     -21.808  -3.801  -9.268  0.00  0.00     0.002 A 
HETATM   19  C           1     -22.938  -3.953  -8.466  0.00  0.00     0.001 A 
ENDBRANCH   9  10
ENDBRANCH   5   9
ENDBRANCH   2   5
BRANCH   4  20
HETATM   20  C           1     -20.047 -10.341  -4.926  0.00  0.00     0.274 C 
BRANCH  20  21
HETATM   21  C           1     -18.719  -9.654  -5.215  0.00  0.00     0.043 C 
BRANCH  21  22
HETATM   22  C           1     -17.572 -10.580  -4.831  0.00  0.00     0.006 C 
BRANCH  22  23
HETATM   23  C           1     -16.398  -9.752  -4.325  0.00  0.00     0.420 C 
BRANCH  23  24
HETATM   24  C           1     -16.496  -9.603  -2.813  0.00  0.00     0.231 C 
BRANCH  24  25
HETATM   25  N           1     -17.214 -10.787  -2.237  0.00  0.00    -0.079 N 
HETATM   26  H           1     -17.078 -10.806  -1.202  0.00  0.00     0.274 HD
HETATM   27  H           1     -18.234 -10.716  -2.453  0.00  0.00     0.274 HD
HETATM   28  H           1     -16.830 -11.664  -2.657  0.00  0.00     0.274 HD
ENDBRANCH  24  25
ENDBRANCH  23  24
ENDBRANCH  22  23
ENDBRANCH  21  22
ENDBRANCH  20  21
BRANCH  20  29
HETATM   29  N           1     -20.994 -10.093  -6.063  0.00  0.00    -0.067 N 
HETATM   30  H           1     -21.976 -10.100  -5.708  0.00  0.00     0.275 HD
HETATM   31  H           1     -20.786  -9.163  -6.492  0.00  0.00     0.275 HD
HETATM   32  H           1     -20.878 -10.843  -6.782  0.00  0.00     0.275 HD
ENDBRANCH  20  29
ENDBRANCH   4  20
TORSDOF 11
ENDMDL
MODEL 9
REMARK VINA RESULT:      -6.7      4.128      7.465
REMARK  11 active torsions:
REMARK  status: ('A' for Active; 'I' for Inactive)
REMARK    1  A    between atoms: C_2  and  C_17 
REMARK    2  A    between atoms: C_2  and  C_14 
REMARK    3  A    between atoms: C_7  and  C_18 
REMARK    4  A    between atoms: C_7  and  C_17 
REMARK    5  A    between atoms: N_8  and  C_30 
REMARK       I    between atoms: N_8  and  C_19 
REMARK    6  A    between atoms: N_12  and  C_14 
REMARK    7  A    between atoms: N_13  and  C_18 
REMARK    8  A    between atoms: C_16  and  C_30 
REMARK    9  A    between atoms: C_18  and  C_19 
REMARK   10  A    between atoms: C_26  and  C_27 
REMARK   11  A    between atoms: C_27  and  C_30 
ROOT
HETATM    1  H           1     -19.199  -7.045  -3.580  0.00  0.00     0.163 HD
HETATM    2  N           1     -19.951  -7.668  -3.840  0.00  0.00    -0.344 N 
HETATM    3  O           1     -20.183  -8.080  -6.022  0.00  0.00    -0.271 OA
HETATM    4  C           1     -19.824  -8.475  -4.939  0.00  0.00     0.249 C 
ENDROOT
BRANCH   2   5
HETATM    5  C           1     -21.165  -7.709  -3.048  0.00  0.00     0.190 C 
BRANCH   5   6
HETATM    6  C           1     -21.947  -6.437  -3.261  0.00  0.00     0.197 C 
HETATM    7  O           1     -22.133  -5.651  -2.307  0.00  0.00    -0.646 OA
HETATM    8  O           1     -22.408  -6.168  -4.392  0.00  0.00    -0.646 OA
ENDBRANCH   5   6
BRANCH   5   9
HETATM    9  C           1     -20.804  -7.844  -1.573  0.00  0.00     0.077 C 
BRANCH   9  10
HETATM   10  C           1     -21.944  -8.475  -0.836  0.00  0.00    -0.021 A 
HETATM   11  C           1     -22.448  -9.790  -1.038  0.00  0.00     0.005 A 
HETATM   12  C           1     -23.505  -9.967  -0.145  0.00  0.00     0.132 A 
HETATM   13  C           1     -22.102 -10.851  -1.897  0.00  0.00     0.014 A 
HETATM   14  N           1     -23.632  -8.795   0.567  0.00  0.00    -0.077 N 
HETATM   15  C           1     -24.239 -11.156  -0.070  0.00  0.00     0.037 A 
HETATM   16  C           1     -22.693  -7.886   0.158  0.00  0.00     0.195 A 
HETATM   17  H           1     -24.347  -8.624   1.317  0.00  0.00     0.271 HD
HETATM   18  C           1     -23.878 -12.195  -0.933  0.00  0.00     0.002 A 
HETATM   19  C           1     -22.825 -12.047  -1.835  0.00  0.00     0.001 A 
ENDBRANCH   9  10
ENDBRANCH   5   9
ENDBRANCH   2   5
BRANCH   4  20
HETATM   20  C           1     -19.233  -9.856  -4.797  0.00  0.00     0.274 C 
BRANCH  20  21
HETATM   21  C           1     -18.355  -9.908  -3.554  0.00  0.00     0.043 C 
BRANCH  21  22
HETATM   22  C           1     -16.902  -9.670  -3.946  0.00  0.00     0.006 C 
BRANCH  22  23
HETATM   23  C           1     -15.988 -10.419  -2.987  0.00  0.00     0.420 C 
BRANCH  23  24
HETATM   24  C           1     -16.822 -11.056  -1.883  0.00  0.00     0.231 C 
BRANCH  24  25
HETATM   25  N           1     -15.915 -11.585  -0.812  0.00  0.00    -0.079 N 
HETATM   26  H           1     -16.473 -11.780   0.051  0.00  0.00     0.274 HD
HETATM   27  H           1     -15.463 -12.468  -1.141  0.00  0.00     0.274 HD
HETATM   28  H           1     -15.178 -10.876  -0.598  0.00  0.00     0.274 HD
ENDBRANCH  24  25
ENDBRANCH  23  24
ENDBRANCH  22  23
ENDBRANCH  21  22
ENDBRANCH  20  21
BRANCH  20  29
HETATM   29  N           1     -18.404 -10.171  -6.006  0.00  0.00    -0.067 N 
HETATM   30  H           1     -18.739  -9.604  -6.818  0.00  0.00     0.275 HD
HETATM   31  H           1     -17.403  -9.940  -5.811  0.00  0.00     0.275 HD
HETATM   32  H           1     -18.489 -11.188  -6.233  0.00  0.00     0.275 HD
ENDBRANCH  20  29
ENDBRANCH   4  20
TORSDOF 11
ENDMDL
