MODEL 1
REMARK VINA RESULT:      -7.2      0.000      0.000
REMARK  12 active torsions:
REMARK  status: ('A' for Active; 'I' for Inactive)
REMARK    1  A    between atoms: C_1  and  C_31 
REMARK    2  A    between atoms: C_1  and  C_28 
REMARK       I    between atoms: N_2  and  C_29 
REMARK    3  A    between atoms: N_2  and  C_23 
REMARK       I    between atoms: N_3  and  C_29 
REMARK    4  A    between atoms: C_5  and  C_32 
REMARK    5  A    between atoms: C_5  and  C_6 
REMARK    6  A    between atoms: C_5  and  N_18 
REMARK    7  A    between atoms: C_6  and  C_7 
REMARK    8  A    between atoms: C_7  and  C_11 
REMARK    9  A    between atoms: C_11  and  N_19 
REMARK   10  A    between atoms: C_23  and  C_31 
REMARK   11  A    between atoms: N_25  and  C_28 
REMARK       I    between atoms: N_25  and  C_32 
REMARK   12  A    between atoms: C_27  and  C_28 
ROOT
HETATM    1  H           1     -27.084  -7.260 -18.771  0.00  0.00     0.163 HD
HETATM    2  O           1     -24.056  -6.439 -18.834  0.00  0.00    -0.271 OA
HETATM    3  N           1     -26.222  -6.833 -18.455  0.00  0.00    -0.345 N 
HETATM    4  C           1     -25.085  -6.948 -19.211  0.00  0.00     0.249 C 
ENDROOT
BRANCH   3   5
HETATM    5  C           1     -26.190  -6.103 -17.203  0.00  0.00     0.185 C 
BRANCH   5   6
HETATM    6  C           1     -27.498  -5.346 -17.025  0.00  0.00     0.038 C 
BRANCH   6   7
HETATM    7  C           1     -28.392  -5.581 -18.235  0.00  0.00     0.023 C 
BRANCH   7   8
HETATM    8  C           1     -29.521  -4.560 -18.240  0.00  0.00     0.138 C 
BRANCH   8   9
HETATM    9  N           1     -30.543  -4.955 -17.260  0.00  0.00    -0.227 N 
HETATM   10  C           1     -31.527  -4.192 -17.030  0.00  0.00     0.665 C 
HETATM   11  N           1     -31.630  -3.090 -17.643  0.00  0.00    -0.235 N 
HETATM   12  N           1     -32.431  -4.541 -16.163  0.00  0.00    -0.235 N 
HETATM   13  H           1     -30.899  -2.808 -18.343  0.00  0.00     0.174 HD
HETATM   14  H           1     -32.446  -2.457 -17.452  0.00  0.00     0.174 HD
HETATM   15  H           1     -32.346  -5.451 -15.657  0.00  0.00     0.174 HD
HETATM   16  H           1     -33.243  -3.911 -15.973  0.00  0.00     0.174 HD
HETATM   17  H           1     -30.457  -5.870 -16.751  0.00  0.00     0.177 HD
ENDBRANCH   8   9
ENDBRANCH   7   8
ENDBRANCH   6   7
ENDBRANCH   5   6
BRANCH   5  18
HETATM   18  C           1     -26.008  -7.072 -16.061  0.00  0.00     0.196 C 
HETATM   19  O           1     -26.990  -7.406 -15.363  0.00  0.00    -0.646 OA
HETATM   20  O           1     -24.877  -7.542 -15.813  0.00  0.00    -0.646 OA
ENDBRANCH   5  18
ENDBRANCH   3   5
BRANCH   4  21
HETATM   21  C           1     -25.118  -7.708 -20.514  0.00  0.00     0.274 C 
BRANCH  21  22
HETATM   22  C           1     -24.590  -6.820 -21.634  0.00  0.00     0.044 C 
BRANCH  22  23
HETATM   23  C           1     -23.868  -7.679 -22.664  0.00  0.00     0.030 C 
BRANCH  23  24
HETATM   24  C           1     -22.774  -8.484 -21.976  0.00  0.00     0.230 C 
BRANCH  24  25
HETATM   25  N           1     -22.415  -9.669 -22.824  0.00  0.00    -0.079 N 
HETATM   26  H           1     -21.465  -9.530 -23.235  0.00  0.00     0.274 HD
HETATM   27  H           1     -22.416 -10.532 -22.233  0.00  0.00     0.274 HD
HETATM   28  H           1     -23.115  -9.772 -23.593  0.00  0.00     0.274 HD
ENDBRANCH  24  25
ENDBRANCH  23  24
ENDBRANCH  22  23
ENDBRANCH  21  22
BRANCH  21  29
HETATM   29  N           1     -26.530  -8.112 -20.820  0.00  0.00    -0.067 N 
HETATM   30  H           1     -27.139  -7.898 -19.999  0.00  0.00     0.275 HD
HETATM   31  H           1     -26.561  -9.136 -21.023  0.00  0.00     0.275 HD
HETATM   32  H           1     -26.871  -7.581 -21.654  0.00  0.00     0.275 HD
ENDBRANCH  21  29
ENDBRANCH   4  21
TORSDOF 12
ENDMDL
MODEL 2
REMARK VINA RESULT:      -7.1     10.318     12.207
REMARK  12 active torsions:
REMARK  status: ('A' for Active; 'I' for Inactive)
REMARK    1  A    between atoms: C_1  and  C_31 
REMARK    2  A    between atoms: C_1  and  C_28 
REMARK       I    between atoms: N_2  and  C_29 
REMARK    3  A    between atoms: N_2  and  C_23 
REMARK       I    between atoms: N_3  and  C_29 
REMARK    4  A    between atoms: C_5  and  C_32 
REMARK    5  A    between atoms: C_5  and  C_6 
REMARK    6  A    between atoms: C_5  and  N_18 
REMARK    7  A    between atoms: C_6  and  C_7 
REMARK    8  A    between atoms: C_7  and  C_11 
REMARK    9  A    between atoms: C_11  and  N_19 
REMARK   10  A    between atoms: C_23  and  C_31 
REMARK   11  A    between atoms: N_25  and  C_28 
REMARK       I    between atoms: N_25  and  C_32 
REMARK   12  A    between atoms: C_27  and  C_28 
ROOT
HETATM    1  H           1     -36.208  -2.245 -12.744  0.00  0.00     0.163 HD
HETATM    2  O           1     -33.534  -2.260 -11.102  0.00  0.00    -0.271 OA
HETATM    3  N           1     -35.478  -1.891 -12.138  0.00  0.00    -0.345 N 
HETATM    4  C           1     -34.405  -2.682 -11.826  0.00  0.00     0.249 C 
ENDROOT
BRANCH   3   5
HETATM    5  C           1     -35.570  -0.549 -11.599  0.00  0.00     0.185 C 
BRANCH   5   6
HETATM    6  C           1     -35.270   0.461 -12.698  0.00  0.00     0.038 C 
BRANCH   6   7
HETATM    7  C           1     -36.292   0.313 -13.817  0.00  0.00     0.023 C 
BRANCH   7   8
HETATM    8  C           1     -35.600   0.485 -15.163  0.00  0.00     0.138 C 
BRANCH   8   9
HETATM    9  N           1     -34.918  -0.765 -15.527  0.00  0.00    -0.227 N 
HETATM   10  C           1     -35.284  -1.411 -16.551  0.00  0.00     0.665 C 
HETATM   11  N           1     -36.238  -0.981 -17.263  0.00  0.00    -0.235 N 
HETATM   12  N           1     -34.680  -2.516 -16.873  0.00  0.00    -0.235 N 
HETATM   13  H           1     -36.726  -0.088 -17.003  0.00  0.00     0.174 HD
HETATM   14  H           1     -36.543  -1.517 -18.113  0.00  0.00     0.174 HD
HETATM   15  H           1     -33.892  -2.872 -16.286  0.00  0.00     0.174 HD
HETATM   16  H           1     -34.983  -3.050 -17.719  0.00  0.00     0.174 HD
HETATM   17  H           1     -34.125  -1.121 -14.936  0.00  0.00     0.177 HD
ENDBRANCH   8   9
ENDBRANCH   7   8
ENDBRANCH   6   7
ENDBRANCH   5   6
BRANCH   5  18
HETATM   18  C           1     -36.963  -0.315 -11.067  0.00  0.00     0.196 C 
HETATM   19  O           1     -37.830  -1.209 -11.172  0.00  0.00    -0.646 OA
HETATM   20  O           1     -37.249   0.772 -10.519  0.00  0.00    -0.646 OA
ENDBRANCH   5  18
ENDBRANCH   3   5
BRANCH   4  21
HETATM   21  C           1     -34.309  -4.080 -12.387  0.00  0.00     0.274 C 
BRANCH  21  22
HETATM   22  C           1     -33.420  -4.929 -11.487  0.00  0.00     0.044 C 
BRANCH  22  23
HETATM   23  C           1     -34.257  -5.521 -10.360  0.00  0.00     0.030 C 
BRANCH  23  24
HETATM   24  C           1     -34.592  -6.970 -10.684  0.00  0.00     0.230 C 
BRANCH  24  25
HETATM   25  N           1     -34.935  -7.701  -9.419  0.00  0.00    -0.079 N 
HETATM   26  H           1     -35.891  -8.113  -9.503  0.00  0.00     0.274 HD
HETATM   27  H           1     -34.239  -8.464  -9.259  0.00  0.00     0.274 HD
HETATM   28  H           1     -34.914  -7.034  -8.615  0.00  0.00     0.274 HD
ENDBRANCH  24  25
ENDBRANCH  23  24
ENDBRANCH  22  23
ENDBRANCH  21  22
BRANCH  21  29
HETATM   29  N           1     -33.717  -4.025 -13.764  0.00  0.00    -0.067 N 
HETATM   30  H           1     -33.207  -4.916 -13.959  0.00  0.00     0.275 HD
HETATM   31  H           1     -33.052  -3.221 -13.825  0.00  0.00     0.275 HD
HETATM   32  H           1     -34.480  -3.900 -14.467  0.00  0.00     0.275 HD
ENDBRANCH  21  29
ENDBRANCH   4  21
TORSDOF 12
ENDMDL
MODEL 3
REMARK VINA RESULT:      -6.9      9.951     11.833
REMARK  12 active torsions:
REMARK  status: ('A' for Active; 'I' for Inactive)
REMARK    1  A    between atoms: C_1  and  C_31 
REMARK    2  A    between atoms: C_1  and  C_28 
REMARK       I    between atoms: N_2  and  C_29 
REMARK    3  A    between atoms: N_2  and  C_23 
REMARK       I    between atoms: N_3  and  C_29 
REMARK    4  A    between atoms: C_5  and  C_32 
REMARK    5  A    between atoms: C_5  and  C_6 
REMARK    6  A    between atoms: C_5  and  N_18 
REMARK    7  A    between atoms: C_6  and  C_7 
REMARK    8  A    between atoms: C_7  and  C_11 
REMARK    9  A    between atoms: C_11  and  N_19 
REMARK   10  A    between atoms: C_23  and  C_31 
REMARK   11  A    between atoms: N_25  and  C_28 
REMARK       I    between atoms: N_25  and  C_32 
REMARK   12  A    between atoms: C_27  and  C_28 
ROOT
HETATM    1  H           1     -33.968  -1.393 -13.652  0.00  0.00     0.163 HD
HETATM    2  O           1     -36.981  -1.019 -12.861  0.00  0.00    -0.271 OA
HETATM    3  N           1     -34.827  -1.541 -13.138  0.00  0.00    -0.345 N 
HETATM    4  C           1     -35.955  -0.843 -13.475  0.00  0.00     0.249 C 
ENDROOT
BRANCH   3   5
HETATM    5  C           1     -34.863  -2.492 -12.044  0.00  0.00     0.185 C 
BRANCH   5   6
HETATM    6  C           1     -33.951  -3.668 -12.365  0.00  0.00     0.038 C 
BRANCH   6   7
HETATM    7  C           1     -34.695  -4.972 -12.113  0.00  0.00     0.023 C 
BRANCH   7   8
HETATM    8  C           1     -34.367  -5.484 -10.717  0.00  0.00     0.138 C 
BRANCH   8   9
HETATM    9  N           1     -33.690  -6.785 -10.819  0.00  0.00    -0.227 N 
HETATM   10  C           1     -34.159  -7.791 -10.211  0.00  0.00     0.665 C 
HETATM   11  N           1     -35.211  -7.677  -9.516  0.00  0.00    -0.235 N 
HETATM   12  N           1     -33.560  -8.942 -10.301  0.00  0.00    -0.235 N 
HETATM   13  H           1     -35.694  -6.748  -9.444  0.00  0.00     0.174 HD
HETATM   14  H           1     -35.600  -8.513  -9.012  0.00  0.00     0.174 HD
HETATM   15  H           1     -32.692  -9.037 -10.874  0.00  0.00     0.174 HD
HETATM   16  H           1     -33.948  -9.773  -9.799  0.00  0.00     0.174 HD
HETATM   17  H           1     -32.817  -6.879 -11.395  0.00  0.00     0.177 HD
ENDBRANCH   8   9
ENDBRANCH   7   8
ENDBRANCH   6   7
ENDBRANCH   5   6
BRANCH   5  18
HETATM   18  C           1     -34.392  -1.819 -10.778  0.00  0.00     0.196 C 
HETATM   19  O           1     -33.177  -1.820 -10.485  0.00  0.00    -0.646 OA
HETATM   20  O           1     -35.217  -1.261 -10.023  0.00  0.00    -0.646 OA
ENDBRANCH   5  18
ENDBRANCH   3   5
BRANCH   4  21
HETATM   21  C           1     -35.918   0.147 -14.614  0.00  0.00     0.274 C 
BRANCH  21  22
HETATM   22  C           1     -36.444  -0.515 -15.881  0.00  0.00     0.044 C 
BRANCH  22  23
HETATM   23  C           1     -35.272  -0.925 -16.764  0.00  0.00     0.030 C 
BRANCH  23  24
HETATM   24  C           1     -35.103  -2.437 -16.713  0.00  0.00     0.230 C 
BRANCH  24  25
HETATM   25  N           1     -33.749  -2.808 -17.242  0.00  0.00    -0.079 N 
HETATM   26  H           1     -33.039  -2.125 -16.894  0.00  0.00     0.274 HD
HETATM   27  H           1     -33.499  -3.769 -16.913  0.00  0.00     0.274 HD
HETATM   28  H           1     -33.766  -2.789 -18.287  0.00  0.00     0.274 HD
ENDBRANCH  24  25
ENDBRANCH  23  24
ENDBRANCH  22  23
ENDBRANCH  21  22
BRANCH  21  29
HETATM   29  N           1     -34.505   0.599 -14.836  0.00  0.00    -0.067 N 
HETATM   30  H           1     -34.487   1.637 -14.958  0.00  0.00     0.275 HD
HETATM   31  H           1     -34.125   0.139 -15.694  0.00  0.00     0.275 HD
HETATM   32  H           1     -33.921   0.335 -14.011  0.00  0.00     0.275 HD
ENDBRANCH  21  29
ENDBRANCH   4  21
TORSDOF 12
ENDMDL
MODEL 4
REMARK VINA RESULT:      -6.4      1.935      2.838
REMARK  12 active torsions:
REMARK  status: ('A' for Active; 'I' for Inactive)
REMARK    1  A    between atoms: C_1  and  C_31 
REMARK    2  A    between atoms: C_1  and  C_28 
REMARK       I    between atoms: N_2  and  C_29 
REMARK    3  A    between atoms: N_2  and  C_23 
REMARK       I    between atoms: N_3  and  C_29 
REMARK    4  A    between atoms: C_5  and  C_32 
REMARK    5  A    between atoms: C_5  and  C_6 
REMARK    6  A    between atoms: C_5  and  N_18 
REMARK    7  A    between atoms: C_6  and  C_7 
REMARK    8  A    between atoms: C_7  and  C_11 
REMARK    9  A    between atoms: C_11  and  N_19 
REMARK   10  A    between atoms: C_23  and  C_31 
REMARK   11  A    between atoms: N_25  and  C_28 
REMARK       I    between atoms: N_25  and  C_32 
REMARK   12  A    between atoms: C_27  and  C_28 
ROOT
HETATM    1  H           1     -27.148  -6.985 -18.421  0.00  0.00     0.163 HD
HETATM    2  O           1     -26.058  -5.986 -15.653  0.00  0.00    -0.271 OA
HETATM    3  N           1     -27.181  -6.619 -17.477  0.00  0.00    -0.345 N 
HETATM    4  C           1     -26.019  -6.423 -16.779  0.00  0.00     0.249 C 
ENDROOT
BRANCH   3   5
HETATM    5  C           1     -28.456  -6.304 -16.866  0.00  0.00     0.185 C 
BRANCH   5   6
HETATM    6  C           1     -28.685  -4.800 -16.915  0.00  0.00     0.038 C 
BRANCH   6   7
HETATM    7  C           1     -29.592  -4.461 -18.091  0.00  0.00     0.023 C 
BRANCH   7   8
HETATM    8  C           1     -30.719  -3.553 -17.618  0.00  0.00     0.138 C 
BRANCH   8   9
HETATM    9  N           1     -31.646  -4.321 -16.774  0.00  0.00    -0.227 N 
HETATM   10  C           1     -32.885  -4.061 -16.796  0.00  0.00     0.665 C 
HETATM   11  N           1     -33.325  -3.140 -17.545  0.00  0.00    -0.235 N 
HETATM   12  N           1     -33.705  -4.740 -16.050  0.00  0.00    -0.235 N 
HETATM   13  H           1     -32.662  -2.592 -18.147  0.00  0.00     0.174 HD
HETATM   14  H           1     -34.352  -2.924 -17.563  0.00  0.00     0.174 HD
HETATM   15  H           1     -33.342  -5.500 -15.432  0.00  0.00     0.174 HD
HETATM   16  H           1     -34.727  -4.525 -16.068  0.00  0.00     0.174 HD
HETATM   17  H           1     -31.280  -5.085 -16.153  0.00  0.00     0.177 HD
ENDBRANCH   8   9
ENDBRANCH   7   8
ENDBRANCH   6   7
ENDBRANCH   5   6
BRANCH   5  18
HETATM   18  C           1     -29.561  -7.006 -17.616  0.00  0.00     0.196 C 
HETATM   19  O           1     -30.691  -7.127 -17.096  0.00  0.00    -0.646 OA
HETATM   20  O           1     -29.347  -7.466 -18.758  0.00  0.00    -0.646 OA
ENDBRANCH   5  18
ENDBRANCH   3   5
BRANCH   4  21
HETATM   21  C           1     -24.691  -6.751 -17.415  0.00  0.00     0.274 C 
BRANCH  21  22
HETATM   22  C           1     -24.892  -7.025 -18.900  0.00  0.00     0.044 C 
BRANCH  22  23
HETATM   23  C           1     -23.553  -7.369 -19.539  0.00  0.00     0.030 C 
BRANCH  23  24
HETATM   24  C           1     -23.791  -8.081 -20.864  0.00  0.00     0.230 C 
BRANCH  24  25
HETATM   25  N           1     -22.674  -9.050 -21.120  0.00  0.00    -0.079 N 
HETATM   26  H           1     -23.037  -9.865 -21.663  0.00  0.00     0.274 HD
HETATM   27  H           1     -21.920  -8.574 -21.666  0.00  0.00     0.274 HD
HETATM   28  H           1     -22.287  -9.384 -20.208  0.00  0.00     0.274 HD
ENDBRANCH  24  25
ENDBRANCH  23  24
ENDBRANCH  22  23
ENDBRANCH  21  22
BRANCH  21  29
HETATM   29  N           1     -24.109  -7.967 -16.758  0.00  0.00    -0.067 N 
HETATM   30  H           1     -24.591  -8.134 -15.846  0.00  0.00     0.275 HD
HETATM   31  H           1     -23.089  -7.818 -16.592  0.00  0.00     0.275 HD
HETATM   32  H           1     -24.243  -8.797 -17.379  0.00  0.00     0.275 HD
ENDBRANCH  21  29
ENDBRANCH   4  21
TORSDOF 12
ENDMDL
MODEL 5
REMARK VINA RESULT:      -6.2     10.608     12.599
REMARK  12 active torsions:
REMARK  status: ('A' for Active; 'I' for Inactive)
REMARK    1  A    between atoms: C_1  and  C_31 
REMARK    2  A    between atoms: C_1  and  C_28 
REMARK       I    between atoms: N_2  and  C_29 
REMARK    3  A    between atoms: N_2  and  C_23 
REMARK       I    between atoms: N_3  and  C_29 
REMARK    4  A    between atoms: C_5  and  C_32 
REMARK    5  A    between atoms: C_5  and  C_6 
REMARK    6  A    between atoms: C_5  and  N_18 
REMARK    7  A    between atoms: C_6  and  C_7 
REMARK    8  A    between atoms: C_7  and  C_11 
REMARK    9  A    between atoms: C_11  and  N_19 
REMARK   10  A    between atoms: C_23  and  C_31 
REMARK   11  A    between atoms: N_25  and  C_28 
REMARK       I    between atoms: N_25  and  C_32 
REMARK   12  A    between atoms: C_27  and  C_28 
ROOT
HETATM    1  H           1     -35.100   0.006 -12.250  0.00  0.00     0.163 HD
HETATM    2  O           1     -37.895  -0.730 -13.473  0.00  0.00    -0.271 OA
HETATM    3  N           1     -36.039  -0.373 -12.283  0.00  0.00    -0.345 N 
HETATM    4  C           1     -36.774  -0.279 -13.434  0.00  0.00     0.249 C 
ENDROOT
BRANCH   3   5
HETATM    5  C           1     -36.604  -1.012 -11.111  0.00  0.00     0.185 C 
BRANCH   5   6
HETATM    6  C           1     -35.654  -2.093 -10.615  0.00  0.00     0.038 C 
BRANCH   6   7
HETATM    7  C           1     -34.297  -1.924 -11.284  0.00  0.00     0.023 C 
BRANCH   7   8
HETATM    8  C           1     -33.888  -3.234 -11.942  0.00  0.00     0.138 C 
BRANCH   8   9
HETATM    9  N           1     -33.885  -4.308 -10.937  0.00  0.00    -0.227 N 
HETATM   10  C           1     -34.277  -5.469 -11.252  0.00  0.00     0.665 C 
HETATM   11  N           1     -34.671  -5.707 -12.431  0.00  0.00    -0.235 N 
HETATM   12  N           1     -34.275  -6.419 -10.364  0.00  0.00    -0.235 N 
HETATM   13  H           1     -34.673  -4.940 -13.148  0.00  0.00     0.174 HD
HETATM   14  H           1     -34.996  -6.671 -12.692  0.00  0.00     0.174 HD
HETATM   15  H           1     -33.950  -6.223  -9.390  0.00  0.00     0.174 HD
HETATM   16  H           1     -34.599  -7.378 -10.623  0.00  0.00     0.174 HD
HETATM   17  H           1     -33.558  -4.110  -9.959  0.00  0.00     0.177 HD
ENDBRANCH   8   9
ENDBRANCH   7   8
ENDBRANCH   6   7
ENDBRANCH   5   6
BRANCH   5  18
HETATM   18  C           1     -36.807   0.017 -10.025  0.00  0.00     0.196 C 
HETATM   19  O           1     -36.150  -0.056  -8.964  0.00  0.00    -0.646 OA
HETATM   20  O           1     -37.631   0.943 -10.188  0.00  0.00    -0.646 OA
ENDBRANCH   5  18
ENDBRANCH   3   5
BRANCH   4  21
HETATM   21  C           1     -36.186   0.386 -14.653  0.00  0.00     0.274 C 
BRANCH  21  22
HETATM   22  C           1     -36.509  -0.442 -15.890  0.00  0.00     0.044 C 
BRANCH  22  23
HETATM   23  C           1     -35.214  -0.854 -16.578  0.00  0.00     0.030 C 
BRANCH  23  24
HETATM   24  C           1     -35.091  -2.372 -16.560  0.00  0.00     0.230 C 
BRANCH  24  25
HETATM   25  N           1     -33.820  -2.780 -17.245  0.00  0.00    -0.079 N 
HETATM   26  H           1     -34.003  -2.924 -18.263  0.00  0.00     0.274 HD
HETATM   27  H           1     -33.102  -2.029 -17.122  0.00  0.00     0.274 HD
HETATM   28  H           1     -33.469  -3.671 -16.826  0.00  0.00     0.274 HD
ENDBRANCH  24  25
ENDBRANCH  23  24
ENDBRANCH  22  23
ENDBRANCH  21  22
BRANCH  21  29
HETATM   29  N           1     -34.697   0.489 -14.497  0.00  0.00    -0.067 N 
HETATM   30  H           1     -34.389   1.459 -14.734  0.00  0.00     0.275 HD
HETATM   31  H           1     -34.233  -0.192 -15.138  0.00  0.00     0.275 HD
HETATM   32  H           1     -34.436   0.273 -13.509  0.00  0.00     0.275 HD
ENDBRANCH  21  29
ENDBRANCH   4  21
TORSDOF 12
ENDMDL
MODEL 6
REMARK VINA RESULT:      -6.1      3.577      8.979
REMARK  12 active torsions:
REMARK  status: ('A' for Active; 'I' for Inactive)
REMARK    1  A    between atoms: C_1  and  C_31 
REMARK    2  A    between atoms: C_1  and  C_28 
REMARK       I    between atoms: N_2  and  C_29 
REMARK    3  A    between atoms: N_2  and  C_23 
REMARK       I    between atoms: N_3  and  C_29 
REMARK    4  A    between atoms: C_5  and  C_32 
REMARK    5  A    between atoms: C_5  and  C_6 
REMARK    6  A    between atoms: C_5  and  N_18 
REMARK    7  A    between atoms: C_6  and  C_7 
REMARK    8  A    between atoms: C_7  and  C_11 
REMARK    9  A    between atoms: C_11  and  N_19 
REMARK   10  A    between atoms: C_23  and  C_31 
REMARK   11  A    between atoms: N_25  and  C_28 
REMARK       I    between atoms: N_25  and  C_32 
REMARK   12  A    between atoms: C_27  and  C_28 
ROOT
HETATM    1  H           1     -32.390  -6.536 -16.651  0.00  0.00     0.163 HD
HETATM    2  O           1     -31.461  -3.583 -17.167  0.00  0.00    -0.271 OA
HETATM    3  N           1     -31.763  -5.780 -16.898  0.00  0.00    -0.345 N 
HETATM    4  C           1     -32.209  -4.485 -16.871  0.00  0.00     0.249 C 
ENDROOT
BRANCH   3   5
HETATM    5  C           1     -30.395  -6.068 -17.283  0.00  0.00     0.185 C 
BRANCH   5   6
HETATM    6  C           1     -29.487  -5.926 -16.070  0.00  0.00     0.038 C 
BRANCH   6   7
HETATM    7  C           1     -28.151  -5.336 -16.501  0.00  0.00     0.023 C 
BRANCH   7   8
HETATM    8  C           1     -27.018  -6.218 -15.995  0.00  0.00     0.138 C 
BRANCH   8   9
HETATM    9  N           1     -26.151  -6.596 -17.120  0.00  0.00    -0.227 N 
HETATM   10  C           1     -24.988  -7.044 -16.899  0.00  0.00     0.665 C 
HETATM   11  N           1     -24.572  -7.166 -15.710  0.00  0.00    -0.235 N 
HETATM   12  N           1     -24.221  -7.379 -17.894  0.00  0.00    -0.235 N 
HETATM   13  H           1     -25.191  -6.896 -14.907  0.00  0.00     0.174 HD
HETATM   14  H           1     -23.606  -7.538 -15.527  0.00  0.00     0.174 HD
HETATM   15  H           1     -24.564  -7.278 -18.876  0.00  0.00     0.174 HD
HETATM   16  H           1     -23.260  -7.749 -17.712  0.00  0.00     0.174 HD
HETATM   17  H           1     -26.497  -6.495 -18.106  0.00  0.00     0.177 HD
ENDBRANCH   8   9
ENDBRANCH   7   8
ENDBRANCH   6   7
ENDBRANCH   5   6
BRANCH   5  18
HETATM   18  C           1     -30.309  -7.478 -17.815  0.00  0.00     0.196 C 
HETATM   19  O           1     -30.954  -7.800 -18.836  0.00  0.00    -0.646 OA
HETATM   20  O           1     -29.591  -8.322 -17.237  0.00  0.00    -0.646 OA
ENDBRANCH   5  18
ENDBRANCH   3   5
BRANCH   4  21
HETATM   21  C           1     -33.632  -4.185 -16.471  0.00  0.00     0.274 C 
BRANCH  21  22
HETATM   22  C           1     -34.046  -2.834 -17.039  0.00  0.00     0.044 C 
BRANCH  22  23
HETATM   23  C           1     -35.181  -2.258 -16.203  0.00  0.00     0.030 C 
BRANCH  23  24
HETATM   24  C           1     -35.722  -1.004 -16.876  0.00  0.00     0.230 C 
BRANCH  24  25
HETATM   25  N           1     -37.162  -0.814 -16.502  0.00  0.00    -0.079 N 
HETATM   26  H           1     -37.681  -0.400 -17.308  0.00  0.00     0.274 HD
HETATM   27  H           1     -37.582  -1.739 -16.254  0.00  0.00     0.274 HD
HETATM   28  H           1     -37.226  -0.171 -15.680  0.00  0.00     0.274 HD
ENDBRANCH  24  25
ENDBRANCH  23  24
ENDBRANCH  22  23
ENDBRANCH  21  22
BRANCH  21  29
HETATM   29  N           1     -33.733  -4.149 -14.974  0.00  0.00    -0.067 N 
HETATM   30  H           1     -34.737  -4.202 -14.692  0.00  0.00     0.275 HD
HETATM   31  H           1     -33.316  -3.259 -14.620  0.00  0.00     0.275 HD
HETATM   32  H           1     -33.214  -4.962 -14.571  0.00  0.00     0.275 HD
ENDBRANCH  21  29
ENDBRANCH   4  21
TORSDOF 12
ENDMDL
MODEL 7
REMARK VINA RESULT:      -6.1     11.782     14.599
REMARK  12 active torsions:
REMARK  status: ('A' for Active; 'I' for Inactive)
REMARK    1  A    between atoms: C_1  and  C_31 
REMARK    2  A    between atoms: C_1  and  C_28 
REMARK       I    between atoms: N_2  and  C_29 
REMARK    3  A    between atoms: N_2  and  C_23 
REMARK       I    between atoms: N_3  and  C_29 
REMARK    4  A    between atoms: C_5  and  C_32 
REMARK    5  A    between atoms: C_5  and  C_6 
REMARK    6  A    between atoms: C_5  and  N_18 
REMARK    7  A    between atoms: C_6  and  C_7 
REMARK    8  A    between atoms: C_7  and  C_11 
REMARK    9  A    between atoms: C_11  and  N_19 
REMARK   10  A    between atoms: C_23  and  C_31 
REMARK   11  A    between atoms: N_25  and  C_28 
REMARK       I    between atoms: N_25  and  C_32 
REMARK   12  A    between atoms: C_27  and  C_28 
ROOT
HETATM    1  H           1     -21.982  -4.891  -5.185  0.00  0.00     0.163 HD
HETATM    2  O           1     -21.192  -7.656  -6.441  0.00  0.00    -0.271 OA
HETATM    3  N           1     -21.691  -5.547  -5.899  0.00  0.00    -0.345 N 
HETATM    4  C           1     -21.541  -6.873  -5.589  0.00  0.00     0.249 C 
ENDROOT
BRANCH   3   5
HETATM    5  C           1     -21.431  -5.084  -7.248  0.00  0.00     0.185 C 
BRANCH   5   6
HETATM    6  C           1     -22.433  -3.998  -7.613  0.00  0.00     0.038 C 
BRANCH   6   7
HETATM    7  C           1     -23.426  -4.543  -8.631  0.00  0.00     0.023 C 
BRANCH   7   8
HETATM    8  C           1     -23.380  -3.691  -9.892  0.00  0.00     0.138 C 
BRANCH   8   9
HETATM    9  N           1     -21.981  -3.400 -10.237  0.00  0.00    -0.227 N 
HETATM   10  C           1     -21.478  -3.875 -11.297  0.00  0.00     0.665 C 
HETATM   11  N           1     -22.180  -4.601 -12.060  0.00  0.00    -0.235 N 
HETATM   12  N           1     -20.241  -3.617 -11.601  0.00  0.00    -0.235 N 
HETATM   13  H           1     -23.179  -4.809 -11.813  0.00  0.00     0.174 HD
HETATM   14  H           1     -21.763  -4.995 -12.940  0.00  0.00     0.174 HD
HETATM   15  H           1     -19.661  -3.018 -10.971  0.00  0.00     0.174 HD
HETATM   16  H           1     -19.825  -4.009 -12.477  0.00  0.00     0.174 HD
HETATM   17  H           1     -21.399  -2.797  -9.603  0.00  0.00     0.177 HD
ENDBRANCH   8   9
ENDBRANCH   7   8
ENDBRANCH   6   7
ENDBRANCH   5   6
BRANCH   5  18
HETATM   18  C           1     -20.031  -4.526  -7.327  0.00  0.00     0.196 C 
HETATM   19  O           1     -19.632  -3.987  -8.382  0.00  0.00    -0.646 OA
HETATM   20  O           1     -19.271  -4.600  -6.337  0.00  0.00    -0.646 OA
ENDBRANCH   5  18
ENDBRANCH   3   5
BRANCH   4  21
HETATM   21  C           1     -21.811  -7.355  -4.185  0.00  0.00     0.274 C 
BRANCH  21  22
HETATM   22  C           1     -21.289  -6.331  -3.186  0.00  0.00     0.044 C 
BRANCH  22  23
HETATM   23  C           1     -22.229  -6.264  -1.990  0.00  0.00     0.030 C 
BRANCH  23  24
HETATM   24  C           1     -21.811  -7.301  -0.956  0.00  0.00     0.230 C 
BRANCH  24  25
HETATM   25  N           1     -22.974  -7.616  -0.062  0.00  0.00    -0.079 N 
HETATM   26  H           1     -23.538  -8.388  -0.483  0.00  0.00     0.274 HD
HETATM   27  H           1     -22.620  -7.913   0.876  0.00  0.00     0.274 HD
HETATM   28  H           1     -23.572  -6.766   0.043  0.00  0.00     0.274 HD
ENDBRANCH  24  25
ENDBRANCH  23  24
ENDBRANCH  22  23
ENDBRANCH  21  22
BRANCH  21  29
HETATM   29  N           1     -21.115  -8.666  -3.965  0.00  0.00    -0.067 N 
HETATM   30  H           1     -21.592  -9.411  -4.521  0.00  0.00     0.275 HD
HETATM   31  H           1     -21.149  -8.911  -2.950  0.00  0.00     0.275 HD
HETATM   32  H           1     -20.119  -8.587  -4.272  0.00  0.00     0.275 HD
ENDBRANCH  21  29
ENDBRANCH   4  21
TORSDOF 12
ENDMDL
MODEL 8
REMARK VINA RESULT:      -6.0     12.300     15.094
REMARK  12 active torsions:
REMARK  status: ('A' for Active; 'I' for Inactive)
REMARK    1  A    between atoms: C_1  and  C_31 
REMARK    2  A    between atoms: C_1  and  C_28 
REMARK       I    between atoms: N_2  and  C_29 
REMARK    3  A    between atoms: N_2  and  C_23 
REMARK       I    between atoms: N_3  and  C_29 
REMARK    4  A    between atoms: C_5  and  C_32 
REMARK    5  A    between atoms: C_5  and  C_6 
REMARK    6  A    between atoms: C_5  and  N_18 
REMARK    7  A    between atoms: C_6  and  C_7 
REMARK    8  A    between atoms: C_7  and  C_11 
REMARK    9  A    between atoms: C_11  and  N_19 
REMARK   10  A    between atoms: C_23  and  C_31 
REMARK   11  A    between atoms: N_25  and  C_28 
REMARK       I    between atoms: N_25  and  C_32 
REMARK   12  A    between atoms: C_27  and  C_28 
ROOT
HETATM    1  H           1     -20.734  -4.534  -4.953  0.00  0.00     0.163 HD
HETATM    2  O           1     -22.060  -7.378  -4.977  0.00  0.00    -0.271 OA
HETATM    3  N           1     -21.172  -5.361  -5.340  0.00  0.00    -0.345 N 
HETATM    4  C           1     -21.538  -6.391  -4.515  0.00  0.00     0.249 C 
ENDROOT
BRANCH   3   5
HETATM    5  C           1     -21.409  -5.456  -6.767  0.00  0.00     0.185 C 
BRANCH   5   6
HETATM    6  C           1     -22.014  -4.152  -7.268  0.00  0.00     0.038 C 
BRANCH   6   7
HETATM    7  C           1     -23.251  -4.454  -8.104  0.00  0.00     0.023 C 
BRANCH   7   8
HETATM    8  C           1     -23.192  -3.663  -9.403  0.00  0.00     0.138 C 
BRANCH   8   9
HETATM    9  N           1     -21.804  -3.613  -9.884  0.00  0.00    -0.227 N 
HETATM   10  C           1     -21.515  -4.064 -11.030  0.00  0.00     0.665 C 
HETATM   11  N           1     -22.420  -4.560 -11.762  0.00  0.00    -0.235 N 
HETATM   12  N           1     -20.287  -4.020 -11.456  0.00  0.00    -0.235 N 
HETATM   13  H           1     -23.412  -4.596 -11.419  0.00  0.00     0.174 HD
HETATM   14  H           1     -22.180  -4.935 -12.714  0.00  0.00     0.174 HD
HETATM   15  H           1     -19.539  -3.611 -10.851  0.00  0.00     0.174 HD
HETATM   16  H           1     -20.047  -4.393 -12.402  0.00  0.00     0.174 HD
HETATM   17  H           1     -21.053  -3.201  -9.276  0.00  0.00     0.177 HD
ENDBRANCH   8   9
ENDBRANCH   7   8
ENDBRANCH   6   7
ENDBRANCH   5   6
BRANCH   5  18
HETATM   18  C           1     -20.102  -5.711  -7.478  0.00  0.00     0.196 C 
HETATM   19  O           1     -19.440  -6.738  -7.218  0.00  0.00    -0.646 OA
HETATM   20  O           1     -19.684  -4.896  -8.328  0.00  0.00    -0.646 OA
ENDBRANCH   5  18
ENDBRANCH   3   5
BRANCH   4  21
HETATM   21  C           1     -21.291  -6.293  -3.030  0.00  0.00     0.274 C 
BRANCH  21  22
HETATM   22  C           1     -20.897  -7.660  -2.488  0.00  0.00     0.044 C 
BRANCH  22  23
HETATM   23  C           1     -21.883  -8.083  -1.408  0.00  0.00     0.030 C 
BRANCH  23  24
HETATM   24  C           1     -21.134  -8.336  -0.107  0.00  0.00     0.230 C 
BRANCH  24  25
HETATM   25  N           1     -21.316  -9.767   0.307  0.00  0.00    -0.079 N 
HETATM   26  H           1     -21.758 -10.302  -0.474  0.00  0.00     0.274 HD
HETATM   27  H           1     -20.385 -10.184   0.533  0.00  0.00     0.274 HD
HETATM   28  H           1     -21.933  -9.810   1.149  0.00  0.00     0.274 HD
ENDBRANCH  24  25
ENDBRANCH  23  24
ENDBRANCH  22  23
ENDBRANCH  21  22
BRANCH  21  29
HETATM   29  N           1     -22.542  -5.826  -2.346  0.00  0.00    -0.067 N 
HETATM   30  H           1     -22.406  -4.850  -2.000  0.00  0.00     0.275 HD
HETATM   31  H           1     -22.752  -6.457  -1.540  0.00  0.00     0.275 HD
HETATM   32  H           1     -23.338  -5.849  -3.023  0.00  0.00     0.275 HD
ENDBRANCH  21  29
ENDBRANCH   4  21
TORSDOF 12
ENDMDL
MODEL 9
REMARK VINA RESULT:      -6.0     13.390     15.725
REMARK  12 active torsions:
REMARK  status: ('A' for Active; 'I' for Inactive)
REMARK    1  A    between atoms: C_1  and  C_31 
REMARK    2  A    between atoms: C_1  and  C_28 
REMARK       I    between atoms: N_2  and  C_29 
REMARK    3  A    between atoms: N_2  and  C_23 
REMARK       I    between atoms: N_3  and  C_29 
REMARK    4  A    between atoms: C_5  and  C_32 
REMARK    5  A    between atoms: C_5  and  C_6 
REMARK    6  A    between atoms: C_5  and  N_18 
REMARK    7  A    between atoms: C_6  and  C_7 
REMARK    8  A    between atoms: C_7  and  C_11 
REMARK    9  A    between atoms: C_11  and  N_19 
REMARK   10  A    between atoms: C_23  and  C_31 
REMARK   11  A    between atoms: N_25  and  C_28 
REMARK       I    between atoms: N_25  and  C_32 
REMARK   12  A    between atoms: C_27  and  C_28 
ROOT
HETATM    1  H           1     -22.635  -5.705  -5.876  0.00  0.00     0.163 HD
HETATM    2  O           1     -19.724  -4.561  -5.626  0.00  0.00    -0.271 OA
HETATM    3  N           1     -21.702  -5.591  -5.501  0.00  0.00    -0.345 N 
HETATM    4  C           1     -20.838  -4.697  -6.074  0.00  0.00     0.249 C 
ENDROOT
BRANCH   3   5
HETATM    5  C           1     -21.280  -6.376  -4.357  0.00  0.00     0.185 C 
BRANCH   5   6
HETATM    6  C           1     -22.423  -6.470  -3.357  0.00  0.00     0.038 C 
BRANCH   6   7
HETATM    7  C           1     -21.944  -5.997  -1.991  0.00  0.00     0.023 C 
BRANCH   7   8
HETATM    8  C           1     -22.323  -7.025  -0.935  0.00  0.00     0.138 C 
BRANCH   8   9
HETATM    9  N           1     -21.670  -8.307  -1.241  0.00  0.00    -0.227 N 
HETATM   10  C           1     -21.176  -9.004  -0.307  0.00  0.00     0.665 C 
HETATM   11  N           1     -21.244  -8.598   0.890  0.00  0.00    -0.235 N 
HETATM   12  N           1     -20.599 -10.137  -0.578  0.00  0.00    -0.235 N 
HETATM   13  H           1     -21.710  -7.683   1.108  0.00  0.00     0.174 HD
HETATM   14  H           1     -20.834  -9.177   1.665  0.00  0.00     0.174 HD
HETATM   15  H           1     -20.542 -10.472  -1.567  0.00  0.00     0.174 HD
HETATM   16  H           1     -20.191 -10.713   0.192  0.00  0.00     0.174 HD
HETATM   17  H           1     -21.614  -8.643  -2.234  0.00  0.00     0.177 HD
ENDBRANCH   8   9
ENDBRANCH   7   8
ENDBRANCH   6   7
ENDBRANCH   5   6
BRANCH   5  18
HETATM   18  C           1     -20.894  -7.762  -4.814  0.00  0.00     0.196 C 
HETATM   19  O           1     -20.293  -8.532  -4.034  0.00  0.00    -0.646 OA
HETATM   20  O           1     -21.178  -8.141  -5.971  0.00  0.00    -0.646 OA
ENDBRANCH   5  18
ENDBRANCH   3   5
BRANCH   4  21
HETATM   21  C           1     -21.277  -3.879  -7.264  0.00  0.00     0.274 C 
BRANCH  21  22
HETATM   22  C           1     -22.646  -4.357  -7.732  0.00  0.00     0.044 C 
BRANCH  22  23
HETATM   23  C           1     -22.981  -3.708  -9.068  0.00  0.00     0.030 C 
BRANCH  23  24
HETATM   24  C           1     -24.144  -4.448  -9.715  0.00  0.00     0.230 C 
BRANCH  24  25
HETATM   25  N           1     -25.366  -3.578  -9.694  0.00  0.00    -0.079 N 
HETATM   26  H           1     -26.144  -4.081  -9.212  0.00  0.00     0.274 HD
HETATM   27  H           1     -25.153  -2.692  -9.182  0.00  0.00     0.274 HD
HETATM   28  H           1     -25.651  -3.355 -10.674  0.00  0.00     0.274 HD
ENDBRANCH  24  25
ENDBRANCH  23  24
ENDBRANCH  22  23
ENDBRANCH  21  22
BRANCH  21  29
HETATM   29  N           1     -20.284  -4.044  -8.376  0.00  0.00    -0.067 N 
HETATM   30  H           1     -19.463  -3.421  -8.204  0.00  0.00     0.275 HD
HETATM   31  H           1     -20.734  -3.788  -9.284  0.00  0.00     0.275 HD
HETATM   32  H           1     -19.965  -5.038  -8.414  0.00  0.00     0.275 HD
ENDBRANCH  21  29
ENDBRANCH   4  21
TORSDOF 12
ENDMDL
