MODEL 1
REMARK VINA RESULT:      -7.2      0.000      0.000
REMARK  6 active torsions:
REMARK  status: ('A' for Active; 'I' for Inactive)
REMARK       I    between atoms: C_1  and  N_24 
REMARK    1  A    between atoms: C_1  and  C_2 
REMARK    2  A    between atoms: C_13  and  C_16 
REMARK    3  A    between atoms: C_16  and  C_20 
REMARK    4  A    between atoms: O_19  and  C_26 
REMARK    5  A    between atoms: C_20  and  C_21 
REMARK    6  A    between atoms: C_20  and  N_24 
ROOT
HETATM    1  C           1     -21.108  -5.543  -6.695  0.00  0.00     0.189 C 
ENDROOT
BRANCH   1   2
HETATM    2  C           1     -22.145  -4.538  -7.179  0.00  0.00     0.074 C 
BRANCH   2   3
HETATM    3  C           1     -22.041  -4.389  -8.665  0.00  0.00    -0.056 A 
HETATM    4  C           1     -20.802  -4.150  -9.258  0.00  0.00     0.010 A 
HETATM    5  C           1     -20.707  -4.011 -10.642  0.00  0.00     0.037 A 
HETATM    6  C           1     -21.849  -4.113 -11.434  0.00  0.00     0.065 A 
HETATM    7  C           1     -23.089  -4.353 -10.842  0.00  0.00     0.037 A 
HETATM    8  C           1     -23.186  -4.491  -9.457  0.00  0.00     0.010 A 
BRANCH   6   9
HETATM    9  O           1     -21.757  -3.979 -12.780  0.00  0.00    -0.361 OA
HETATM   10  H           1     -21.026  -3.368 -12.971  0.00  0.00     0.217 HD
ENDBRANCH   6   9
ENDBRANCH   2   3
ENDBRANCH   1   2
BRANCH   1  11
HETATM   11  C           1     -19.960  -4.808  -6.048  0.00  0.00     0.197 C 
HETATM   12  O           1     -18.914  -4.588  -6.697  0.00  0.00    -0.646 OA
HETATM   13  O           1     -20.054  -4.419  -4.864  0.00  0.00    -0.646 OA
ENDBRANCH   1  11
BRANCH   1  14
HETATM   14  N           1     -21.716  -6.435  -5.727  0.00  0.00    -0.344 N 
HETATM   15  C           1     -21.152  -7.656  -5.472  0.00  0.00     0.249 C 
HETATM   16  O           1     -20.146  -7.990  -6.054  0.00  0.00    -0.271 OA
HETATM   17  H           1     -22.558  -6.155  -5.240  0.00  0.00     0.163 HD
BRANCH  15  18
HETATM   18  C           1     -21.783  -8.584  -4.465  0.00  0.00     0.274 C 
HETATM   19  C           1     -21.421  -8.131  -3.057  0.00  0.00     0.042 C 
HETATM   20  C           1     -19.906  -8.154  -2.889  0.00  0.00     0.003 C 
HETATM   21 Se           1     -19.248  -9.965  -3.176  0.00  0.00     0.000 Se
HETATM   22  C           1     -17.377  -9.509  -2.872  0.00  0.00     0.000 C 
HETATM   23  H           1     -20.238  -9.994  -4.571  0.00  0.00     0.275 HD
HETATM   24  N           1     -21.275  -9.979  -4.686  0.00  0.00    -0.067 N 
HETATM   25  H           1     -21.712 -10.624  -3.989  0.00  0.00     0.275 HD
HETATM   26  H           1     -21.525 -10.291  -5.652  0.00  0.00     0.275 HD
ENDBRANCH  15  18
ENDBRANCH   1  14
TORSDOF 6
ENDMDL
MODEL 2
REMARK VINA RESULT:      -7.1      2.163      3.134
REMARK  6 active torsions:
REMARK  status: ('A' for Active; 'I' for Inactive)
REMARK       I    between atoms: C_1  and  N_24 
REMARK    1  A    between atoms: C_1  and  C_2 
REMARK    2  A    between atoms: C_13  and  C_16 
REMARK    3  A    between atoms: C_16  and  C_20 
REMARK    4  A    between atoms: O_19  and  C_26 
REMARK    5  A    between atoms: C_20  and  C_21 
REMARK    6  A    between atoms: C_20  and  N_24 
ROOT
HETATM    1  C           1     -21.078  -5.934  -5.378  0.00  0.00     0.189 C 
ENDROOT
BRANCH   1   2
HETATM    2  C           1     -20.374  -4.694  -5.910  0.00  0.00     0.074 C 
BRANCH   2   3
HETATM    3  C           1     -20.886  -4.376  -7.280  0.00  0.00    -0.056 A 
HETATM    4  C           1     -22.251  -4.178  -7.486  0.00  0.00     0.010 A 
HETATM    5  C           1     -22.728  -3.882  -8.763  0.00  0.00     0.037 A 
HETATM    6  C           1     -21.840  -3.783  -9.833  0.00  0.00     0.065 A 
HETATM    7  C           1     -20.475  -3.980  -9.628  0.00  0.00     0.037 A 
HETATM    8  C           1     -19.997  -4.277  -8.351  0.00  0.00     0.010 A 
BRANCH   6   9
HETATM    9  O           1     -22.303  -3.494 -11.074  0.00  0.00    -0.361 OA
HETATM   10  H           1     -21.594  -3.683 -11.710  0.00  0.00     0.217 HD
ENDBRANCH   6   9
ENDBRANCH   2   3
ENDBRANCH   1   2
BRANCH   1  11
HETATM   11  C           1     -20.645  -7.140  -6.175  0.00  0.00     0.197 C 
HETATM   12  O           1     -21.463  -8.054  -6.419  0.00  0.00    -0.646 OA
HETATM   13  O           1     -19.470  -7.225  -6.594  0.00  0.00    -0.646 OA
ENDBRANCH   1  11
BRANCH   1  14
HETATM   14  N           1     -20.728  -6.128  -3.983  0.00  0.00    -0.344 N 
HETATM   15  C           1     -21.704  -6.408  -3.065  0.00  0.00     0.249 C 
HETATM   16  O           1     -22.857  -6.495  -3.417  0.00  0.00    -0.271 OA
HETATM   17  H           1     -19.762  -6.055  -3.690  0.00  0.00     0.163 HD
BRANCH  15  18
HETATM   18  C           1     -21.340  -6.610  -1.616  0.00  0.00     0.274 C 
HETATM   19  C           1     -20.326  -7.740  -1.497  0.00  0.00     0.042 C 
HETATM   20  C           1     -20.927  -9.024  -2.054  0.00  0.00     0.003 C 
HETATM   21 Se           1     -22.529  -9.484  -1.043  0.00  0.00     0.000 Se
HETATM   22  C           1     -22.911 -11.097  -2.067  0.00  0.00     0.000 C 
HETATM   23  H           1     -22.986  -7.845  -1.219  0.00  0.00     0.275 HD
HETATM   24  N           1     -22.574  -6.964  -0.837  0.00  0.00    -0.067 N 
HETATM   25  H           1     -22.324  -7.104   0.167  0.00  0.00     0.275 HD
HETATM   26  H           1     -23.270  -6.189  -0.918  0.00  0.00     0.275 HD
ENDBRANCH  15  18
ENDBRANCH   1  14
TORSDOF 6
ENDMDL
MODEL 3
REMARK VINA RESULT:      -7.0      3.265      7.757
REMARK  6 active torsions:
REMARK  status: ('A' for Active; 'I' for Inactive)
REMARK       I    between atoms: C_1  and  N_24 
REMARK    1  A    between atoms: C_1  and  C_2 
REMARK    2  A    between atoms: C_13  and  C_16 
REMARK    3  A    between atoms: C_16  and  C_20 
REMARK    4  A    between atoms: O_19  and  C_26 
REMARK    5  A    between atoms: C_20  and  C_21 
REMARK    6  A    between atoms: C_20  and  N_24 
ROOT
HETATM    1  C           1     -21.008  -6.248  -4.453  0.00  0.00     0.189 C 
ENDROOT
BRANCH   1   2
HETATM    2  C           1     -21.154  -5.750  -3.022  0.00  0.00     0.074 C 
BRANCH   2   3
HETATM    3  C           1     -21.309  -6.918  -2.099  0.00  0.00    -0.056 A 
HETATM    4  C           1     -22.320  -6.920  -1.139  0.00  0.00     0.010 A 
HETATM    5  C           1     -22.464  -8.009  -0.279  0.00  0.00     0.037 A 
HETATM    6  C           1     -21.599  -9.097  -0.380  0.00  0.00     0.065 A 
HETATM    7  C           1     -20.587  -9.096  -1.341  0.00  0.00     0.037 A 
HETATM    8  C           1     -20.442  -8.007  -2.201  0.00  0.00     0.010 A 
BRANCH   6   9
HETATM    9  O           1     -21.739 -10.155   0.454  0.00  0.00    -0.361 OA
HETATM   10  H           1     -21.425 -10.948  -0.011  0.00  0.00     0.217 HD
ENDBRANCH   6   9
ENDBRANCH   2   3
ENDBRANCH   1   2
BRANCH   1  11
HETATM   11  C           1     -22.307  -6.872  -4.903  0.00  0.00     0.197 C 
HETATM   12  O           1     -22.367  -8.102  -5.120  0.00  0.00    -0.646 OA
HETATM   13  O           1     -23.322  -6.160  -5.059  0.00  0.00    -0.646 OA
ENDBRANCH   1  11
BRANCH   1  14
HETATM   14  N           1     -20.683  -5.133  -5.322  0.00  0.00    -0.344 N 
HETATM   15  C           1     -20.319  -5.361  -6.621  0.00  0.00     0.249 C 
HETATM   16  O           1     -20.270  -6.492  -7.045  0.00  0.00    -0.271 OA
HETATM   17  H           1     -20.725  -4.187  -4.966  0.00  0.00     0.163 HD
BRANCH  15  18
HETATM   18  C           1     -19.981  -4.202  -7.525  0.00  0.00     0.274 C 
HETATM   19  C           1     -21.116  -3.187  -7.498  0.00  0.00     0.042 C 
HETATM   20  C           1     -22.402  -3.848  -7.980  0.00  0.00     0.003 C 
HETATM   21 Se           1     -22.157  -4.497  -9.801  0.00  0.00     0.000 Se
HETATM   22  C           1     -23.961  -5.216  -9.961  0.00  0.00     0.000 C 
HETATM   23  H           1     -20.674  -5.155  -9.257  0.00  0.00     0.275 HD
HETATM   24  N           1     -19.793  -4.702  -8.928  0.00  0.00    -0.067 N 
HETATM   25  H           1     -19.558  -3.900  -9.555  0.00  0.00     0.275 HD
HETATM   26  H           1     -19.013  -5.398  -8.947  0.00  0.00     0.275 HD
ENDBRANCH  15  18
ENDBRANCH   1  14
TORSDOF 6
ENDMDL
MODEL 4
REMARK VINA RESULT:      -7.0     14.496     17.554
REMARK  6 active torsions:
REMARK  status: ('A' for Active; 'I' for Inactive)
REMARK       I    between atoms: C_1  and  N_24 
REMARK    1  A    between atoms: C_1  and  C_2 
REMARK    2  A    between atoms: C_13  and  C_16 
REMARK    3  A    between atoms: C_16  and  C_20 
REMARK    4  A    between atoms: O_19  and  C_26 
REMARK    5  A    between atoms: C_20  and  C_21 
REMARK    6  A    between atoms: C_20  and  N_24 
ROOT
HETATM    1  C           1     -35.780  -1.144 -11.564  0.00  0.00     0.189 C 
ENDROOT
BRANCH   1   2
HETATM    2  C           1     -34.313  -1.449 -11.297  0.00  0.00     0.074 C 
BRANCH   2   3
HETATM    3  C           1     -34.116  -2.930 -11.216  0.00  0.00    -0.056 A 
HETATM    4  C           1     -32.929  -3.503 -11.671  0.00  0.00     0.010 A 
HETATM    5  C           1     -32.746  -4.883 -11.595  0.00  0.00     0.037 A 
HETATM    6  C           1     -33.749  -5.691 -11.062  0.00  0.00     0.065 A 
HETATM    7  C           1     -34.936  -5.119 -10.605  0.00  0.00     0.037 A 
HETATM    8  C           1     -35.120  -3.738 -10.682  0.00  0.00     0.010 A 
BRANCH   6   9
HETATM    9  O           1     -33.571  -7.033 -10.987  0.00  0.00    -0.361 OA
HETATM   10  H           1     -33.828  -7.418 -11.841  0.00  0.00     0.217 HD
ENDBRANCH   6   9
ENDBRANCH   2   3
ENDBRANCH   1   2
BRANCH   1  11
HETATM   11  C           1     -36.369  -0.424 -10.376  0.00  0.00     0.197 C 
HETATM   12  O           1     -37.017  -1.061  -9.517  0.00  0.00    -0.646 OA
HETATM   13  O           1     -36.209   0.809 -10.249  0.00  0.00    -0.646 OA
ENDBRANCH   1  11
BRANCH   1  14
HETATM   14  N           1     -35.893  -0.304 -12.741  0.00  0.00    -0.344 N 
HETATM   15  C           1     -37.101  -0.164 -13.369  0.00  0.00     0.249 C 
HETATM   16  O           1     -38.074  -0.740 -12.942  0.00  0.00    -0.271 OA
HETATM   17  H           1     -35.078   0.178 -13.098  0.00  0.00     0.163 HD
BRANCH  15  18
HETATM   18  C           1     -37.220   0.710 -14.592  0.00  0.00     0.274 C 
HETATM   19  C           1     -37.894  -0.070 -15.712  0.00  0.00     0.042 C 
HETATM   20  C           1     -37.062  -1.302 -16.047  0.00  0.00     0.003 C 
HETATM   21 Se           1     -35.284  -0.750 -16.622  0.00  0.00     0.000 Se
HETATM   22  C           1     -34.638  -2.565 -16.920  0.00  0.00     0.000 C 
HETATM   23  H           1     -35.280   0.290 -15.264  0.00  0.00     0.275 HD
HETATM   24  N           1     -35.850   1.135 -15.035  0.00  0.00    -0.067 N 
HETATM   25  H           1     -35.930   1.741 -15.883  0.00  0.00     0.275 HD
HETATM   26  H           1     -35.387   1.672 -14.267  0.00  0.00     0.275 HD
ENDBRANCH  15  18
ENDBRANCH   1  14
TORSDOF 6
ENDMDL
MODEL 5
REMARK VINA RESULT:      -6.7      3.860      6.955
REMARK  6 active torsions:
REMARK  status: ('A' for Active; 'I' for Inactive)
REMARK       I    between atoms: C_1  and  N_24 
REMARK    1  A    between atoms: C_1  and  C_2 
REMARK    2  A    between atoms: C_13  and  C_16 
REMARK    3  A    between atoms: C_16  and  C_20 
REMARK    4  A    between atoms: O_19  and  C_26 
REMARK    5  A    between atoms: C_20  and  C_21 
REMARK    6  A    between atoms: C_20  and  N_24 
ROOT
HETATM    1  C           1     -21.170  -8.616  -4.862  0.00  0.00     0.189 C 
ENDROOT
BRANCH   1   2
HETATM    2  C           1     -20.313  -8.350  -3.632  0.00  0.00     0.074 C 
BRANCH   2   3
HETATM    3  C           1     -21.191  -8.251  -2.424  0.00  0.00    -0.056 A 
HETATM    4  C           1     -21.637  -9.410  -1.788  0.00  0.00     0.010 A 
HETATM    5  C           1     -22.454  -9.317  -0.662  0.00  0.00     0.037 A 
HETATM    6  C           1     -22.824  -8.066  -0.170  0.00  0.00     0.065 A 
HETATM    7  C           1     -22.378  -6.907  -0.804  0.00  0.00     0.037 A 
HETATM    8  C           1     -21.561  -6.999  -1.932  0.00  0.00     0.010 A 
BRANCH   6   9
HETATM    9  O           1     -23.618  -7.976   0.925  0.00  0.00    -0.361 OA
HETATM   10  H           1     -23.065  -7.699   1.674  0.00  0.00     0.217 HD
ENDBRANCH   6   9
ENDBRANCH   2   3
ENDBRANCH   1   2
BRANCH   1  11
HETATM   11  C           1     -21.324  -7.341  -5.654  0.00  0.00     0.197 C 
HETATM   12  O           1     -22.214  -6.518  -5.347  0.00  0.00    -0.646 OA
HETATM   13  O           1     -20.562  -7.107  -6.617  0.00  0.00    -0.646 OA
ENDBRANCH   1  11
BRANCH   1  14
HETATM   14  N           1     -20.529  -9.622  -5.688  0.00  0.00    -0.344 N 
HETATM   15  C           1     -20.946 -10.924  -5.628  0.00  0.00     0.249 C 
HETATM   16  O           1     -21.848 -11.236  -4.887  0.00  0.00    -0.271 OA
HETATM   17  H           1     -19.774  -9.360  -6.309  0.00  0.00     0.163 HD
BRANCH  15  18
HETATM   18  C           1     -20.281 -11.970  -6.487  0.00  0.00     0.274 C 
HETATM   19  C           1     -19.776 -13.106  -5.608  0.00  0.00     0.042 C 
HETATM   20  C           1     -18.770 -12.562  -4.601  0.00  0.00     0.003 C 
HETATM   21 Se           1     -17.268 -11.761  -5.550  0.00  0.00     0.000 Se
HETATM   22  C           1     -16.313 -11.241  -3.933  0.00  0.00     0.000 C 
HETATM   23  H           1     -18.435 -10.980  -6.527  0.00  0.00     0.275 HD
HETATM   24  N           1     -19.124 -11.353  -7.218  0.00  0.00    -0.067 N 
HETATM   25  H           1     -18.662 -12.077  -7.814  0.00  0.00     0.275 HD
HETATM   26  H           1     -19.470 -10.574  -7.822  0.00  0.00     0.275 HD
ENDBRANCH  15  18
ENDBRANCH   1  14
TORSDOF 6
ENDMDL
MODEL 6
REMARK VINA RESULT:      -6.6      2.406      3.445
REMARK  6 active torsions:
REMARK  status: ('A' for Active; 'I' for Inactive)
REMARK       I    between atoms: C_1  and  N_24 
REMARK    1  A    between atoms: C_1  and  C_2 
REMARK    2  A    between atoms: C_13  and  C_16 
REMARK    3  A    between atoms: C_16  and  C_20 
REMARK    4  A    between atoms: O_19  and  C_26 
REMARK    5  A    between atoms: C_20  and  C_21 
REMARK    6  A    between atoms: C_20  and  N_24 
ROOT
HETATM    1  C           1     -21.435  -7.222  -4.069  0.00  0.00     0.189 C 
ENDROOT
BRANCH   1   2
HETATM    2  C           1     -22.408  -6.399  -4.901  0.00  0.00     0.074 C 
BRANCH   2   3
HETATM    3  C           1     -21.648  -5.588  -5.904  0.00  0.00    -0.056 A 
HETATM    4  C           1     -20.257  -5.520  -5.838  0.00  0.00     0.010 A 
HETATM    5  C           1     -19.550  -4.765  -6.772  0.00  0.00     0.037 A 
HETATM    6  C           1     -20.233  -4.078  -7.774  0.00  0.00     0.065 A 
HETATM    7  C           1     -21.625  -4.146  -7.842  0.00  0.00     0.037 A 
HETATM    8  C           1     -22.333  -4.901  -6.907  0.00  0.00     0.010 A 
BRANCH   6   9
HETATM    9  O           1     -19.546  -3.344  -8.683  0.00  0.00    -0.361 OA
HETATM   10  H           1     -19.666  -2.405  -8.464  0.00  0.00     0.217 HD
ENDBRANCH   6   9
ENDBRANCH   2   3
ENDBRANCH   1   2
BRANCH   1  11
HETATM   11  C           1     -21.614  -6.888  -2.608  0.00  0.00     0.197 C 
HETATM   12  O           1     -20.967  -7.513  -1.740  0.00  0.00    -0.646 OA
HETATM   13  O           1     -22.408  -5.986  -2.266  0.00  0.00    -0.646 OA
ENDBRANCH   1  11
BRANCH   1  14
HETATM   14  N           1     -21.695  -8.634  -4.276  0.00  0.00    -0.344 N 
HETATM   15  C           1     -20.890  -9.364  -5.108  0.00  0.00     0.249 C 
HETATM   16  O           1     -19.962  -8.832  -5.670  0.00  0.00    -0.271 OA
HETATM   17  H           1     -22.473  -9.078  -3.805  0.00  0.00     0.163 HD
BRANCH  15  18
HETATM   18  C           1     -21.161 -10.832  -5.324  0.00  0.00     0.274 C 
HETATM   19  C           1     -20.887 -11.594  -4.035  0.00  0.00     0.042 C 
HETATM   20  C           1     -19.431 -11.401  -3.628  0.00  0.00     0.003 C 
HETATM   21 Se           1     -18.267 -12.073  -5.039  0.00  0.00     0.000 Se
HETATM   22  C           1     -16.612 -11.630  -4.109  0.00  0.00     0.000 C 
HETATM   23  H           1     -19.266 -11.216  -6.131  0.00  0.00     0.275 HD
HETATM   24  N           1     -20.264 -11.349  -6.410  0.00  0.00    -0.067 N 
HETATM   25  H           1     -20.450 -12.366  -6.560  0.00  0.00     0.275 HD
HETATM   26  H           1     -20.452 -10.826  -7.295  0.00  0.00     0.275 HD
ENDBRANCH  15  18
ENDBRANCH   1  14
TORSDOF 6
ENDMDL
MODEL 7
REMARK VINA RESULT:      -6.6      5.338      7.495
REMARK  6 active torsions:
REMARK  status: ('A' for Active; 'I' for Inactive)
REMARK       I    between atoms: C_1  and  N_24 
REMARK    1  A    between atoms: C_1  and  C_2 
REMARK    2  A    between atoms: C_13  and  C_16 
REMARK    3  A    between atoms: C_16  and  C_20 
REMARK    4  A    between atoms: O_19  and  C_26 
REMARK    5  A    between atoms: C_20  and  C_21 
REMARK    6  A    between atoms: C_20  and  N_24 
ROOT
HETATM    1  C           1     -19.851  -9.372  -4.091  0.00  0.00     0.189 C 
ENDROOT
BRANCH   1   2
HETATM    2  C           1     -20.565  -8.036  -3.944  0.00  0.00     0.074 C 
BRANCH   2   3
HETATM    3  C           1     -21.326  -8.015  -2.655  0.00  0.00    -0.056 A 
HETATM    4  C           1     -21.636  -9.210  -2.007  0.00  0.00     0.010 A 
HETATM    5  C           1     -22.345  -9.189  -0.807  0.00  0.00     0.037 A 
HETATM    6  C           1     -22.743  -7.973  -0.253  0.00  0.00     0.065 A 
HETATM    7  C           1     -22.433  -6.777  -0.900  0.00  0.00     0.037 A 
HETATM    8  C           1     -21.724  -6.797  -2.101  0.00  0.00     0.010 A 
BRANCH   6   9
HETATM    9  O           1     -23.431  -7.952   0.915  0.00  0.00    -0.361 OA
HETATM   10  H           1     -24.191  -8.552   0.826  0.00  0.00     0.217 HD
ENDBRANCH   6   9
ENDBRANCH   2   3
ENDBRANCH   1   2
BRANCH   1  11
HETATM   11  C           1     -20.202  -9.987  -5.424  0.00  0.00     0.197 C 
HETATM   12  O           1     -21.323  -9.774  -5.935  0.00  0.00    -0.646 OA
HETATM   13  O           1     -19.371 -10.708  -6.018  0.00  0.00    -0.646 OA
ENDBRANCH   1  11
BRANCH   1  14
HETATM   14  N           1     -18.417  -9.164  -4.019  0.00  0.00    -0.344 N 
HETATM   15  C           1     -17.680  -9.805  -3.060  0.00  0.00     0.249 C 
HETATM   16  O           1     -18.224 -10.544  -2.273  0.00  0.00    -0.271 OA
HETATM   17  H           1     -17.963  -8.545  -4.678  0.00  0.00     0.163 HD
BRANCH  15  18
HETATM   18  C           1     -16.189  -9.589  -2.985  0.00  0.00     0.274 C 
HETATM   19  C           1     -15.573  -9.805  -4.360  0.00  0.00     0.042 C 
HETATM   20  C           1     -15.858 -11.226  -4.828  0.00  0.00     0.003 C 
HETATM   21 Se           1     -15.083 -12.493  -3.566  0.00  0.00     0.000 Se
HETATM   22  C           1     -15.676 -14.075  -4.538  0.00  0.00     0.000 C 
HETATM   23  H           1     -15.788 -11.539  -2.334  0.00  0.00     0.275 HD
HETATM   24  N           1     -15.593 -10.565  -2.012  0.00  0.00    -0.067 N 
HETATM   25  H           1     -14.560 -10.417  -1.959  0.00  0.00     0.275 HD
HETATM   26  H           1     -16.015 -10.416  -1.068  0.00  0.00     0.275 HD
ENDBRANCH  15  18
ENDBRANCH   1  14
TORSDOF 6
ENDMDL
MODEL 8
REMARK VINA RESULT:      -6.5     14.042     16.270
REMARK  6 active torsions:
REMARK  status: ('A' for Active; 'I' for Inactive)
REMARK       I    between atoms: C_1  and  N_24 
REMARK    1  A    between atoms: C_1  and  C_2 
REMARK    2  A    between atoms: C_13  and  C_16 
REMARK    3  A    between atoms: C_16  and  C_20 
REMARK    4  A    between atoms: O_19  and  C_26 
REMARK    5  A    between atoms: C_20  and  C_21 
REMARK    6  A    between atoms: C_20  and  N_24 
ROOT
HETATM    1  C           1     -35.414  -0.807 -11.070  0.00  0.00     0.189 C 
ENDROOT
BRANCH   1   2
HETATM    2  C           1     -35.751   0.478 -11.813  0.00  0.00     0.074 C 
BRANCH   2   3
HETATM    3  C           1     -36.032   0.166 -13.250  0.00  0.00    -0.056 A 
HETATM    4  C           1     -34.997   0.189 -14.185  0.00  0.00     0.010 A 
HETATM    5  C           1     -35.259  -0.101 -15.523  0.00  0.00     0.037 A 
HETATM    6  C           1     -36.556  -0.416 -15.927  0.00  0.00     0.065 A 
HETATM    7  C           1     -37.592  -0.439 -14.993  0.00  0.00     0.037 A 
HETATM    8  C           1     -37.330  -0.148 -13.654  0.00  0.00     0.010 A 
BRANCH   6   9
HETATM    9  O           1     -36.811  -0.698 -17.228  0.00  0.00    -0.361 OA
HETATM   10  H           1     -37.149  -1.608 -17.277  0.00  0.00     0.217 HD
ENDBRANCH   6   9
ENDBRANCH   2   3
ENDBRANCH   1   2
BRANCH   1  11
HETATM   11  C           1     -36.651  -1.331 -10.383  0.00  0.00     0.197 C 
HETATM   12  O           1     -37.005  -2.517 -10.554  0.00  0.00    -0.646 OA
HETATM   13  O           1     -37.321  -0.579  -9.642  0.00  0.00    -0.646 OA
ENDBRANCH   1  11
BRANCH   1  14
HETATM   14  N           1     -34.930  -1.798 -12.013  0.00  0.00    -0.344 N 
HETATM   15  C           1     -33.926  -2.654 -11.652  0.00  0.00     0.249 C 
HETATM   16  O           1     -33.441  -2.585 -10.547  0.00  0.00    -0.271 OA
HETATM   17  H           1     -35.336  -1.855 -12.938  0.00  0.00     0.163 HD
BRANCH  15  18
HETATM   18  C           1     -33.423  -3.684 -12.632  0.00  0.00     0.274 C 
HETATM   19  C           1     -34.573  -4.586 -13.058  0.00  0.00     0.042 C 
HETATM   20  C           1     -35.149  -5.288 -11.834  0.00  0.00     0.003 C 
HETATM   21 Se           1     -33.761  -6.363 -10.988  0.00  0.00     0.000 Se
HETATM   22  C           1     -34.913  -7.023  -9.560  0.00  0.00     0.000 C 
HETATM   23  H           1     -32.749  -4.993 -11.142  0.00  0.00     0.275 HD
HETATM   24  N           1     -32.354  -4.512 -11.981  0.00  0.00    -0.067 N 
HETATM   25  H           1     -32.005  -5.227 -12.658  0.00  0.00     0.275 HD
HETATM   26  H           1     -31.564  -3.893 -11.690  0.00  0.00     0.275 HD
ENDBRANCH  15  18
ENDBRANCH   1  14
TORSDOF 6
ENDMDL
MODEL 9
REMARK VINA RESULT:      -6.5      1.895      2.436
REMARK  6 active torsions:
REMARK  status: ('A' for Active; 'I' for Inactive)
REMARK       I    between atoms: C_1  and  N_24 
REMARK    1  A    between atoms: C_1  and  C_2 
REMARK    2  A    between atoms: C_13  and  C_16 
REMARK    3  A    between atoms: C_16  and  C_20 
REMARK    4  A    between atoms: O_19  and  C_26 
REMARK    5  A    between atoms: C_20  and  C_21 
REMARK    6  A    between atoms: C_20  and  N_24 
ROOT
HETATM    1  C           1     -20.960  -5.240  -6.644  0.00  0.00     0.189 C 
ENDROOT
BRANCH   1   2
HETATM    2  C           1     -21.493  -3.920  -7.183  0.00  0.00     0.074 C 
BRANCH   2   3
HETATM    3  C           1     -22.064  -4.132  -8.550  0.00  0.00    -0.056 A 
HETATM    4  C           1     -23.428  -4.379  -8.706  0.00  0.00     0.010 A 
HETATM    5  C           1     -23.960  -4.576  -9.980  0.00  0.00     0.037 A 
HETATM    6  C           1     -23.129  -4.526 -11.098  0.00  0.00     0.065 A 
HETATM    7  C           1     -21.765  -4.279 -10.943  0.00  0.00     0.037 A 
HETATM    8  C           1     -21.232  -4.082  -9.669  0.00  0.00     0.010 A 
BRANCH   6   9
HETATM    9  O           1     -23.646  -4.717 -12.336  0.00  0.00    -0.361 OA
HETATM   10  H           1     -24.012  -3.871 -12.643  0.00  0.00     0.217 HD
ENDBRANCH   6   9
ENDBRANCH   2   3
ENDBRANCH   1   2
BRANCH   1  11
HETATM   11  C           1     -19.592  -5.505  -7.223  0.00  0.00     0.197 C 
HETATM   12  O           1     -18.799  -4.558  -7.412  0.00  0.00    -0.646 OA
HETATM   13  O           1     -19.251  -6.673  -7.514  0.00  0.00    -0.646 OA
ENDBRANCH   1  11
BRANCH   1  14
HETATM   14  N           1     -20.865  -5.169  -5.198  0.00  0.00    -0.344 N 
HETATM   15  C           1     -21.506  -6.097  -4.423  0.00  0.00     0.249 C 
HETATM   16  O           1     -22.151  -6.977  -4.944  0.00  0.00    -0.271 OA
HETATM   17  H           1     -20.325  -4.432  -4.763  0.00  0.00     0.163 HD
BRANCH  15  18
HETATM   18  C           1     -21.407  -6.024  -2.920  0.00  0.00     0.274 C 
HETATM   19  C           1     -20.238  -6.876  -2.444  0.00  0.00     0.042 C 
HETATM   20  C           1     -20.458  -8.323  -2.868  0.00  0.00     0.003 C 
HETATM   21 Se           1     -22.109  -8.989  -2.077  0.00  0.00     0.000 Se
HETATM   22  C           1     -21.961 -10.766  -2.864  0.00  0.00     0.000 C 
HETATM   23  H           1     -22.829  -7.529  -2.602  0.00  0.00     0.275 HD
HETATM   24  N           1     -22.679  -6.537  -2.311  0.00  0.00    -0.067 N 
HETATM   25  H           1     -22.612  -6.487  -1.270  0.00  0.00     0.275 HD
HETATM   26  H           1     -23.481  -5.951  -2.637  0.00  0.00     0.275 HD
ENDBRANCH  15  18
ENDBRANCH   1  14
TORSDOF 6
ENDMDL
