MODEL 1
REMARK VINA RESULT:      -6.2      0.000      0.000
REMARK  10 active torsions:
REMARK  status: ('A' for Active; 'I' for Inactive)
REMARK    1  A    between atoms: C_4  and  C_7 
REMARK    2  A    between atoms: C_4  and  C_14 
REMARK       I    between atoms: C_6  and  N_13 
REMARK    3  A    between atoms: C_6  and  C_7 
REMARK    4  A    between atoms: C_7  and  N_20 
REMARK    5  A    between atoms: C_9  and  C_16 
REMARK    6  A    between atoms: O_12  and  P_17 
REMARK    7  A    between atoms: N_13  and  C_16 
REMARK    8  A    between atoms: C_16  and  C_18 
REMARK    9  A    between atoms: P_17  and  O_19 
REMARK   10  A    between atoms: C_18  and  O_19 
ROOT
HETATM    1  C           1     -26.006  -6.303 -17.794  0.00  0.00     0.249 C 
HETATM    2  N           1     -27.271  -6.700 -18.136  0.00  0.00    -0.343 N 
HETATM    3  H           1     -27.427  -7.193 -19.006  0.00  0.00     0.163 HD
HETATM    4  O           1     -25.818  -5.712 -16.757  0.00  0.00    -0.271 OA
ENDROOT
BRANCH   2   5
HETATM    5  C           1     -28.385  -6.410 -17.255  0.00  0.00     0.210 C 
BRANCH   5   6
HETATM    6  C           1     -28.577  -7.558 -16.295  0.00  0.00     0.198 C 
HETATM    7  O           1     -27.981  -7.561 -15.196  0.00  0.00    -0.646 OA
HETATM    8  O           1     -29.333  -8.507 -16.598  0.00  0.00    -0.646 OA
ENDBRANCH   5   6
BRANCH   5   9
HETATM    9  C           1     -29.650  -6.221 -18.081  0.00  0.00     0.217 C 
BRANCH   9  10
HETATM   10  O           1     -29.707  -4.903 -18.556  0.00  0.00    -0.287 OA
BRANCH  10  11
HETATM   11  P           1     -30.294  -3.805 -17.528  0.00  0.00     0.406 P 
HETATM   12  O           1     -30.820  -4.488 -16.324  0.00  0.00    -0.624 OA
HETATM   13  O           1     -29.215  -2.872 -17.134  0.00  0.00    -0.624 OA
BRANCH  11  14
HETATM   14  O           1     -31.484  -2.981 -18.243  0.00  0.00    -0.300 OA
HETATM   15  H           1     -31.076  -2.197 -18.571  0.00  0.00     0.223 HD
ENDBRANCH  11  14
ENDBRANCH  10  11
ENDBRANCH   9  10
ENDBRANCH   5   9
ENDBRANCH   2   5
BRANCH   1  16
HETATM   16  C           1     -24.846  -6.603 -18.712  0.00  0.00     0.278 C 
BRANCH  16  17
HETATM   17  C           1     -25.372  -7.109 -20.048  0.00  0.00     0.021 C 
HETATM   18  C           1     -25.544  -5.935 -21.003  0.00  0.00     0.012 C 
BRANCH  17  19
HETATM   19  C           1     -24.382  -8.103 -20.640  0.00  0.00     0.002 C 
HETATM   20  C           1     -24.178  -7.798 -22.118  0.00  0.00     0.005 C 
ENDBRANCH  17  19
ENDBRANCH  16  17
BRANCH  16  21
HETATM   21  N           1     -23.975  -7.653 -18.087  0.00  0.00    -0.066 N 
HETATM   22  H           1     -23.739  -7.373 -17.108  0.00  0.00     0.275 HD
HETATM   23  H           1     -23.096  -7.752 -18.643  0.00  0.00     0.275 HD
HETATM   24  H           1     -24.484  -8.566 -18.076  0.00  0.00     0.275 HD
ENDBRANCH  16  21
ENDBRANCH   1  16
TORSDOF 10
ENDMDL
MODEL 2
REMARK VINA RESULT:      -6.1     12.530     14.317
REMARK  10 active torsions:
REMARK  status: ('A' for Active; 'I' for Inactive)
REMARK    1  A    between atoms: C_4  and  C_7 
REMARK    2  A    between atoms: C_4  and  C_14 
REMARK       I    between atoms: C_6  and  N_13 
REMARK    3  A    between atoms: C_6  and  C_7 
REMARK    4  A    between atoms: C_7  and  N_20 
REMARK    5  A    between atoms: C_9  and  C_16 
REMARK    6  A    between atoms: O_12  and  P_17 
REMARK    7  A    between atoms: N_13  and  C_16 
REMARK    8  A    between atoms: C_16  and  C_18 
REMARK    9  A    between atoms: P_17  and  O_19 
REMARK   10  A    between atoms: C_18  and  O_19 
ROOT
HETATM    1  C           1     -21.398  -7.233  -5.322  0.00  0.00     0.249 C 
HETATM    2  N           1     -21.802  -5.992  -5.734  0.00  0.00    -0.343 N 
HETATM    3  H           1     -22.440  -5.453  -5.162  0.00  0.00     0.163 HD
HETATM    4  O           1     -20.638  -7.878  -6.005  0.00  0.00    -0.271 OA
ENDROOT
BRANCH   2   5
HETATM    5  C           1     -21.320  -5.451  -6.990  0.00  0.00     0.210 C 
BRANCH   5   6
HETATM    6  C           1     -19.997  -4.761  -6.764  0.00  0.00     0.198 C 
HETATM    7  O           1     -19.231  -4.547  -7.729  0.00  0.00    -0.646 OA
HETATM    8  O           1     -19.667  -4.403  -5.612  0.00  0.00    -0.646 OA
ENDBRANCH   5   6
BRANCH   5   9
HETATM    9  C           1     -22.330  -4.450  -7.533  0.00  0.00     0.217 C 
BRANCH   9  10
HETATM   10  O           1     -22.137  -4.290  -8.912  0.00  0.00    -0.287 OA
BRANCH  10  11
HETATM   11  P           1     -23.465  -4.011  -9.786  0.00  0.00     0.406 P 
HETATM   12  O           1     -23.128  -3.127 -10.925  0.00  0.00    -0.624 OA
HETATM   13  O           1     -23.998  -5.293 -10.298  0.00  0.00    -0.624 OA
BRANCH  11  14
HETATM   14  O           1     -24.579  -3.297  -8.860  0.00  0.00    -0.300 OA
HETATM   15  H           1     -24.792  -3.934  -8.199  0.00  0.00     0.223 HD
ENDBRANCH  11  14
ENDBRANCH  10  11
ENDBRANCH   9  10
ENDBRANCH   5   9
ENDBRANCH   2   5
BRANCH   1  16
HETATM   16  C           1     -21.900  -7.797  -4.015  0.00  0.00     0.278 C 
BRANCH  16  17
HETATM   17  C           1     -21.178  -7.120  -2.859  0.00  0.00     0.021 C 
HETATM   18  C           1     -22.158  -6.239  -2.093  0.00  0.00     0.012 C 
BRANCH  17  19
HETATM   19  C           1     -20.612  -8.180  -1.923  0.00  0.00     0.002 C 
HETATM   20  C           1     -21.275  -8.059  -0.558  0.00  0.00     0.005 C 
ENDBRANCH  17  19
ENDBRANCH  16  17
BRANCH  16  21
HETATM   21  N           1     -21.637  -9.272  -3.974  0.00  0.00    -0.066 N 
HETATM   22  H           1     -22.254  -9.756  -4.665  0.00  0.00     0.275 HD
HETATM   23  H           1     -21.837  -9.635  -3.016  0.00  0.00     0.275 HD
HETATM   24  H           1     -20.636  -9.454  -4.214  0.00  0.00     0.275 HD
ENDBRANCH  16  21
ENDBRANCH   1  16
TORSDOF 10
ENDMDL
MODEL 3
REMARK VINA RESULT:      -5.9      3.229      5.822
REMARK  10 active torsions:
REMARK  status: ('A' for Active; 'I' for Inactive)
REMARK    1  A    between atoms: C_4  and  C_7 
REMARK    2  A    between atoms: C_4  and  C_14 
REMARK       I    between atoms: C_6  and  N_13 
REMARK    3  A    between atoms: C_6  and  C_7 
REMARK    4  A    between atoms: C_7  and  N_20 
REMARK    5  A    between atoms: C_9  and  C_16 
REMARK    6  A    between atoms: O_12  and  P_17 
REMARK    7  A    between atoms: N_13  and  C_16 
REMARK    8  A    between atoms: C_16  and  C_18 
REMARK    9  A    between atoms: P_17  and  O_19 
REMARK   10  A    between atoms: C_18  and  O_19 
ROOT
HETATM    1  C           1     -27.886  -6.146 -16.513  0.00  0.00     0.249 C 
HETATM    2  N           1     -26.816  -5.925 -17.338  0.00  0.00    -0.343 N 
HETATM    3  H           1     -26.743  -5.053 -17.848  0.00  0.00     0.163 HD
HETATM    4  O           1     -27.975  -7.187 -15.906  0.00  0.00    -0.271 OA
ENDROOT
BRANCH   2   5
HETATM    5  C           1     -25.791  -6.939 -17.484  0.00  0.00     0.210 C 
BRANCH   5   6
HETATM    6  C           1     -24.913  -6.945 -16.256  0.00  0.00     0.198 C 
HETATM    7  O           1     -24.806  -5.914 -15.558  0.00  0.00    -0.646 OA
HETATM    8  O           1     -24.292  -7.983 -15.937  0.00  0.00    -0.646 OA
ENDBRANCH   5   6
BRANCH   5   9
HETATM    9  C           1     -24.944  -6.632 -18.712  0.00  0.00     0.217 C 
BRANCH   9  10
HETATM   10  O           1     -25.727  -6.770 -19.867  0.00  0.00    -0.287 OA
BRANCH  10  11
HETATM   11  P           1     -25.114  -7.705 -21.031  0.00  0.00     0.406 P 
HETATM   12  O           1     -26.168  -8.609 -21.544  0.00  0.00    -0.624 OA
HETATM   13  O           1     -24.614  -6.855 -22.136  0.00  0.00    -0.624 OA
BRANCH  11  14
HETATM   14  O           1     -23.896  -8.580 -20.434  0.00  0.00    -0.300 OA
HETATM   15  H           1     -24.238  -8.973 -19.649  0.00  0.00     0.223 HD
ENDBRANCH  11  14
ENDBRANCH  10  11
ENDBRANCH   9  10
ENDBRANCH   5   9
ENDBRANCH   2   5
BRANCH   1  16
HETATM   16  C           1     -28.955  -5.091 -16.362  0.00  0.00     0.278 C 
BRANCH  16  17
HETATM   17  C           1     -30.293  -5.653 -16.820  0.00  0.00     0.021 C 
HETATM   18  C           1     -31.354  -4.562 -16.749  0.00  0.00     0.012 C 
BRANCH  17  19
HETATM   19  C           1     -30.172  -6.148 -18.256  0.00  0.00     0.002 C 
HETATM   20  C           1     -30.600  -7.607 -18.329  0.00  0.00     0.005 C 
ENDBRANCH  17  19
ENDBRANCH  16  17
BRANCH  16  21
HETATM   21  N           1     -28.600  -3.899 -17.199  0.00  0.00    -0.066 N 
HETATM   22  H           1     -29.166  -3.908 -18.078  0.00  0.00     0.275 HD
HETATM   23  H           1     -27.584  -3.932 -17.441  0.00  0.00     0.275 HD
HETATM   24  H           1     -28.803  -3.024 -16.664  0.00  0.00     0.275 HD
ENDBRANCH  16  21
ENDBRANCH   1  16
TORSDOF 10
ENDMDL
MODEL 4
REMARK VINA RESULT:      -5.7     13.076     14.880
REMARK  10 active torsions:
REMARK  status: ('A' for Active; 'I' for Inactive)
REMARK    1  A    between atoms: C_4  and  C_7 
REMARK    2  A    between atoms: C_4  and  C_14 
REMARK       I    between atoms: C_6  and  N_13 
REMARK    3  A    between atoms: C_6  and  C_7 
REMARK    4  A    between atoms: C_7  and  N_20 
REMARK    5  A    between atoms: C_9  and  C_16 
REMARK    6  A    between atoms: O_12  and  P_17 
REMARK    7  A    between atoms: N_13  and  C_16 
REMARK    8  A    between atoms: C_16  and  C_18 
REMARK    9  A    between atoms: P_17  and  O_19 
REMARK   10  A    between atoms: C_18  and  O_19 
ROOT
HETATM    1  C           1     -21.755  -5.441  -5.991  0.00  0.00     0.249 C 
HETATM    2  N           1     -21.087  -6.353  -5.219  0.00  0.00    -0.343 N 
HETATM    3  H           1     -20.077  -6.404  -5.257  0.00  0.00     0.163 HD
HETATM    4  O           1     -22.961  -5.381  -5.947  0.00  0.00    -0.271 OA
ENDROOT
BRANCH   2   5
HETATM    5  C           1     -21.826  -7.248  -4.350  0.00  0.00     0.210 C 
BRANCH   5   6
HETATM    6  C           1     -21.654  -6.812  -2.916  0.00  0.00     0.198 C 
HETATM    7  O           1     -20.765  -7.331  -2.207  0.00  0.00    -0.646 OA
HETATM    8  O           1     -22.400  -5.930  -2.436  0.00  0.00    -0.646 OA
ENDBRANCH   5   6
BRANCH   5   9
HETATM    9  C           1     -21.299  -8.667  -4.516  0.00  0.00     0.217 C 
BRANCH   9  10
HETATM   10  O           1     -20.319  -8.689  -5.518  0.00  0.00    -0.287 OA
BRANCH  10  11
HETATM   11  P           1     -18.990  -9.544  -5.192  0.00  0.00     0.406 P 
HETATM   12  O           1     -18.412  -9.086  -3.908  0.00  0.00    -0.624 OA
HETATM   13  O           1     -19.338 -10.979  -5.091  0.00  0.00    -0.624 OA
BRANCH  11  14
HETATM   14  O           1     -17.910  -9.334  -6.374  0.00  0.00    -0.300 OA
HETATM   15  H           1     -17.981 -10.106  -6.910  0.00  0.00     0.223 HD
ENDBRANCH  11  14
ENDBRANCH  10  11
ENDBRANCH   9  10
ENDBRANCH   5   9
ENDBRANCH   2   5
BRANCH   1  16
HETATM   16  C           1     -20.986  -4.510  -6.896  0.00  0.00     0.278 C 
BRANCH  16  17
HETATM   17  C           1     -21.351  -4.794  -8.346  0.00  0.00     0.021 C 
HETATM   18  C           1     -22.365  -3.764  -8.827  0.00  0.00     0.012 C 
BRANCH  17  19
HETATM   19  C           1     -20.099  -4.714  -9.210  0.00  0.00     0.002 C 
HETATM   20  C           1     -20.488  -4.343 -10.635  0.00  0.00     0.005 C 
ENDBRANCH  17  19
ENDBRANCH  16  17
BRANCH  16  21
HETATM   21  N           1     -19.515  -4.725  -6.699  0.00  0.00    -0.066 N 
HETATM   22  H           1     -18.983  -4.162  -7.401  0.00  0.00     0.275 HD
HETATM   23  H           1     -19.291  -5.738  -6.824  0.00  0.00     0.275 HD
HETATM   24  H           1     -19.245  -4.426  -5.735  0.00  0.00     0.275 HD
ENDBRANCH  16  21
ENDBRANCH   1  16
TORSDOF 10
ENDMDL
MODEL 5
REMARK VINA RESULT:      -5.6      3.313      6.028
REMARK  10 active torsions:
REMARK  status: ('A' for Active; 'I' for Inactive)
REMARK    1  A    between atoms: C_4  and  C_7 
REMARK    2  A    between atoms: C_4  and  C_14 
REMARK       I    between atoms: C_6  and  N_13 
REMARK    3  A    between atoms: C_6  and  C_7 
REMARK    4  A    between atoms: C_7  and  N_20 
REMARK    5  A    between atoms: C_9  and  C_16 
REMARK    6  A    between atoms: O_12  and  P_17 
REMARK    7  A    between atoms: N_13  and  C_16 
REMARK    8  A    between atoms: C_16  and  C_18 
REMARK    9  A    between atoms: P_17  and  O_19 
REMARK   10  A    between atoms: C_18  and  O_19 
ROOT
HETATM    1  C           1     -28.100  -6.615 -17.496  0.00  0.00     0.249 C 
HETATM    2  N           1     -26.905  -6.362 -18.113  0.00  0.00    -0.343 N 
HETATM    3  H           1     -26.853  -5.671 -18.850  0.00  0.00     0.163 HD
HETATM    4  O           1     -28.164  -7.442 -16.617  0.00  0.00    -0.271 OA
ENDROOT
BRANCH   2   5
HETATM    5  C           1     -25.715  -7.087 -17.714  0.00  0.00     0.210 C 
BRANCH   5   6
HETATM    6  C           1     -25.345  -6.705 -16.301  0.00  0.00     0.198 C 
HETATM    7  O           1     -25.303  -5.501 -15.970  0.00  0.00    -0.646 OA
HETATM    8  O           1     -25.079  -7.594 -15.462  0.00  0.00    -0.646 OA
ENDBRANCH   5   6
BRANCH   5   9
HETATM    9  C           1     -24.568  -6.737 -18.652  0.00  0.00     0.217 C 
BRANCH   9  10
HETATM   10  O           1     -24.351  -7.797 -19.543  0.00  0.00    -0.287 OA
BRANCH  10  11
HETATM   11  P           1     -24.907  -7.587 -21.044  0.00  0.00     0.406 P 
HETATM   12  O           1     -23.851  -7.951 -22.016  0.00  0.00    -0.624 OA
HETATM   13  O           1     -26.091  -8.449 -21.257  0.00  0.00    -0.624 OA
BRANCH  11  14
HETATM   14  O           1     -25.322  -6.041 -21.253  0.00  0.00    -0.300 OA
HETATM   15  H           1     -24.509  -5.584 -21.381  0.00  0.00     0.223 HD
ENDBRANCH  11  14
ENDBRANCH  10  11
ENDBRANCH   9  10
ENDBRANCH   5   9
ENDBRANCH   2   5
BRANCH   1  16
HETATM   16  C           1     -29.340  -5.861 -17.912  0.00  0.00     0.278 C 
BRANCH  16  17
HETATM   17  C           1     -29.654  -4.789 -16.878  0.00  0.00     0.021 C 
HETATM   18  C           1     -29.075  -3.456 -17.336  0.00  0.00     0.012 C 
BRANCH  17  19
HETATM   19  C           1     -31.163  -4.658 -16.723  0.00  0.00     0.002 C 
HETATM   20  C           1     -31.667  -3.515 -17.593  0.00  0.00     0.005 C 
ENDBRANCH  17  19
ENDBRANCH  16  17
BRANCH  16  21
HETATM   21  N           1     -30.494  -6.814 -18.010  0.00  0.00    -0.066 N 
HETATM   22  H           1     -31.382  -6.310 -17.786  0.00  0.00     0.275 HD
HETATM   23  H           1     -30.358  -7.597 -17.332  0.00  0.00     0.275 HD
HETATM   24  H           1     -30.547  -7.199 -18.980  0.00  0.00     0.275 HD
ENDBRANCH  16  21
ENDBRANCH   1  16
TORSDOF 10
ENDMDL
MODEL 6
REMARK VINA RESULT:      -5.5     18.924     20.749
REMARK  10 active torsions:
REMARK  status: ('A' for Active; 'I' for Inactive)
REMARK    1  A    between atoms: C_4  and  C_7 
REMARK    2  A    between atoms: C_4  and  C_14 
REMARK       I    between atoms: C_6  and  N_13 
REMARK    3  A    between atoms: C_6  and  C_7 
REMARK    4  A    between atoms: C_7  and  N_20 
REMARK    5  A    between atoms: C_9  and  C_16 
REMARK    6  A    between atoms: O_12  and  P_17 
REMARK    7  A    between atoms: N_13  and  C_16 
REMARK    8  A    between atoms: C_16  and  C_18 
REMARK    9  A    between atoms: P_17  and  O_19 
REMARK   10  A    between atoms: C_18  and  O_19 
ROOT
HETATM    1  C           1     -11.917   4.396 -21.947  0.00  0.00     0.249 C 
HETATM    2  N           1     -11.413   5.537 -21.384  0.00  0.00    -0.343 N 
HETATM    3  H           1     -11.909   6.413 -21.487  0.00  0.00     0.163 HD
HETATM    4  O           1     -11.325   3.350 -21.825  0.00  0.00    -0.271 OA
ENDROOT
BRANCH   2   5
HETATM    5  C           1     -10.168   5.491 -20.642  0.00  0.00     0.210 C 
BRANCH   5   6
HETATM    6  C           1     -10.466   5.466 -19.162  0.00  0.00     0.198 C 
HETATM    7  O           1     -11.532   4.962 -18.747  0.00  0.00    -0.646 OA
HETATM    8  O           1      -9.646   5.950 -18.352  0.00  0.00    -0.646 OA
ENDBRANCH   5   6
BRANCH   5   9
HETATM    9  C           1      -9.335   6.722 -20.972  0.00  0.00     0.217 C 
BRANCH   9  10
HETATM   10  O           1     -10.179   7.762 -21.386  0.00  0.00    -0.287 OA
BRANCH  10  11
HETATM   11  P           1     -10.015   9.163 -20.601  0.00  0.00     0.406 P 
HETATM   12  O           1      -8.735   9.798 -20.989  0.00  0.00    -0.624 OA
HETATM   13  O           1     -11.138  10.061 -20.953  0.00  0.00    -0.624 OA
BRANCH  11  14
HETATM   14  O           1     -10.022   8.893 -19.009  0.00  0.00    -0.300 OA
HETATM   15  H           1     -10.932   8.826 -18.776  0.00  0.00     0.223 HD
ENDBRANCH  11  14
ENDBRANCH  10  11
ENDBRANCH   9  10
ENDBRANCH   5   9
ENDBRANCH   2   5
BRANCH   1  16
HETATM   16  C           1     -13.213   4.444 -22.720  0.00  0.00     0.278 C 
BRANCH  16  17
HETATM   17  C           1     -14.227   5.288 -21.961  0.00  0.00     0.021 C 
HETATM   18  C           1     -15.577   5.213 -22.662  0.00  0.00     0.012 C 
BRANCH  17  19
HETATM   19  C           1     -14.364   4.760 -20.539  0.00  0.00     0.002 C 
HETATM   20  C           1     -15.653   5.288 -19.923  0.00  0.00     0.005 C 
ENDBRANCH  17  19
ENDBRANCH  16  17
BRANCH  16  21
HETATM   21  N           1     -13.745   3.052 -22.886  0.00  0.00    -0.066 N 
HETATM   22  H           1     -13.432   2.460 -22.084  0.00  0.00     0.275 HD
HETATM   23  H           1     -13.386   2.646 -23.779  0.00  0.00     0.275 HD
HETATM   24  H           1     -14.790   3.079 -22.911  0.00  0.00     0.275 HD
ENDBRANCH  16  21
ENDBRANCH   1  16
TORSDOF 10
ENDMDL
MODEL 7
REMARK VINA RESULT:      -5.5     15.267     17.284
REMARK  10 active torsions:
REMARK  status: ('A' for Active; 'I' for Inactive)
REMARK    1  A    between atoms: C_4  and  C_7 
REMARK    2  A    between atoms: C_4  and  C_14 
REMARK       I    between atoms: C_6  and  N_13 
REMARK    3  A    between atoms: C_6  and  C_7 
REMARK    4  A    between atoms: C_7  and  N_20 
REMARK    5  A    between atoms: C_9  and  C_16 
REMARK    6  A    between atoms: O_12  and  P_17 
REMARK    7  A    between atoms: N_13  and  C_16 
REMARK    8  A    between atoms: C_16  and  C_18 
REMARK    9  A    between atoms: P_17  and  O_19 
REMARK   10  A    between atoms: C_18  and  O_19 
ROOT
HETATM    1  C           1     -21.204  -8.809  -2.308  0.00  0.00     0.249 C 
HETATM    2  N           1     -20.273  -8.418  -3.232  0.00  0.00    -0.343 N 
HETATM    3  H           1     -19.644  -7.653  -3.024  0.00  0.00     0.163 HD
HETATM    4  O           1     -21.956  -9.721  -2.556  0.00  0.00    -0.271 OA
ENDROOT
BRANCH   2   5
HETATM    5  C           1     -20.191  -9.097  -4.510  0.00  0.00     0.210 C 
BRANCH   5   6
HETATM    6  C           1     -18.744  -9.361  -4.847  0.00  0.00     0.198 C 
HETATM    7  O           1     -17.869  -9.274  -3.959  0.00  0.00    -0.646 OA
HETATM    8  O           1     -18.419  -9.666  -6.016  0.00  0.00    -0.646 OA
ENDBRANCH   5   6
BRANCH   5   9
HETATM    9  C           1     -20.813  -8.223  -5.591  0.00  0.00     0.217 C 
BRANCH   9  10
HETATM   10  O           1     -20.126  -7.003  -5.660  0.00  0.00    -0.287 OA
BRANCH  10  11
HETATM   11  P           1     -21.000  -5.679  -5.362  0.00  0.00     0.406 P 
HETATM   12  O           1     -20.101  -4.507  -5.264  0.00  0.00    -0.624 OA
HETATM   13  O           1     -21.967  -5.468  -6.463  0.00  0.00    -0.624 OA
BRANCH  11  14
HETATM   14  O           1     -21.801  -5.863  -3.972  0.00  0.00    -0.300 OA
HETATM   15  H           1     -22.400  -5.137  -3.937  0.00  0.00     0.223 HD
ENDBRANCH  11  14
ENDBRANCH  10  11
ENDBRANCH   9  10
ENDBRANCH   5   9
ENDBRANCH   2   5
BRANCH   1  16
HETATM   16  C           1     -21.290  -8.101  -0.977  0.00  0.00     0.278 C 
BRANCH  16  17
HETATM   17  C           1     -21.749  -9.083   0.092  0.00  0.00     0.021 C 
HETATM   18  C           1     -21.051  -8.764   1.409  0.00  0.00     0.012 C 
BRANCH  17  19
HETATM   19  C           1     -23.256  -8.966   0.276  0.00  0.00     0.002 C 
HETATM   20  C           1     -23.901 -10.330   0.074  0.00  0.00     0.005 C 
ENDBRANCH  17  19
ENDBRANCH  16  17
BRANCH  16  21
HETATM   21  N           1     -22.273  -6.973  -1.075  0.00  0.00    -0.066 N 
HETATM   22  H           1     -21.786  -6.068  -0.886  0.00  0.00     0.275 HD
HETATM   23  H           1     -23.034  -7.112  -0.372  0.00  0.00     0.275 HD
HETATM   24  H           1     -22.686  -6.953  -2.035  0.00  0.00     0.275 HD
ENDBRANCH  16  21
ENDBRANCH   1  16
TORSDOF 10
ENDMDL
MODEL 8
REMARK VINA RESULT:      -5.4     13.335     15.166
REMARK  10 active torsions:
REMARK  status: ('A' for Active; 'I' for Inactive)
REMARK    1  A    between atoms: C_4  and  C_7 
REMARK    2  A    between atoms: C_4  and  C_14 
REMARK       I    between atoms: C_6  and  N_13 
REMARK    3  A    between atoms: C_6  and  C_7 
REMARK    4  A    between atoms: C_7  and  N_20 
REMARK    5  A    between atoms: C_9  and  C_16 
REMARK    6  A    between atoms: O_12  and  P_17 
REMARK    7  A    between atoms: N_13  and  C_16 
REMARK    8  A    between atoms: C_16  and  C_18 
REMARK    9  A    between atoms: P_17  and  O_19 
REMARK   10  A    between atoms: C_18  and  O_19 
ROOT
HETATM    1  C           1     -21.698  -5.518  -5.859  0.00  0.00     0.249 C 
HETATM    2  N           1     -20.984  -6.368  -5.057  0.00  0.00    -0.343 N 
HETATM    3  H           1     -19.973  -6.346  -5.072  0.00  0.00     0.163 HD
HETATM    4  O           1     -22.906  -5.544  -5.844  0.00  0.00    -0.271 OA
ENDROOT
BRANCH   2   5
HETATM    5  C           1     -21.678  -7.300  -4.190  0.00  0.00     0.210 C 
BRANCH   5   6
HETATM    6  C           1     -21.614  -6.803  -2.766  0.00  0.00     0.198 C 
HETATM    7  O           1     -22.392  -5.903  -2.382  0.00  0.00    -0.646 OA
HETATM    8  O           1     -20.782  -7.292  -1.970  0.00  0.00    -0.646 OA
ENDBRANCH   5   6
BRANCH   5   9
HETATM    9  C           1     -21.015  -8.668  -4.281  0.00  0.00     0.217 C 
BRANCH   9  10
HETATM   10  O           1     -21.984  -9.669  -4.126  0.00  0.00    -0.287 OA
BRANCH  10  11
HETATM   11  P           1     -21.652 -10.815  -3.039  0.00  0.00     0.406 P 
HETATM   12  O           1     -22.768 -11.787  -2.991  0.00  0.00    -0.624 OA
HETATM   13  O           1     -20.405 -11.514  -3.423  0.00  0.00    -0.624 OA
BRANCH  11  14
HETATM   14  O           1     -21.463 -10.139  -1.585  0.00  0.00    -0.300 OA
HETATM   15  H           1     -20.826  -9.457  -1.713  0.00  0.00     0.223 HD
ENDBRANCH  11  14
ENDBRANCH  10  11
ENDBRANCH   9  10
ENDBRANCH   5   9
ENDBRANCH   2   5
BRANCH   1  16
HETATM   16  C           1     -20.976  -4.549  -6.763  0.00  0.00     0.278 C 
BRANCH  16  17
HETATM   17  C           1     -21.354  -4.826  -8.212  0.00  0.00     0.021 C 
HETATM   18  C           1     -22.363  -3.785  -8.682  0.00  0.00     0.012 C 
BRANCH  17  19
HETATM   19  C           1     -20.109  -4.754  -9.085  0.00  0.00     0.002 C 
HETATM   20  C           1     -20.499  -4.331 -10.494  0.00  0.00     0.005 C 
ENDBRANCH  17  19
ENDBRANCH  16  17
BRANCH  16  21
HETATM   21  N           1     -19.496  -4.715  -6.593  0.00  0.00    -0.066 N 
HETATM   22  H           1     -19.072  -5.024  -7.497  0.00  0.00     0.275 HD
HETATM   23  H           1     -19.308  -5.434  -5.858  0.00  0.00     0.275 HD
HETATM   24  H           1     -19.073  -3.803  -6.303  0.00  0.00     0.275 HD
ENDBRANCH  16  21
ENDBRANCH   1  16
TORSDOF 10
ENDMDL
MODEL 9
REMARK VINA RESULT:      -5.4     13.189     14.900
REMARK  10 active torsions:
REMARK  status: ('A' for Active; 'I' for Inactive)
REMARK    1  A    between atoms: C_4  and  C_7 
REMARK    2  A    between atoms: C_4  and  C_14 
REMARK       I    between atoms: C_6  and  N_13 
REMARK    3  A    between atoms: C_6  and  C_7 
REMARK    4  A    between atoms: C_7  and  N_20 
REMARK    5  A    between atoms: C_9  and  C_16 
REMARK    6  A    between atoms: O_12  and  P_17 
REMARK    7  A    between atoms: N_13  and  C_16 
REMARK    8  A    between atoms: C_16  and  C_18 
REMARK    9  A    between atoms: P_17  and  O_19 
REMARK   10  A    between atoms: C_18  and  O_19 
ROOT
HETATM    1  C           1     -20.411  -4.974  -6.098  0.00  0.00     0.249 C 
HETATM    2  N           1     -20.692  -6.314  -6.128  0.00  0.00    -0.343 N 
HETATM    3  H           1     -20.988  -6.749  -6.992  0.00  0.00     0.163 HD
HETATM    4  O           1     -20.060  -4.453  -5.067  0.00  0.00    -0.271 OA
ENDROOT
BRANCH   2   5
HETATM    5  C           1     -20.569  -7.107  -4.920  0.00  0.00     0.210 C 
BRANCH   5   6
HETATM    6  C           1     -20.072  -8.487  -5.275  0.00  0.00     0.198 C 
HETATM    7  O           1     -19.037  -8.621  -5.962  0.00  0.00    -0.646 OA
HETATM    8  O           1     -20.695  -9.497  -4.880  0.00  0.00    -0.646 OA
ENDBRANCH   5   6
BRANCH   5   9
HETATM    9  C           1     -21.929  -7.215  -4.243  0.00  0.00     0.217 C 
BRANCH   9  10
HETATM   10  O           1     -21.856  -6.666  -2.955  0.00  0.00    -0.287 OA
BRANCH  10  11
HETATM   11  P           1     -21.571  -7.708  -1.756  0.00  0.00     0.406 P 
HETATM   12  O           1     -20.121  -7.729  -1.456  0.00  0.00    -0.624 OA
HETATM   13  O           1     -22.318  -7.288  -0.549  0.00  0.00    -0.624 OA
BRANCH  11  14
HETATM   14  O           1     -22.051  -9.185  -2.199  0.00  0.00    -0.300 OA
HETATM   15  H           1     -21.330  -9.539  -2.690  0.00  0.00     0.223 HD
ENDBRANCH  11  14
ENDBRANCH  10  11
ENDBRANCH   9  10
ENDBRANCH   5   9
ENDBRANCH   2   5
BRANCH   1  16
HETATM   16  C           1     -20.540  -4.148  -7.355  0.00  0.00     0.278 C 
BRANCH  16  17
HETATM   17  C           1     -21.579  -4.777  -8.273  0.00  0.00     0.021 C 
HETATM   18  C           1     -22.956  -4.213  -7.945  0.00  0.00     0.012 C 
BRANCH  17  19
HETATM   19  C           1     -21.234  -4.461  -9.722  0.00  0.00     0.002 C 
HETATM   20  C           1     -22.400  -3.731 -10.375  0.00  0.00     0.005 C 
ENDBRANCH  17  19
ENDBRANCH  16  17
BRANCH  16  21
HETATM   21  N           1     -19.216  -4.099  -8.057  0.00  0.00    -0.066 N 
HETATM   22  H           1     -19.363  -4.206  -9.086  0.00  0.00     0.275 HD
HETATM   23  H           1     -18.609  -4.874  -7.710  0.00  0.00     0.275 HD
HETATM   24  H           1     -18.753  -3.181  -7.864  0.00  0.00     0.275 HD
ENDBRANCH  16  21
ENDBRANCH   1  16
TORSDOF 10
ENDMDL
