MODEL 1
REMARK VINA RESULT:      -6.4      0.000      0.000
REMARK  9 active torsions:
REMARK  status: ('A' for Active; 'I' for Inactive)
REMARK    1  A    between atoms: C_1  and  C_8 
REMARK    2  A    between atoms: C_1  and  C_2 
REMARK    3  A    between atoms: C_2  and  N_12 
REMARK    4  A    between atoms: C_4  and  C_5 
REMARK    5  A    between atoms: C_5  and  C_11 
REMARK    6  A    between atoms: C_5  and  N_21 
REMARK    7  A    between atoms: C_8  and  C_9 
REMARK    8  A    between atoms: C_9  and  C_10 
REMARK    9  A    between atoms: C_9  and  N_23 
REMARK       I    between atoms: C_10  and  N_21 
ROOT
HETATM    1  C           1     -21.239  -5.811  -6.914  0.00  0.00     0.274 C 
ENDROOT
BRANCH   1   2
HETATM    2  C           1     -21.083  -5.426  -5.449  0.00  0.00     0.044 C 
BRANCH   2   3
HETATM    3  C           1     -21.880  -6.392  -4.582  0.00  0.00     0.030 C 
BRANCH   3   4
HETATM    4  C           1     -21.339  -6.363  -3.159  0.00  0.00     0.248 C 
BRANCH   4   5
HETATM    5  N           1     -22.418  -5.907  -2.222  0.00  0.00    -0.079 N 
HETATM    6  H           1     -22.214  -6.258  -1.258  0.00  0.00     0.274 HD
HETATM    7  H           1     -22.452  -4.863  -2.212  0.00  0.00     0.274 HD
HETATM    8  H           1     -23.338  -6.284  -2.543  0.00  0.00     0.274 HD
ENDBRANCH   4   5
ENDBRANCH   3   4
ENDBRANCH   2   3
ENDBRANCH   1   2
BRANCH   1   9
HETATM    9  C           1     -21.716  -4.614  -7.700  0.00  0.00     0.249 C 
HETATM   10  N           1     -22.218  -4.781  -8.963  0.00  0.00    -0.344 N 
HETATM   11  H           1     -22.269  -5.706  -9.369  0.00  0.00     0.163 HD
HETATM   12  O           1     -21.656  -3.509  -7.215  0.00  0.00    -0.271 OA
BRANCH  10  13
HETATM   13  C           1     -22.677  -3.632  -9.718  0.00  0.00     0.189 C 
BRANCH  13  14
HETATM   14  C           1     -21.869  -3.514 -11.003  0.00  0.00     0.010 C 
HETATM   15  C           1     -20.383  -3.536 -10.672  0.00  0.00     0.012 C 
HETATM   16  C           1     -22.203  -4.683 -11.921  0.00  0.00     0.012 C 
ENDBRANCH  13  14
BRANCH  13  17
HETATM   17  C           1     -24.138  -3.804 -10.056  0.00  0.00     0.197 C 
HETATM   18  O           1     -24.753  -2.894 -10.652  0.00  0.00    -0.646 OA
HETATM   19  O           1     -24.733  -4.857  -9.740  0.00  0.00    -0.646 OA
ENDBRANCH  13  17
ENDBRANCH  10  13
ENDBRANCH   1   9
BRANCH   1  20
HETATM   20  N           1     -19.915  -6.266  -7.454  0.00  0.00    -0.067 N 
HETATM   21  H           1     -19.716  -5.772  -8.353  0.00  0.00     0.275 HD
HETATM   22  H           1     -19.163  -6.047  -6.762  0.00  0.00     0.275 HD
HETATM   23  H           1     -19.944  -7.297  -7.622  0.00  0.00     0.257 HD
ENDBRANCH   1  20
TORSDOF 9
ENDMDL
MODEL 2
REMARK VINA RESULT:      -6.1     10.389     12.845
REMARK  9 active torsions:
REMARK  status: ('A' for Active; 'I' for Inactive)
REMARK    1  A    between atoms: C_1  and  C_8 
REMARK    2  A    between atoms: C_1  and  C_2 
REMARK    3  A    between atoms: C_2  and  N_12 
REMARK    4  A    between atoms: C_4  and  C_5 
REMARK    5  A    between atoms: C_5  and  C_11 
REMARK    6  A    between atoms: C_5  and  N_21 
REMARK    7  A    between atoms: C_8  and  C_9 
REMARK    8  A    between atoms: C_9  and  C_10 
REMARK    9  A    between atoms: C_9  and  N_23 
REMARK       I    between atoms: C_10  and  N_21 
ROOT
HETATM    1  C           1     -25.685  -7.547 -20.185  0.00  0.00     0.274 C 
ENDROOT
BRANCH   1   2
HETATM    2  C           1     -25.064  -6.632 -21.231  0.00  0.00     0.044 C 
BRANCH   2   3
HETATM    3  C           1     -24.195  -7.454 -22.174  0.00  0.00     0.030 C 
BRANCH   3   4
HETATM    4  C           1     -23.244  -8.322 -21.362  0.00  0.00     0.248 C 
BRANCH   4   5
HETATM    5  N           1     -22.594  -9.330 -22.262  0.00  0.00    -0.079 N 
HETATM    6  H           1     -21.554  -9.229 -22.207  0.00  0.00     0.274 HD
HETATM    7  H           1     -22.865 -10.293 -21.960  0.00  0.00     0.274 HD
HETATM    8  H           1     -22.907  -9.171 -23.246  0.00  0.00     0.274 HD
ENDBRANCH   4   5
ENDBRANCH   3   4
ENDBRANCH   2   3
ENDBRANCH   1   2
BRANCH   1   9
HETATM    9  C           1     -25.738  -6.831 -18.858  0.00  0.00     0.249 C 
HETATM   10  N           1     -26.938  -6.653 -18.223  0.00  0.00    -0.344 N 
HETATM   11  H           1     -27.790  -7.001 -18.644  0.00  0.00     0.163 HD
HETATM   12  O           1     -24.721  -6.414 -18.355  0.00  0.00    -0.271 OA
BRANCH  10  13
HETATM   13  C           1     -26.989  -5.965 -16.948  0.00  0.00     0.189 C 
BRANCH  13  14
HETATM   14  C           1     -28.341  -5.283 -16.793  0.00  0.00     0.010 C 
HETATM   15  C           1     -28.152  -3.772 -16.808  0.00  0.00     0.012 C 
HETATM   16  C           1     -29.251  -5.693 -17.944  0.00  0.00     0.012 C 
ENDBRANCH  13  14
BRANCH  13  17
HETATM   17  C           1     -26.797  -6.962 -15.831  0.00  0.00     0.197 C 
HETATM   18  O           1     -25.644  -7.309 -15.494  0.00  0.00    -0.646 OA
HETATM   19  O           1     -27.790  -7.441 -15.244  0.00  0.00    -0.646 OA
ENDBRANCH  13  17
ENDBRANCH  10  13
ENDBRANCH   1   9
BRANCH   1  20
HETATM   20  N           1     -27.077  -7.916 -20.608  0.00  0.00    -0.067 N 
HETATM   21  H           1     -27.702  -7.084 -20.518  0.00  0.00     0.275 HD
HETATM   22  H           1     -27.064  -8.236 -21.603  0.00  0.00     0.275 HD
HETATM   23  H           1     -27.433  -8.687 -19.999  0.00  0.00     0.257 HD
ENDBRANCH   1  20
TORSDOF 9
ENDMDL
MODEL 3
REMARK VINA RESULT:      -6.0     11.573     13.376
REMARK  9 active torsions:
REMARK  status: ('A' for Active; 'I' for Inactive)
REMARK    1  A    between atoms: C_1  and  C_8 
REMARK    2  A    between atoms: C_1  and  C_2 
REMARK    3  A    between atoms: C_2  and  N_12 
REMARK    4  A    between atoms: C_4  and  C_5 
REMARK    5  A    between atoms: C_5  and  C_11 
REMARK    6  A    between atoms: C_5  and  N_21 
REMARK    7  A    between atoms: C_8  and  C_9 
REMARK    8  A    between atoms: C_9  and  C_10 
REMARK    9  A    between atoms: C_9  and  N_23 
REMARK       I    between atoms: C_10  and  N_21 
ROOT
HETATM    1  C           1     -25.053  -6.914 -19.937  0.00  0.00     0.274 C 
ENDROOT
BRANCH   1   2
HETATM    2  C           1     -25.051  -7.987 -21.017  0.00  0.00     0.044 C 
BRANCH   2   3
HETATM    3  C           1     -24.213  -7.518 -22.199  0.00  0.00     0.030 C 
BRANCH   3   4
HETATM    4  C           1     -23.151  -8.563 -22.516  0.00  0.00     0.248 C 
BRANCH   4   5
HETATM    5  N           1     -22.534  -9.052 -21.239  0.00  0.00    -0.079 N 
HETATM    6  H           1     -23.059  -8.659 -20.424  0.00  0.00     0.274 HD
HETATM    7  H           1     -22.577 -10.095 -21.209  0.00  0.00     0.274 HD
HETATM    8  H           1     -21.537  -8.742 -21.193  0.00  0.00     0.274 HD
ENDBRANCH   4   5
ENDBRANCH   3   4
ENDBRANCH   2   3
ENDBRANCH   1   2
BRANCH   1   9
HETATM    9  C           1     -26.456  -6.390 -19.751  0.00  0.00     0.249 C 
HETATM   10  N           1     -27.032  -6.404 -18.509  0.00  0.00    -0.344 N 
HETATM   11  H           1     -26.517  -6.764 -17.716  0.00  0.00     0.163 HD
HETATM   12  O           1     -27.071  -5.959 -20.697  0.00  0.00    -0.271 OA
BRANCH  10  13
HETATM   13  C           1     -28.380  -5.901 -18.329  0.00  0.00     0.189 C 
BRANCH  13  14
HETATM   14  C           1     -29.245  -6.982 -17.697  0.00  0.00     0.010 C 
HETATM   15  C           1     -30.470  -6.342 -17.057  0.00  0.00     0.012 C 
HETATM   16  C           1     -29.688  -7.969 -18.770  0.00  0.00     0.012 C 
ENDBRANCH  13  14
BRANCH  13  17
HETATM   17  C           1     -28.348  -4.690 -17.428  0.00  0.00     0.197 C 
HETATM   18  O           1     -27.651  -4.702 -16.391  0.00  0.00    -0.646 OA
HETATM   19  O           1     -29.017  -3.676 -17.720  0.00  0.00    -0.646 OA
ENDBRANCH  13  17
ENDBRANCH  10  13
ENDBRANCH   1   9
BRANCH   1  20
HETATM   20  N           1     -24.564  -7.503 -18.647  0.00  0.00    -0.067 N 
HETATM   21  H           1     -24.157  -6.747 -18.051  0.00  0.00     0.275 HD
HETATM   22  H           1     -25.363  -7.950 -18.144  0.00  0.00     0.275 HD
HETATM   23  H           1     -23.832  -8.221 -18.847  0.00  0.00     0.257 HD
ENDBRANCH   1  20
TORSDOF 9
ENDMDL
MODEL 4
REMARK VINA RESULT:      -5.9     11.538     13.236
REMARK  9 active torsions:
REMARK  status: ('A' for Active; 'I' for Inactive)
REMARK    1  A    between atoms: C_1  and  C_8 
REMARK    2  A    between atoms: C_1  and  C_2 
REMARK    3  A    between atoms: C_2  and  N_12 
REMARK    4  A    between atoms: C_4  and  C_5 
REMARK    5  A    between atoms: C_5  and  C_11 
REMARK    6  A    between atoms: C_5  and  N_21 
REMARK    7  A    between atoms: C_8  and  C_9 
REMARK    8  A    between atoms: C_9  and  C_10 
REMARK    9  A    between atoms: C_9  and  N_23 
REMARK       I    between atoms: C_10  and  N_21 
ROOT
HETATM    1  C           1     -25.266  -6.478 -19.228  0.00  0.00     0.274 C 
ENDROOT
BRANCH   1   2
HETATM    2  C           1     -25.845  -6.816 -20.595  0.00  0.00     0.044 C 
BRANCH   2   3
HETATM    3  C           1     -25.179  -8.075 -21.133  0.00  0.00     0.030 C 
BRANCH   3   4
HETATM    4  C           1     -24.240  -7.706 -22.273  0.00  0.00     0.248 C 
BRANCH   4   5
HETATM    5  N           1     -23.121  -8.703 -22.343  0.00  0.00    -0.079 N 
HETATM    6  H           1     -22.260  -8.291 -21.916  0.00  0.00     0.274 HD
HETATM    7  H           1     -23.390  -9.565 -21.818  0.00  0.00     0.274 HD
HETATM    8  H           1     -22.934  -8.945 -23.342  0.00  0.00     0.274 HD
ENDBRANCH   4   5
ENDBRANCH   3   4
ENDBRANCH   2   3
ENDBRANCH   1   2
BRANCH   1   9
HETATM    9  C           1     -26.380  -6.413 -18.212  0.00  0.00     0.249 C 
HETATM   10  N           1     -27.685  -6.503 -18.619  0.00  0.00    -0.344 N 
HETATM   11  H           1     -27.901  -6.612 -19.601  0.00  0.00     0.163 HD
HETATM   12  O           1     -26.121  -6.283 -17.039  0.00  0.00    -0.271 OA
BRANCH  10  13
HETATM   13  C           1     -28.755  -6.441 -17.642  0.00  0.00     0.189 C 
BRANCH  13  14
HETATM   14  C           1     -29.690  -5.290 -17.987  0.00  0.00     0.010 C 
HETATM   15  C           1     -30.915  -5.344 -17.085  0.00  0.00     0.012 C 
HETATM   16  C           1     -28.963  -3.967 -17.779  0.00  0.00     0.012 C 
ENDBRANCH  13  14
BRANCH  13  17
HETATM   17  C           1     -29.525  -7.739 -17.659  0.00  0.00     0.197 C 
HETATM   18  O           1     -29.508  -8.489 -16.660  0.00  0.00    -0.646 OA
HETATM   19  O           1     -30.181  -8.063 -18.672  0.00  0.00    -0.646 OA
ENDBRANCH  13  17
ENDBRANCH  10  13
ENDBRANCH   1   9
BRANCH   1  20
HETATM   20  N           1     -24.284  -7.538 -18.825  0.00  0.00    -0.067 N 
HETATM   21  H           1     -24.567  -7.945 -17.905  0.00  0.00     0.275 HD
HETATM   22  H           1     -24.270  -8.292 -19.549  0.00  0.00     0.275 HD
HETATM   23  H           1     -23.331  -7.117 -18.742  0.00  0.00     0.257 HD
ENDBRANCH   1  20
TORSDOF 9
ENDMDL
MODEL 5
REMARK VINA RESULT:      -5.8     12.368     14.083
REMARK  9 active torsions:
REMARK  status: ('A' for Active; 'I' for Inactive)
REMARK    1  A    between atoms: C_1  and  C_8 
REMARK    2  A    between atoms: C_1  and  C_2 
REMARK    3  A    between atoms: C_2  and  N_12 
REMARK    4  A    between atoms: C_4  and  C_5 
REMARK    5  A    between atoms: C_5  and  C_11 
REMARK    6  A    between atoms: C_5  and  N_21 
REMARK    7  A    between atoms: C_8  and  C_9 
REMARK    8  A    between atoms: C_9  and  C_10 
REMARK    9  A    between atoms: C_9  and  N_23 
REMARK       I    between atoms: C_10  and  N_21 
ROOT
HETATM    1  C           1     -33.253  -4.386 -16.765  0.00  0.00     0.274 C 
ENDROOT
BRANCH   1   2
HETATM    2  C           1     -31.764  -4.615 -16.541  0.00  0.00     0.044 C 
BRANCH   2   3
HETATM    3  C           1     -30.965  -3.749 -17.506  0.00  0.00     0.030 C 
BRANCH   3   4
HETATM    4  C           1     -29.643  -4.434 -17.827  0.00  0.00     0.248 C 
BRANCH   4   5
HETATM    5  N           1     -29.890  -5.883 -18.126  0.00  0.00    -0.079 N 
HETATM    6  H           1     -29.904  -6.028 -19.161  0.00  0.00     0.274 HD
HETATM    7  H           1     -29.128  -6.460 -17.704  0.00  0.00     0.274 HD
HETATM    8  H           1     -30.810  -6.169 -17.722  0.00  0.00     0.274 HD
ENDBRANCH   4   5
ENDBRANCH   3   4
ENDBRANCH   2   3
ENDBRANCH   1   2
BRANCH   1   9
HETATM    9  C           1     -33.987  -4.526 -15.454  0.00  0.00     0.249 C 
HETATM   10  N           1     -33.463  -3.977 -14.314  0.00  0.00    -0.344 N 
HETATM   11  H           1     -32.584  -3.478 -14.351  0.00  0.00     0.163 HD
HETATM   12  O           1     -35.037  -5.122 -15.410  0.00  0.00    -0.271 OA
BRANCH  10  13
HETATM   13  C           1     -34.168  -4.111 -13.054  0.00  0.00     0.189 C 
BRANCH  13  14
HETATM   14  C           1     -33.168  -4.396 -11.941  0.00  0.00     0.010 C 
HETATM   15  C           1     -32.860  -3.106 -11.194  0.00  0.00     0.012 C 
HETATM   16  C           1     -33.762  -5.414 -10.976  0.00  0.00     0.012 C 
ENDBRANCH  13  14
BRANCH  13  17
HETATM   17  C           1     -34.905  -2.829 -12.753  0.00  0.00     0.197 C 
HETATM   18  O           1     -35.764  -2.801 -11.845  0.00  0.00    -0.646 OA
HETATM   19  O           1     -34.657  -1.796 -13.410  0.00  0.00    -0.646 OA
ENDBRANCH  13  17
ENDBRANCH  10  13
ENDBRANCH   1   9
BRANCH   1  20
HETATM   20  N           1     -33.469  -3.006 -17.313  0.00  0.00    -0.067 N 
HETATM   21  H           1     -33.558  -3.054 -18.353  0.00  0.00     0.275 HD
HETATM   22  H           1     -34.344  -2.604 -16.907  0.00  0.00     0.275 HD
HETATM   23  H           1     -32.656  -2.399 -17.060  0.00  0.00     0.257 HD
ENDBRANCH   1  20
TORSDOF 9
ENDMDL
MODEL 6
REMARK VINA RESULT:      -5.7      2.948      6.616
REMARK  9 active torsions:
REMARK  status: ('A' for Active; 'I' for Inactive)
REMARK    1  A    between atoms: C_1  and  C_8 
REMARK    2  A    between atoms: C_1  and  C_2 
REMARK    3  A    between atoms: C_2  and  N_12 
REMARK    4  A    between atoms: C_4  and  C_5 
REMARK    5  A    between atoms: C_5  and  C_11 
REMARK    6  A    between atoms: C_5  and  N_21 
REMARK    7  A    between atoms: C_8  and  C_9 
REMARK    8  A    between atoms: C_9  and  C_10 
REMARK    9  A    between atoms: C_9  and  N_23 
REMARK       I    between atoms: C_10  and  N_21 
ROOT
HETATM    1  C           1     -20.532  -5.010  -6.506  0.00  0.00     0.274 C 
ENDROOT
BRANCH   1   2
HETATM    2  C           1     -21.402  -3.915  -7.108  0.00  0.00     0.044 C 
BRANCH   2   3
HETATM    3  C           1     -21.474  -4.095  -8.618  0.00  0.00     0.030 C 
BRANCH   3   4
HETATM    4  C           1     -22.927  -4.261  -9.042  0.00  0.00     0.248 C 
BRANCH   4   5
HETATM    5  N           1     -23.816  -4.126  -7.842  0.00  0.00    -0.079 N 
HETATM    6  H           1     -23.234  -4.134  -6.973  0.00  0.00     0.274 HD
HETATM    7  H           1     -24.344  -3.226  -7.898  0.00  0.00     0.274 HD
HETATM    8  H           1     -24.489  -4.925  -7.817  0.00  0.00     0.274 HD
ENDBRANCH   4   5
ENDBRANCH   3   4
ENDBRANCH   2   3
ENDBRANCH   1   2
BRANCH   1   9
HETATM    9  C           1     -21.364  -5.862  -5.579  0.00  0.00     0.249 C 
HETATM   10  N           1     -20.754  -6.729  -4.713  0.00  0.00    -0.344 N 
HETATM   11  H           1     -19.745  -6.798  -4.694  0.00  0.00     0.163 HD
HETATM   12  O           1     -22.570  -5.779  -5.602  0.00  0.00    -0.271 OA
BRANCH  10  13
HETATM   13  C           1     -21.554  -7.548  -3.822  0.00  0.00     0.189 C 
BRANCH  13  14
HETATM   14  C           1     -20.922  -8.927  -3.698  0.00  0.00     0.010 C 
HETATM   15  C           1     -21.972  -9.994  -3.980  0.00  0.00     0.012 C 
HETATM   16  C           1     -19.783  -9.056  -4.702  0.00  0.00     0.012 C 
ENDBRANCH  13  14
BRANCH  13  17
HETATM   17  C           1     -21.615  -6.897  -2.462  0.00  0.00     0.197 C 
HETATM   18  O           1     -20.915  -7.339  -1.526  0.00  0.00    -0.646 OA
HETATM   19  O           1     -22.365  -5.916  -2.272  0.00  0.00    -0.646 OA
ENDBRANCH  13  17
ENDBRANCH  10  13
ENDBRANCH   1   9
BRANCH   1  20
HETATM   20  N           1     -19.974  -5.866  -7.604  0.00  0.00    -0.067 N 
HETATM   21  H           1     -20.695  -6.559  -7.907  0.00  0.00     0.275 HD
HETATM   22  H           1     -19.709  -5.262  -8.415  0.00  0.00     0.275 HD
HETATM   23  H           1     -19.129  -6.372  -7.256  0.00  0.00     0.257 HD
ENDBRANCH   1  20
TORSDOF 9
ENDMDL
MODEL 7
REMARK VINA RESULT:      -5.6      1.646      2.130
REMARK  9 active torsions:
REMARK  status: ('A' for Active; 'I' for Inactive)
REMARK    1  A    between atoms: C_1  and  C_8 
REMARK    2  A    between atoms: C_1  and  C_2 
REMARK    3  A    between atoms: C_2  and  N_12 
REMARK    4  A    between atoms: C_4  and  C_5 
REMARK    5  A    between atoms: C_5  and  C_11 
REMARK    6  A    between atoms: C_5  and  N_21 
REMARK    7  A    between atoms: C_8  and  C_9 
REMARK    8  A    between atoms: C_9  and  C_10 
REMARK    9  A    between atoms: C_9  and  N_23 
REMARK       I    between atoms: C_10  and  N_21 
ROOT
HETATM    1  C           1     -21.609  -5.454  -5.973  0.00  0.00     0.274 C 
ENDROOT
BRANCH   1   2
HETATM    2  C           1     -20.913  -6.697  -6.510  0.00  0.00     0.044 C 
BRANCH   2   3
HETATM    3  C           1     -20.082  -7.333  -5.403  0.00  0.00     0.030 C 
BRANCH   3   4
HETATM    4  C           1     -20.830  -8.530  -4.831  0.00  0.00     0.248 C 
BRANCH   4   5
HETATM    5  N           1     -20.972  -9.583  -5.889  0.00  0.00    -0.079 N 
HETATM    6  H           1     -21.106 -10.517  -5.437  0.00  0.00     0.274 HD
HETATM    7  H           1     -21.800  -9.366  -6.488  0.00  0.00     0.274 HD
HETATM    8  H           1     -20.109  -9.603  -6.478  0.00  0.00     0.274 HD
ENDBRANCH   4   5
ENDBRANCH   3   4
ENDBRANCH   2   3
ENDBRANCH   1   2
BRANCH   1   9
HETATM    9  C           1     -21.783  -4.453  -7.089  0.00  0.00     0.249 C 
HETATM   10  N           1     -22.300  -4.852  -8.292  0.00  0.00    -0.344 N 
HETATM   11  H           1     -22.566  -5.817  -8.433  0.00  0.00     0.163 HD
HETATM   12  O           1     -21.465  -3.299  -6.921  0.00  0.00    -0.271 OA
BRANCH  10  13
HETATM   13  C           1     -22.467  -3.890  -9.364  0.00  0.00     0.189 C 
BRANCH  13  14
HETATM   14  C           1     -21.570  -4.273 -10.534  0.00  0.00     0.010 C 
HETATM   15  C           1     -21.436  -3.087 -11.480  0.00  0.00     0.012 C 
HETATM   16  C           1     -20.195  -4.666 -10.010  0.00  0.00     0.012 C 
ENDBRANCH  13  14
BRANCH  13  17
HETATM   17  C           1     -23.908  -3.885  -9.815  0.00  0.00     0.197 C 
HETATM   18  O           1     -24.621  -2.878  -9.616  0.00  0.00    -0.646 OA
HETATM   19  O           1     -24.387  -4.887 -10.387  0.00  0.00    -0.646 OA
ENDBRANCH  13  17
ENDBRANCH  10  13
ENDBRANCH   1   9
BRANCH   1  20
HETATM   20  N           1     -22.955  -5.831  -5.427  0.00  0.00    -0.067 N 
HETATM   21  H           1     -23.264  -6.734  -5.854  0.00  0.00     0.275 HD
HETATM   22  H           1     -22.892  -5.940  -4.390  0.00  0.00     0.275 HD
HETATM   23  H           1     -23.647  -5.083  -5.658  0.00  0.00     0.257 HD
ENDBRANCH   1  20
TORSDOF 9
ENDMDL
MODEL 8
REMARK VINA RESULT:      -5.4     11.041     12.925
REMARK  9 active torsions:
REMARK  status: ('A' for Active; 'I' for Inactive)
REMARK    1  A    between atoms: C_1  and  C_8 
REMARK    2  A    between atoms: C_1  and  C_2 
REMARK    3  A    between atoms: C_2  and  N_12 
REMARK    4  A    between atoms: C_4  and  C_5 
REMARK    5  A    between atoms: C_5  and  C_11 
REMARK    6  A    between atoms: C_5  and  N_21 
REMARK    7  A    between atoms: C_8  and  C_9 
REMARK    8  A    between atoms: C_9  and  C_10 
REMARK    9  A    between atoms: C_9  and  N_23 
REMARK       I    between atoms: C_10  and  N_21 
ROOT
HETATM    1  C           1     -26.432  -7.717 -20.303  0.00  0.00     0.274 C 
ENDROOT
BRANCH   1   2
HETATM    2  C           1     -25.229  -7.261 -21.117  0.00  0.00     0.044 C 
BRANCH   2   3
HETATM    3  C           1     -23.949  -7.740 -20.446  0.00  0.00     0.030 C 
BRANCH   3   4
HETATM    4  C           1     -23.871  -7.169 -19.036  0.00  0.00     0.248 C 
BRANCH   4   5
HETATM    5  N           1     -22.474  -7.323 -18.511  0.00  0.00    -0.079 N 
HETATM    6  H           1     -22.117  -6.393 -18.193  0.00  0.00     0.274 HD
HETATM    7  H           1     -22.476  -7.988 -17.705  0.00  0.00     0.274 HD
HETATM    8  H           1     -21.857  -7.693 -19.268  0.00  0.00     0.274 HD
ENDBRANCH   4   5
ENDBRANCH   3   4
ENDBRANCH   2   3
ENDBRANCH   1   2
BRANCH   1   9
HETATM    9  C           1     -27.211  -6.511 -19.838  0.00  0.00     0.249 C 
HETATM   10  N           1     -27.836  -6.528 -18.619  0.00  0.00    -0.344 N 
HETATM   11  H           1     -27.775  -7.349 -18.031  0.00  0.00     0.163 HD
HETATM   12  O           1     -27.283  -5.531 -20.540  0.00  0.00    -0.271 OA
BRANCH  10  13
HETATM   13  C           1     -28.584  -5.370 -18.172  0.00  0.00     0.189 C 
BRANCH  13  14
HETATM   14  C           1     -30.020  -5.779 -17.870  0.00  0.00     0.010 C 
HETATM   15  C           1     -30.071  -7.274 -17.585  0.00  0.00     0.012 C 
HETATM   16  C           1     -30.519  -5.011 -16.652  0.00  0.00     0.012 C 
ENDBRANCH  13  14
BRANCH  13  17
HETATM   17  C           1     -27.946  -4.811 -16.924  0.00  0.00     0.197 C 
HETATM   18  O           1     -27.358  -5.574 -16.128  0.00  0.00    -0.646 OA
HETATM   19  O           1     -28.005  -3.585 -16.687  0.00  0.00    -0.646 OA
ENDBRANCH  13  17
ENDBRANCH  10  13
ENDBRANCH   1   9
BRANCH   1  20
HETATM   20  N           1     -27.313  -8.583 -21.154  0.00  0.00    -0.067 N 
HETATM   21  H           1     -27.437  -8.139 -22.092  0.00  0.00     0.275 HD
HETATM   22  H           1     -26.871  -9.522 -21.269  0.00  0.00     0.275 HD
HETATM   23  H           1     -28.245  -8.691 -20.693  0.00  0.00     0.257 HD
ENDBRANCH   1  20
TORSDOF 9
ENDMDL
MODEL 9
REMARK VINA RESULT:      -5.3      2.186      5.908
REMARK  9 active torsions:
REMARK  status: ('A' for Active; 'I' for Inactive)
REMARK    1  A    between atoms: C_1  and  C_8 
REMARK    2  A    between atoms: C_1  and  C_2 
REMARK    3  A    between atoms: C_2  and  N_12 
REMARK    4  A    between atoms: C_4  and  C_5 
REMARK    5  A    between atoms: C_5  and  C_11 
REMARK    6  A    between atoms: C_5  and  N_21 
REMARK    7  A    between atoms: C_8  and  C_9 
REMARK    8  A    between atoms: C_9  and  C_10 
REMARK    9  A    between atoms: C_9  and  N_23 
REMARK       I    between atoms: C_10  and  N_21 
ROOT
HETATM    1  C           1     -23.325  -4.191  -9.103  0.00  0.00     0.274 C 
ENDROOT
BRANCH   1   2
HETATM    2  C           1     -22.741  -3.439 -10.290  0.00  0.00     0.044 C 
BRANCH   2   3
HETATM    3  C           1     -22.088  -4.427 -11.248  0.00  0.00     0.030 C 
BRANCH   3   4
HETATM    4  C           1     -20.599  -4.127 -11.351  0.00  0.00     0.248 C 
BRANCH   4   5
HETATM    5  N           1     -19.898  -4.649 -10.132  0.00  0.00    -0.079 N 
HETATM    6  H           1     -20.218  -5.626  -9.938  0.00  0.00     0.274 HD
HETATM    7  H           1     -18.866  -4.647 -10.296  0.00  0.00     0.274 HD
HETATM    8  H           1     -20.123  -4.040  -9.314  0.00  0.00     0.274 HD
ENDBRANCH   4   5
ENDBRANCH   3   4
ENDBRANCH   2   3
ENDBRANCH   1   2
BRANCH   1   9
HETATM    9  C           1     -22.327  -4.198  -7.971  0.00  0.00     0.249 C 
HETATM   10  N           1     -22.095  -5.351  -7.270  0.00  0.00    -0.344 N 
HETATM   11  H           1     -22.592  -6.199  -7.511  0.00  0.00     0.163 HD
HETATM   12  O           1     -21.733  -3.186  -7.683  0.00  0.00    -0.271 OA
BRANCH  10  13
HETATM   13  C           1     -21.136  -5.358  -6.182  0.00  0.00     0.189 C 
BRANCH  13  14
HETATM   14  C           1     -21.575  -6.361  -5.125  0.00  0.00     0.010 C 
HETATM   15  C           1     -21.037  -5.934  -3.766  0.00  0.00     0.012 C 
HETATM   16  C           1     -23.097  -6.413  -5.076  0.00  0.00     0.012 C 
ENDBRANCH  13  14
BRANCH  13  17
HETATM   17  C           1     -19.778  -5.748  -6.713  0.00  0.00     0.197 C 
HETATM   18  O           1     -18.969  -4.863  -7.069  0.00  0.00    -0.646 OA
HETATM   19  O           1     -19.462  -6.954  -6.796  0.00  0.00    -0.646 OA
ENDBRANCH  13  17
ENDBRANCH  10  13
ENDBRANCH   1   9
BRANCH   1  20
HETATM   20  N           1     -24.586  -3.513  -8.653  0.00  0.00    -0.067 N 
HETATM   21  H           1     -25.305  -4.234  -8.420  0.00  0.00     0.275 HD
HETATM   22  H           1     -24.386  -2.935  -7.806  0.00  0.00     0.275 HD
HETATM   23  H           1     -24.943  -2.898  -9.418  0.00  0.00     0.257 HD
ENDBRANCH   1  20
TORSDOF 9
ENDMDL
