MODEL 1
REMARK VINA RESULT:      -4.8      0.000      0.000
REMARK  8 active torsions:
REMARK  status: ('A' for Active; 'I' for Inactive)
REMARK    1  A    between atoms: O_3  and  C_20 
REMARK    2  A    between atoms: C_5  and  C_14 
REMARK    3  A    between atoms: C_5  and  C_7 
REMARK    4  A    between atoms: C_7  and  C_11 
REMARK    5  A    between atoms: C_7  and  N_15 
REMARK       I    between atoms: C_13  and  N_15 
REMARK    6  A    between atoms: C_13  and  C_17 
REMARK    7  A    between atoms: N_16  and  C_17 
REMARK    8  A    between atoms: C_17  and  C_20 
ROOT
HETATM    1  H           1     -11.966   6.217 -21.910  0.00  0.00     0.163 HD
HETATM    2  O           1     -13.600   4.523 -19.836  0.00  0.00    -0.271 OA
HETATM    3  C           1     -13.175   4.865 -20.914  0.00  0.00     0.251 C 
HETATM    4  N           1     -12.321   5.930 -21.006  0.00  0.00    -0.344 N 
ENDROOT
BRANCH   3   5
HETATM    5  C           1     -13.588   4.118 -22.158  0.00  0.00     0.297 C 
BRANCH   5   6
HETATM    6  N           1     -13.713   2.656 -21.845  0.00  0.00    -0.064 N 
HETATM    7  H           1     -13.725   2.108 -22.734  0.00  0.00     0.275 HD
HETATM    8  H           1     -12.899   2.355 -21.262  0.00  0.00     0.275 HD
HETATM    9  H           1     -14.599   2.487 -21.319  0.00  0.00     0.275 HD
ENDBRANCH   5   6
BRANCH   5  10
HETATM   10  C           1     -14.929   4.647 -22.648  0.00  0.00     0.206 C 
BRANCH  10  11
HETATM   11  O           1     -15.385   5.645 -21.776  0.00  0.00    -0.398 OA
HETATM   12  H           1     -16.006   5.239 -21.195  0.00  0.00     0.209 HD
ENDBRANCH  10  11
ENDBRANCH   5  10
ENDBRANCH   3   5
BRANCH   4  13
HETATM   13  C           1     -11.925   6.648 -19.811  0.00  0.00     0.189 C 
BRANCH  13  14
HETATM   14  C           1     -10.405   6.665 -19.711  0.00  0.00     0.014 C 
HETATM   15  C           1      -9.911   5.301 -19.247  0.00  0.00     0.012 C 
BRANCH  14  16
HETATM   16  C           1      -9.811   6.983 -21.077  0.00  0.00     0.002 C 
HETATM   17  C           1      -9.139   8.349 -21.035  0.00  0.00     0.005 C 
ENDBRANCH  14  16
ENDBRANCH  13  14
BRANCH  13  18
HETATM   18  C           1     -12.441   8.064 -19.880  0.00  0.00     0.197 C 
HETATM   19  O           1     -13.057   8.455 -20.895  0.00  0.00    -0.646 OA
HETATM   20  O           1     -12.253   8.846 -18.924  0.00  0.00    -0.646 OA
ENDBRANCH  13  18
ENDBRANCH   4  13
TORSDOF 8
ENDMDL
MODEL 2
REMARK VINA RESULT:      -4.7     20.685     22.106
REMARK  8 active torsions:
REMARK  status: ('A' for Active; 'I' for Inactive)
REMARK    1  A    between atoms: O_3  and  C_20 
REMARK    2  A    between atoms: C_5  and  C_14 
REMARK    3  A    between atoms: C_5  and  C_7 
REMARK    4  A    between atoms: C_7  and  C_11 
REMARK    5  A    between atoms: C_7  and  N_15 
REMARK       I    between atoms: C_13  and  N_15 
REMARK    6  A    between atoms: C_13  and  C_17 
REMARK    7  A    between atoms: N_16  and  C_17 
REMARK    8  A    between atoms: C_17  and  C_20 
ROOT
HETATM    1  H           1     -22.448  -6.267  -5.510  0.00  0.00     0.163 HD
HETATM    2  O           1     -19.675  -4.884  -5.996  0.00  0.00    -0.271 OA
HETATM    3  C           1     -20.865  -5.066  -6.088  0.00  0.00     0.251 C 
HETATM    4  N           1     -21.451  -6.115  -5.432  0.00  0.00    -0.344 N 
ENDROOT
BRANCH   3   5
HETATM    5  C           1     -21.707  -4.136  -6.928  0.00  0.00     0.297 C 
BRANCH   5   6
HETATM    6  N           1     -21.103  -4.016  -8.296  0.00  0.00    -0.064 N 
HETATM    7  H           1     -20.504  -3.162  -8.340  0.00  0.00     0.275 HD
HETATM    8  H           1     -20.519  -4.860  -8.495  0.00  0.00     0.275 HD
HETATM    9  H           1     -21.864  -3.944  -9.008  0.00  0.00     0.275 HD
ENDBRANCH   5   6
BRANCH   5  10
HETATM   10  C           1     -23.118  -4.693  -7.044  0.00  0.00     0.206 C 
BRANCH  10  11
HETATM   11  O           1     -23.845  -3.938  -7.975  0.00  0.00    -0.398 OA
HETATM   12  H           1     -23.971  -3.084  -7.598  0.00  0.00     0.209 HD
ENDBRANCH  10  11
ENDBRANCH   5  10
ENDBRANCH   3   5
BRANCH   4  13
HETATM   13  C           1     -20.642  -7.008  -4.626  0.00  0.00     0.189 C 
BRANCH  13  14
HETATM   14  C           1     -21.424  -7.417  -3.385  0.00  0.00     0.014 C 
HETATM   15  C           1     -20.534  -8.259  -2.479  0.00  0.00     0.012 C 
BRANCH  14  16
HETATM   16  C           1     -21.877  -6.170  -2.636  0.00  0.00     0.002 C 
HETATM   17  C           1     -22.285  -6.548  -1.218  0.00  0.00     0.005 C 
ENDBRANCH  14  16
ENDBRANCH  13  14
BRANCH  13  18
HETATM   18  C           1     -20.296  -8.236  -5.430  0.00  0.00     0.197 C 
HETATM   19  O           1     -19.103  -8.479  -5.717  0.00  0.00    -0.646 OA
HETATM   20  O           1     -21.200  -9.011  -5.810  0.00  0.00    -0.646 OA
ENDBRANCH  13  18
ENDBRANCH   4  13
TORSDOF 8
ENDMDL
MODEL 3
REMARK VINA RESULT:      -4.7      1.832      4.467
REMARK  8 active torsions:
REMARK  status: ('A' for Active; 'I' for Inactive)
REMARK    1  A    between atoms: O_3  and  C_20 
REMARK    2  A    between atoms: C_5  and  C_14 
REMARK    3  A    between atoms: C_5  and  C_7 
REMARK    4  A    between atoms: C_7  and  C_11 
REMARK    5  A    between atoms: C_7  and  N_15 
REMARK       I    between atoms: C_13  and  N_15 
REMARK    6  A    between atoms: C_13  and  C_17 
REMARK    7  A    between atoms: N_16  and  C_17 
REMARK    8  A    between atoms: C_17  and  C_20 
ROOT
HETATM    1  H           1     -12.304   5.869 -18.996  0.00  0.00     0.163 HD
HETATM    2  O           1     -11.501   7.203 -21.719  0.00  0.00    -0.271 OA
HETATM    3  C           1     -11.542   7.039 -20.523  0.00  0.00     0.251 C 
HETATM    4  N           1     -12.270   6.005 -19.998  0.00  0.00    -0.344 N 
ENDROOT
BRANCH   3   5
HETATM    5  C           1     -10.791   7.975 -19.608  0.00  0.00     0.297 C 
BRANCH   5   6
HETATM    6  N           1      -9.547   8.454 -20.296  0.00  0.00    -0.064 N 
HETATM    7  H           1      -9.496   9.496 -20.240  0.00  0.00     0.275 HD
HETATM    8  H           1      -8.709   8.039 -19.830  0.00  0.00     0.275 HD
HETATM    9  H           1      -9.569   8.161 -21.299  0.00  0.00     0.275 HD
ENDBRANCH   5   6
BRANCH   5  10
HETATM   10  C           1     -11.672   9.168 -19.266  0.00  0.00     0.206 C 
BRANCH  10  11
HETATM   11  O           1     -12.992   8.902 -19.656  0.00  0.00    -0.398 OA
HETATM   12  H           1     -12.957   8.198 -20.281  0.00  0.00     0.209 HD
ENDBRANCH  10  11
ENDBRANCH   5  10
ENDBRANCH   3   5
BRANCH   4  13
HETATM   13  C           1     -12.991   5.107 -20.877  0.00  0.00     0.189 C 
BRANCH  13  14
HETATM   14  C           1     -12.596   3.669 -20.567  0.00  0.00     0.014 C 
HETATM   15  C           1     -13.374   2.723 -21.473  0.00  0.00     0.012 C 
BRANCH  14  16
HETATM   16  C           1     -11.102   3.490 -20.808  0.00  0.00     0.002 C 
HETATM   17  C           1     -10.792   3.732 -22.279  0.00  0.00     0.005 C 
ENDBRANCH  14  16
ENDBRANCH  13  14
BRANCH  13  18
HETATM   18  C           1     -14.475   5.278 -20.663  0.00  0.00     0.197 C 
HETATM   19  O           1     -15.226   5.492 -21.640  0.00  0.00    -0.646 OA
HETATM   20  O           1     -14.953   5.206 -19.511  0.00  0.00    -0.646 OA
ENDBRANCH  13  18
ENDBRANCH   4  13
TORSDOF 8
ENDMDL
MODEL 4
REMARK VINA RESULT:      -4.5     24.741     26.199
REMARK  8 active torsions:
REMARK  status: ('A' for Active; 'I' for Inactive)
REMARK    1  A    between atoms: O_3  and  C_20 
REMARK    2  A    between atoms: C_5  and  C_14 
REMARK    3  A    between atoms: C_5  and  C_7 
REMARK    4  A    between atoms: C_7  and  C_11 
REMARK    5  A    between atoms: C_7  and  N_15 
REMARK       I    between atoms: C_13  and  N_15 
REMARK    6  A    between atoms: C_13  and  C_17 
REMARK    7  A    between atoms: N_16  and  C_17 
REMARK    8  A    between atoms: C_17  and  C_20 
ROOT
HETATM    1  H           1     -22.003  -9.840  -2.731  0.00  0.00     0.163 HD
HETATM    2  O           1     -20.823  -6.984  -2.192  0.00  0.00    -0.271 OA
HETATM    3  C           1     -21.343  -7.881  -2.813  0.00  0.00     0.251 C 
HETATM    4  N           1     -21.568  -9.089  -2.210  0.00  0.00    -0.344 N 
ENDROOT
BRANCH   3   5
HETATM    5  C           1     -21.742  -7.669  -4.253  0.00  0.00     0.297 C 
BRANCH   5   6
HETATM    6  N           1     -22.335  -6.300  -4.410  0.00  0.00    -0.064 N 
HETATM    7  H           1     -22.694  -5.968  -3.487  0.00  0.00     0.275 HD
HETATM    8  H           1     -21.603  -5.641  -4.756  0.00  0.00     0.275 HD
HETATM    9  H           1     -23.122  -6.338  -5.096  0.00  0.00     0.275 HD
ENDBRANCH   5   6
BRANCH   5  10
HETATM   10  C           1     -20.515  -7.795  -5.144  0.00  0.00     0.206 C 
BRANCH  10  11
HETATM   11  O           1     -19.508  -8.490  -4.460  0.00  0.00    -0.398 OA
HETATM   12  H           1     -18.932  -8.851  -5.112  0.00  0.00     0.209 HD
ENDBRANCH  10  11
ENDBRANCH   5  10
ENDBRANCH   3   5
BRANCH   4  13
HETATM   13  C           1     -21.185  -9.292  -0.827  0.00  0.00     0.189 C 
BRANCH  13  14
HETATM   14  C           1     -22.427  -9.576   0.007  0.00  0.00     0.014 C 
HETATM   15  C           1     -23.096  -8.260   0.384  0.00  0.00     0.012 C 
BRANCH  14  16
HETATM   16  C           1     -23.398 -10.426  -0.803  0.00  0.00     0.002 C 
HETATM   17  C           1     -23.783 -11.662  -0.001  0.00  0.00     0.005 C 
ENDBRANCH  14  16
ENDBRANCH  13  14
BRANCH  13  18
HETATM   18  C           1     -20.239 -10.464  -0.735  0.00  0.00     0.197 C 
HETATM   19  O           1     -20.125 -11.093   0.340  0.00  0.00    -0.646 OA
HETATM   20  O           1     -19.569 -10.807  -1.733  0.00  0.00    -0.646 OA
ENDBRANCH  13  18
ENDBRANCH   4  13
TORSDOF 8
ENDMDL
MODEL 5
REMARK VINA RESULT:      -4.4     21.528     22.861
REMARK  8 active torsions:
REMARK  status: ('A' for Active; 'I' for Inactive)
REMARK    1  A    between atoms: O_3  and  C_20 
REMARK    2  A    between atoms: C_5  and  C_14 
REMARK    3  A    between atoms: C_5  and  C_7 
REMARK    4  A    between atoms: C_7  and  C_11 
REMARK    5  A    between atoms: C_7  and  N_15 
REMARK       I    between atoms: C_13  and  N_15 
REMARK    6  A    between atoms: C_13  and  C_17 
REMARK    7  A    between atoms: N_16  and  C_17 
REMARK    8  A    between atoms: C_17  and  C_20 
ROOT
HETATM    1  H           1     -19.992  -6.830  -4.626  0.00  0.00     0.163 HD
HETATM    2  O           1     -22.959  -6.076  -5.313  0.00  0.00    -0.271 OA
HETATM    3  C           1     -21.754  -6.073  -5.404  0.00  0.00     0.251 C 
HETATM    4  N           1     -21.001  -6.833  -4.550  0.00  0.00    -0.344 N 
ENDROOT
BRANCH   3   5
HETATM    5  C           1     -21.080  -5.229  -6.458  0.00  0.00     0.297 C 
BRANCH   5   6
HETATM    6  N           1     -20.205  -6.101  -7.310  0.00  0.00    -0.064 N 
HETATM    7  H           1     -20.346  -5.860  -8.316  0.00  0.00     0.275 HD
HETATM    8  H           1     -19.204  -5.947  -7.052  0.00  0.00     0.275 HD
HETATM    9  H           1     -20.455  -7.103  -7.154  0.00  0.00     0.275 HD
ENDBRANCH   5   6
BRANCH   5  10
HETATM   10  C           1     -22.136  -4.565  -7.330  0.00  0.00     0.206 C 
BRANCH  10  11
HETATM   11  O           1     -21.932  -3.178  -7.337  0.00  0.00    -0.398 OA
HETATM   12  H           1     -21.800  -2.924  -8.235  0.00  0.00     0.209 HD
ENDBRANCH  10  11
ENDBRANCH   5  10
ENDBRANCH   3   5
BRANCH   4  13
HETATM   13  C           1     -21.650  -7.643  -3.538  0.00  0.00     0.189 C 
BRANCH  13  14
HETATM   14  C           1     -20.937  -8.985  -3.429  0.00  0.00     0.014 C 
HETATM   15  C           1     -21.829 -10.080  -4.001  0.00  0.00     0.012 C 
BRANCH  14  16
HETATM   16  C           1     -19.632  -8.931  -4.214  0.00  0.00     0.002 C 
HETATM   17  C           1     -18.483  -9.382  -3.322  0.00  0.00     0.005 C 
ENDBRANCH  14  16
ENDBRANCH  13  14
BRANCH  13  18
HETATM   18  C           1     -21.587  -6.931  -2.208  0.00  0.00     0.197 C 
HETATM   19  O           1     -20.924  -7.421  -1.268  0.00  0.00    -0.646 OA
HETATM   20  O           1     -22.196  -5.852  -2.048  0.00  0.00    -0.646 OA
ENDBRANCH  13  18
ENDBRANCH   4  13
TORSDOF 8
ENDMDL
MODEL 6
REMARK VINA RESULT:      -4.4     25.149     26.376
REMARK  8 active torsions:
REMARK  status: ('A' for Active; 'I' for Inactive)
REMARK    1  A    between atoms: O_3  and  C_20 
REMARK    2  A    between atoms: C_5  and  C_14 
REMARK    3  A    between atoms: C_5  and  C_7 
REMARK    4  A    between atoms: C_7  and  C_11 
REMARK    5  A    between atoms: C_7  and  N_15 
REMARK       I    between atoms: C_13  and  N_15 
REMARK    6  A    between atoms: C_13  and  C_17 
REMARK    7  A    between atoms: N_16  and  C_17 
REMARK    8  A    between atoms: C_17  and  C_20 
ROOT
HETATM    1  H           1     -22.568  -9.616  -2.216  0.00  0.00     0.163 HD
HETATM    2  O           1     -20.834  -9.844   0.388  0.00  0.00    -0.271 OA
HETATM    3  C           1     -21.645 -10.166  -0.447  0.00  0.00     0.251 C 
HETATM    4  N           1     -21.888  -9.346  -1.517  0.00  0.00    -0.344 N 
ENDROOT
BRANCH   3   5
HETATM    5  C           1     -22.391 -11.471  -0.311  0.00  0.00     0.297 C 
BRANCH   5   6
HETATM    6  N           1     -21.803 -12.265   0.818  0.00  0.00    -0.064 N 
HETATM    7  H           1     -22.556 -12.820   1.282  0.00  0.00     0.275 HD
HETATM    8  H           1     -21.074 -12.913   0.444  0.00  0.00     0.275 HD
HETATM    9  H           1     -21.370 -11.616   1.512  0.00  0.00     0.275 HD
ENDBRANCH   5   6
BRANCH   5  10
HETATM   10  C           1     -23.859 -11.190  -0.023  0.00  0.00     0.206 C 
BRANCH  10  11
HETATM   11  O           1     -24.035  -9.820   0.220  0.00  0.00    -0.398 OA
HETATM   12  H           1     -23.971  -9.384  -0.613  0.00  0.00     0.209 HD
ENDBRANCH  10  11
ENDBRANCH   5  10
ENDBRANCH   3   5
BRANCH   4  13
HETATM   13  C           1     -21.172  -8.093  -1.647  0.00  0.00     0.189 C 
BRANCH  13  14
HETATM   14  C           1     -20.570  -7.996  -3.043  0.00  0.00     0.014 C 
HETATM   15  C           1     -19.291  -8.822  -3.102  0.00  0.00     0.012 C 
BRANCH  14  16
HETATM   16  C           1     -21.567  -8.531  -4.063  0.00  0.00     0.002 C 
HETATM   17  C           1     -21.566  -7.635  -5.294  0.00  0.00     0.005 C 
ENDBRANCH  14  16
ENDBRANCH  13  14
BRANCH  13  18
HETATM   18  C           1     -22.126  -6.944  -1.430  0.00  0.00     0.197 C 
HETATM   19  O           1     -22.073  -5.939  -2.172  0.00  0.00    -0.646 OA
HETATM   20  O           1     -22.969  -6.997  -0.509  0.00  0.00    -0.646 OA
ENDBRANCH  13  18
ENDBRANCH   4  13
TORSDOF 8
ENDMDL
MODEL 7
REMARK VINA RESULT:      -4.3      2.138      5.039
REMARK  8 active torsions:
REMARK  status: ('A' for Active; 'I' for Inactive)
REMARK    1  A    between atoms: O_3  and  C_20 
REMARK    2  A    between atoms: C_5  and  C_14 
REMARK    3  A    between atoms: C_5  and  C_7 
REMARK    4  A    between atoms: C_7  and  C_11 
REMARK    5  A    between atoms: C_7  and  N_15 
REMARK       I    between atoms: C_13  and  N_15 
REMARK    6  A    between atoms: C_13  and  C_17 
REMARK    7  A    between atoms: N_16  and  C_17 
REMARK    8  A    between atoms: C_17  and  C_20 
ROOT
HETATM    1  H           1     -10.846   6.169 -20.025  0.00  0.00     0.163 HD
HETATM    2  O           1     -10.788   8.019 -22.558  0.00  0.00    -0.271 OA
HETATM    3  C           1     -10.493   7.622 -21.455  0.00  0.00     0.251 C 
HETATM    4  N           1     -11.094   6.501 -20.948  0.00  0.00    -0.344 N 
ENDROOT
BRANCH   3   5
HETATM    5  C           1      -9.464   8.363 -20.638  0.00  0.00     0.297 C 
BRANCH   5   6
HETATM    6  N           1      -8.708   9.307 -21.525  0.00  0.00    -0.064 N 
HETATM    7  H           1      -9.382   9.898 -22.061  0.00  0.00     0.275 HD
HETATM    8  H           1      -8.097   9.921 -20.940  0.00  0.00     0.275 HD
HETATM    9  H           1      -8.117   8.761 -22.191  0.00  0.00     0.275 HD
ENDBRANCH   5   6
BRANCH   5  10
HETATM   10  C           1     -10.160   9.150 -19.536  0.00  0.00     0.206 C 
BRANCH  10  11
HETATM   11  O           1     -10.299   8.342 -18.399  0.00  0.00    -0.398 OA
HETATM   12  H           1     -10.294   7.448 -18.696  0.00  0.00     0.209 HD
ENDBRANCH  10  11
ENDBRANCH   5  10
ENDBRANCH   3   5
BRANCH   4  13
HETATM   13  C           1     -12.082   5.790 -21.734  0.00  0.00     0.189 C 
BRANCH  13  14
HETATM   14  C           1     -11.757   4.302 -21.732  0.00  0.00     0.014 C 
HETATM   15  C           1     -11.497   3.842 -20.303  0.00  0.00     0.012 C 
BRANCH  14  16
HETATM   16  C           1     -12.933   3.525 -22.310  0.00  0.00     0.002 C 
HETATM   17  C           1     -13.364   2.447 -21.324  0.00  0.00     0.005 C 
ENDBRANCH  14  16
ENDBRANCH  13  14
BRANCH  13  18
HETATM   18  C           1     -13.450   6.007 -21.135  0.00  0.00     0.197 C 
HETATM   19  O           1     -13.583   6.091 -19.895  0.00  0.00    -0.646 OA
HETATM   20  O           1     -14.450   6.102 -21.879  0.00  0.00    -0.646 OA
ENDBRANCH  13  18
ENDBRANCH   4  13
TORSDOF 8
ENDMDL
MODEL 8
REMARK VINA RESULT:      -4.2     25.882     27.228
REMARK  8 active torsions:
REMARK  status: ('A' for Active; 'I' for Inactive)
REMARK    1  A    between atoms: O_3  and  C_20 
REMARK    2  A    between atoms: C_5  and  C_14 
REMARK    3  A    between atoms: C_5  and  C_7 
REMARK    4  A    between atoms: C_7  and  C_11 
REMARK    5  A    between atoms: C_7  and  N_15 
REMARK       I    between atoms: C_13  and  N_15 
REMARK    6  A    between atoms: C_13  and  C_17 
REMARK    7  A    between atoms: N_16  and  C_17 
REMARK    8  A    between atoms: C_17  and  C_20 
ROOT
HETATM    1  H           1     -20.893  -9.486  -2.114  0.00  0.00     0.163 HD
HETATM    2  O           1     -20.008 -11.543   0.083  0.00  0.00    -0.271 OA
HETATM    3  C           1     -19.951 -10.910  -0.944  0.00  0.00     0.251 C 
HETATM    4  N           1     -20.941 -10.016  -1.253  0.00  0.00    -0.344 N 
ENDROOT
BRANCH   3   5
HETATM    5  C           1     -18.789 -11.105  -1.886  0.00  0.00     0.297 C 
BRANCH   5   6
HETATM    6  N           1     -17.641 -11.721  -1.142  0.00  0.00    -0.064 N 
HETATM    7  H           1     -17.981 -12.544  -0.596  0.00  0.00     0.275 HD
HETATM    8  H           1     -16.912 -12.032  -1.822  0.00  0.00     0.275 HD
HETATM    9  H           1     -17.231 -11.016  -0.489  0.00  0.00     0.275 HD
ENDBRANCH   5   6
BRANCH   5  10
HETATM   10  C           1     -19.206 -12.024  -3.026  0.00  0.00     0.206 C 
BRANCH  10  11
HETATM   11  O           1     -20.532 -12.437  -2.832  0.00  0.00    -0.398 OA
HETATM   12  H           1     -20.881 -11.919  -2.127  0.00  0.00     0.209 HD
ENDBRANCH  10  11
ENDBRANCH   5  10
ENDBRANCH   3   5
BRANCH   4  13
HETATM   13  C           1     -22.058  -9.829  -0.348  0.00  0.00     0.189 C 
BRANCH  13  14
HETATM   14  C           1     -22.426  -8.353  -0.296  0.00  0.00     0.014 C 
HETATM   15  C           1     -22.234  -7.832   1.123  0.00  0.00     0.012 C 
BRANCH  14  16
HETATM   16  C           1     -21.530  -7.573  -1.250  0.00  0.00     0.002 C 
HETATM   17  C           1     -22.265  -6.331  -1.738  0.00  0.00     0.005 C 
ENDBRANCH  14  16
ENDBRANCH  13  14
BRANCH  13  18
HETATM   18  C           1     -23.242 -10.627  -0.839  0.00  0.00     0.197 C 
HETATM   19  O           1     -23.244 -11.091  -2.000  0.00  0.00    -0.646 OA
HETATM   20  O           1     -24.219 -10.823  -0.086  0.00  0.00    -0.646 OA
ENDBRANCH  13  18
ENDBRANCH   4  13
TORSDOF 8
ENDMDL
MODEL 9
REMARK VINA RESULT:      -4.2     24.534     25.950
REMARK  8 active torsions:
REMARK  status: ('A' for Active; 'I' for Inactive)
REMARK    1  A    between atoms: O_3  and  C_20 
REMARK    2  A    between atoms: C_5  and  C_14 
REMARK    3  A    between atoms: C_5  and  C_7 
REMARK    4  A    between atoms: C_7  and  C_11 
REMARK    5  A    between atoms: C_7  and  N_15 
REMARK       I    between atoms: C_13  and  N_15 
REMARK    6  A    between atoms: C_13  and  C_17 
REMARK    7  A    between atoms: N_16  and  C_17 
REMARK    8  A    between atoms: C_17  and  C_20 
ROOT
HETATM    1  H           1     -22.326  -8.201  -2.302  0.00  0.00     0.163 HD
HETATM    2  O           1     -19.944  -9.651  -3.737  0.00  0.00    -0.271 OA
HETATM    3  C           1     -20.731  -8.769  -3.491  0.00  0.00     0.251 C 
HETATM    4  N           1     -21.666  -8.940  -2.506  0.00  0.00    -0.344 N 
ENDROOT
BRANCH   3   5
HETATM    5  C           1     -20.684  -7.478  -4.272  0.00  0.00     0.297 C 
BRANCH   5   6
HETATM    6  N           1     -20.387  -7.776  -5.712  0.00  0.00    -0.064 N 
HETATM    7  H           1     -21.180  -7.449  -6.307  0.00  0.00     0.275 HD
HETATM    8  H           1     -19.512  -7.282  -5.996  0.00  0.00     0.275 HD
HETATM    9  H           1     -20.261  -8.806  -5.835  0.00  0.00     0.275 HD
ENDBRANCH   5   6
BRANCH   5  10
HETATM   10  C           1     -22.028  -6.771  -4.168  0.00  0.00     0.206 C 
BRANCH  10  11
HETATM   11  O           1     -22.085  -6.047  -2.969  0.00  0.00    -0.398 OA
HETATM   12  H           1     -22.195  -5.140  -3.201  0.00  0.00     0.209 HD
ENDBRANCH  10  11
ENDBRANCH   5  10
ENDBRANCH   3   5
BRANCH   4  13
HETATM   13  C           1     -21.711 -10.180  -1.757  0.00  0.00     0.189 C 
BRANCH  13  14
HETATM   14  C           1     -21.904  -9.872  -0.278  0.00  0.00     0.014 C 
HETATM   15  C           1     -20.750 -10.467   0.518  0.00  0.00     0.012 C 
BRANCH  14  16
HETATM   16  C           1     -21.936  -8.362  -0.075  0.00  0.00     0.002 C 
HETATM   17  C           1     -23.237  -7.969   0.614  0.00  0.00     0.005 C 
ENDBRANCH  14  16
ENDBRANCH  13  14
BRANCH  13  18
HETATM   18  C           1     -22.862 -11.023  -2.250  0.00  0.00     0.197 C 
HETATM   19  O           1     -22.783 -11.604  -3.354  0.00  0.00    -0.646 OA
HETATM   20  O           1     -23.893 -11.142  -1.554  0.00  0.00    -0.646 OA
ENDBRANCH  13  18
ENDBRANCH   4  13
TORSDOF 8
ENDMDL
