MODEL 1
REMARK VINA RESULT:      -5.7      0.000      0.000
REMARK  9 active torsions:
REMARK  status: ('A' for Active; 'I' for Inactive)
REMARK    1  A    between atoms: O_2  and  C_3 
REMARK    2  A    between atoms: C_3  and  C_17 
REMARK    3  A    between atoms: C_4  and  C_5 
REMARK    4  A    between atoms: C_5  and  C_15 
REMARK    5  A    between atoms: C_5  and  N_7 
REMARK       I    between atoms: N_7  and  C_14 
REMARK    6  A    between atoms: N_10  and  C_17 
REMARK    7  A    between atoms: S_12  and  C_13 
REMARK    8  A    between atoms: C_13  and  C_15 
REMARK    9  A    between atoms: C_14  and  C_17 
ROOT
HETATM    1  N           1     -26.444  -6.638 -18.214  0.00  0.00    -0.345 N 
HETATM    2  H           1     -27.319  -6.932 -18.629  0.00  0.00     0.163 HD
HETATM    3  C           1     -25.264  -6.866 -18.869  0.00  0.00     0.251 C 
HETATM    4  O           1     -24.220  -6.515 -18.373  0.00  0.00    -0.271 OA
ENDROOT
BRANCH   3   5
HETATM    5  C           1     -25.267  -7.556 -20.210  0.00  0.00     0.302 C 
BRANCH   5   6
HETATM    6  C           1     -24.541  -6.689 -21.230  0.00  0.00     0.153 C 
HETATM    7  C           1     -24.217  -7.521 -22.464  0.00  0.00     0.042 C 
BRANCH   6   8
HETATM    8  O           1     -25.359  -5.611 -21.596  0.00  0.00    -0.393 OA
HETATM    9  H           1     -26.219  -5.793 -21.257  0.00  0.00     0.210 HD
ENDBRANCH   6   8
ENDBRANCH   5   6
BRANCH   5  10
HETATM   10  N           1     -26.683  -7.772 -20.658  0.00  0.00    -0.064 N 
HETATM   11  H           1     -27.229  -6.891 -20.525  0.00  0.00     0.275 HD
HETATM   12  H           1     -26.692  -8.040 -21.668  0.00  0.00     0.275 HD
HETATM   13  H           1     -27.114  -8.538 -20.091  0.00  0.00     0.275 HD
ENDBRANCH   5  10
ENDBRANCH   3   5
BRANCH   1  14
HETATM   14  C           1     -26.440  -5.975 -16.924  0.00  0.00     0.186 C 
BRANCH  14  15
HETATM   15  C           1     -26.445  -7.010 -15.826  0.00  0.00     0.196 C 
HETATM   16  O           1     -27.529  -7.418 -15.356  0.00  0.00    -0.646 OA
HETATM   17  O           1     -25.364  -7.459 -15.386  0.00  0.00    -0.646 OA
ENDBRANCH  14  15
BRANCH  14  18
HETATM   18  C           1     -27.680  -5.098 -16.801  0.00  0.00     0.046 C 
BRANCH  18  19
HETATM   19  C           1     -28.580  -5.318 -18.011  0.00  0.00     0.076 C 
BRANCH  19  20
HETATM   20  S           1     -30.165  -6.016 -17.467  0.00  0.00    -0.173 SA
HETATM   21  C           1     -29.978  -7.613 -18.310  0.00  0.00     0.089 C 
ENDBRANCH  19  20
ENDBRANCH  18  19
ENDBRANCH  14  18
ENDBRANCH   1  14
TORSDOF 9
ENDMDL
MODEL 2
REMARK VINA RESULT:      -5.4      2.192      2.798
REMARK  9 active torsions:
REMARK  status: ('A' for Active; 'I' for Inactive)
REMARK    1  A    between atoms: O_2  and  C_3 
REMARK    2  A    between atoms: C_3  and  C_17 
REMARK    3  A    between atoms: C_4  and  C_5 
REMARK    4  A    between atoms: C_5  and  C_15 
REMARK    5  A    between atoms: C_5  and  N_7 
REMARK       I    between atoms: N_7  and  C_14 
REMARK    6  A    between atoms: N_10  and  C_17 
REMARK    7  A    between atoms: S_12  and  C_13 
REMARK    8  A    between atoms: C_13  and  C_15 
REMARK    9  A    between atoms: C_14  and  C_17 
ROOT
HETATM    1  N           1     -27.344  -6.754 -19.390  0.00  0.00    -0.345 N 
HETATM    2  H           1     -27.548  -6.989 -20.353  0.00  0.00     0.163 HD
HETATM    3  C           1     -26.046  -6.637 -18.973  0.00  0.00     0.251 C 
HETATM    4  O           1     -25.803  -6.356 -17.824  0.00  0.00    -0.271 OA
ENDROOT
BRANCH   3   5
HETATM    5  C           1     -24.917  -6.858 -19.951  0.00  0.00     0.302 C 
BRANCH   5   6
HETATM    6  C           1     -25.479  -7.387 -21.263  0.00  0.00     0.153 C 
HETATM    7  C           1     -24.347  -7.550 -22.270  0.00  0.00     0.042 C 
BRANCH   6   8
HETATM    8  O           1     -26.090  -8.629 -21.045  0.00  0.00    -0.393 OA
HETATM    9  H           1     -26.712  -8.755 -21.741  0.00  0.00     0.210 HD
ENDBRANCH   6   8
ENDBRANCH   5   6
BRANCH   5  10
HETATM   10  N           1     -23.952  -7.856 -19.382  0.00  0.00    -0.064 N 
HETATM   11  H           1     -23.904  -7.743 -18.344  0.00  0.00     0.275 HD
HETATM   12  H           1     -24.276  -8.823 -19.613  0.00  0.00     0.275 HD
HETATM   13  H           1     -23.004  -7.698 -19.794  0.00  0.00     0.275 HD
ENDBRANCH   5  10
ENDBRANCH   3   5
BRANCH   1  14
HETATM   14  C           1     -28.428  -6.542 -18.450  0.00  0.00     0.186 C 
BRANCH  14  15
HETATM   15  C           1     -29.349  -7.736 -18.467  0.00  0.00     0.196 C 
HETATM   16  O           1     -29.839  -8.164 -17.398  0.00  0.00    -0.646 OA
HETATM   17  O           1     -29.623  -8.300 -19.549  0.00  0.00    -0.646 OA
ENDBRANCH  14  15
BRANCH  14  18
HETATM   18  C           1     -29.206  -5.294 -18.847  0.00  0.00     0.046 C 
BRANCH  18  19
HETATM   19  C           1     -29.723  -4.596 -17.595  0.00  0.00     0.076 C 
BRANCH  19  20
HETATM   20  S           1     -28.427  -4.597 -16.324  0.00  0.00    -0.173 SA
HETATM   21  C           1     -29.340  -5.591 -15.110  0.00  0.00     0.089 C 
ENDBRANCH  19  20
ENDBRANCH  18  19
ENDBRANCH  14  18
ENDBRANCH   1  14
TORSDOF 9
ENDMDL
MODEL 3
REMARK VINA RESULT:      -5.3      2.176      2.676
REMARK  9 active torsions:
REMARK  status: ('A' for Active; 'I' for Inactive)
REMARK    1  A    between atoms: O_2  and  C_3 
REMARK    2  A    between atoms: C_3  and  C_17 
REMARK    3  A    between atoms: C_4  and  C_5 
REMARK    4  A    between atoms: C_5  and  C_15 
REMARK    5  A    between atoms: C_5  and  N_7 
REMARK       I    between atoms: N_7  and  C_14 
REMARK    6  A    between atoms: N_10  and  C_17 
REMARK    7  A    between atoms: S_12  and  C_13 
REMARK    8  A    between atoms: C_13  and  C_15 
REMARK    9  A    between atoms: C_14  and  C_17 
ROOT
HETATM    1  N           1     -26.598  -6.433 -18.127  0.00  0.00    -0.345 N 
HETATM    2  H           1     -25.856  -6.538 -17.447  0.00  0.00     0.163 HD
HETATM    3  C           1     -26.321  -6.536 -19.464  0.00  0.00     0.251 C 
HETATM    4  O           1     -27.207  -6.412 -20.275  0.00  0.00    -0.271 OA
ENDROOT
BRANCH   3   5
HETATM    5  C           1     -24.909  -6.805 -19.923  0.00  0.00     0.302 C 
BRANCH   5   6
HETATM    6  C           1     -24.940  -7.591 -21.227  0.00  0.00     0.153 C 
HETATM    7  C           1     -23.573  -8.215 -21.475  0.00  0.00     0.042 C 
BRANCH   6   8
HETATM    8  O           1     -25.906  -8.604 -21.140  0.00  0.00    -0.393 OA
HETATM    9  H           1     -26.424  -8.423 -20.375  0.00  0.00     0.210 HD
ENDBRANCH   6   8
ENDBRANCH   5   6
BRANCH   5  10
HETATM   10  N           1     -24.186  -7.601 -18.877  0.00  0.00    -0.064 N 
HETATM   11  H           1     -24.032  -8.574 -19.224  0.00  0.00     0.275 HD
HETATM   12  H           1     -23.263  -7.153 -18.675  0.00  0.00     0.275 HD
HETATM   13  H           1     -24.759  -7.629 -18.003  0.00  0.00     0.275 HD
ENDBRANCH   5  10
ENDBRANCH   3   5
BRANCH   1  14
HETATM   14  C           1     -27.955  -6.175 -17.686  0.00  0.00     0.186 C 
BRANCH  14  15
HETATM   15  C           1     -28.121  -4.701 -17.410  0.00  0.00     0.196 C 
HETATM   16  O           1     -27.438  -4.150 -16.519  0.00  0.00    -0.646 OA
HETATM   17  O           1     -28.943  -4.030 -18.072  0.00  0.00    -0.646 OA
ENDBRANCH  14  15
BRANCH  14  18
HETATM   18  C           1     -28.233  -6.965 -16.414  0.00  0.00     0.046 C 
BRANCH  18  19
HETATM   19  C           1     -29.373  -7.945 -16.663  0.00  0.00     0.076 C 
BRANCH  19  20
HETATM   20  S           1     -30.212  -7.516 -18.215  0.00  0.00    -0.173 SA
HETATM   21  C           1     -31.627  -6.675 -17.450  0.00  0.00     0.089 C 
ENDBRANCH  19  20
ENDBRANCH  18  19
ENDBRANCH  14  18
ENDBRANCH   1  14
TORSDOF 9
ENDMDL
MODEL 4
REMARK VINA RESULT:      -5.0     10.958     12.959
REMARK  9 active torsions:
REMARK  status: ('A' for Active; 'I' for Inactive)
REMARK    1  A    between atoms: O_2  and  C_3 
REMARK    2  A    between atoms: C_3  and  C_17 
REMARK    3  A    between atoms: C_4  and  C_5 
REMARK    4  A    between atoms: C_5  and  C_15 
REMARK    5  A    between atoms: C_5  and  N_7 
REMARK       I    between atoms: N_7  and  C_14 
REMARK    6  A    between atoms: N_10  and  C_17 
REMARK    7  A    between atoms: S_12  and  C_13 
REMARK    8  A    between atoms: C_13  and  C_15 
REMARK    9  A    between atoms: C_14  and  C_17 
ROOT
HETATM    1  N           1     -22.427  -5.353  -7.168  0.00  0.00    -0.345 N 
HETATM    2  H           1     -22.974  -6.189  -7.327  0.00  0.00     0.163 HD
HETATM    3  C           1     -22.560  -4.277  -8.003  0.00  0.00     0.251 C 
HETATM    4  O           1     -21.906  -3.279  -7.812  0.00  0.00    -0.271 OA
ENDROOT
BRANCH   3   5
HETATM    5  C           1     -23.523  -4.338  -9.163  0.00  0.00     0.302 C 
BRANCH   5   6
HETATM    6  C           1     -22.747  -4.269 -10.472  0.00  0.00     0.153 C 
HETATM    7  C           1     -23.545  -4.958 -11.571  0.00  0.00     0.042 C 
BRANCH   6   8
HETATM    8  O           1     -22.535  -2.928 -10.821  0.00  0.00    -0.393 OA
HETATM    9  H           1     -22.087  -2.524 -10.098  0.00  0.00     0.210 HD
ENDBRANCH   6   8
ENDBRANCH   5   6
BRANCH   5  10
HETATM   10  N           1     -24.473  -3.179  -9.085  0.00  0.00    -0.064 N 
HETATM   11  H           1     -25.127  -3.209  -9.899  0.00  0.00     0.275 HD
HETATM   12  H           1     -25.019  -3.238  -8.196  0.00  0.00     0.275 HD
HETATM   13  H           1     -23.933  -2.284  -9.105  0.00  0.00     0.275 HD
ENDBRANCH   5  10
ENDBRANCH   3   5
BRANCH   1  14
HETATM   14  C           1     -21.501  -5.295  -6.053  0.00  0.00     0.186 C 
BRANCH  14  15
HETATM   15  C           1     -20.103  -5.579  -6.545  0.00  0.00     0.196 C 
HETATM   16  O           1     -19.826  -6.698  -7.030  0.00  0.00    -0.646 OA
HETATM   17  O           1     -19.221  -4.696  -6.467  0.00  0.00    -0.646 OA
ENDBRANCH  14  15
BRANCH  14  18
HETATM   18  C           1     -21.895  -6.334  -5.012  0.00  0.00     0.046 C 
BRANCH  18  19
HETATM   19  C           1     -21.211  -6.013  -3.688  0.00  0.00     0.076 C 
BRANCH  19  20
HETATM   20  S           1     -21.287  -7.463  -2.600  0.00  0.00    -0.173 SA
HETATM   21  C           1     -22.283  -6.683  -1.298  0.00  0.00     0.089 C 
ENDBRANCH  19  20
ENDBRANCH  18  19
ENDBRANCH  14  18
ENDBRANCH   1  14
TORSDOF 9
ENDMDL
MODEL 5
REMARK VINA RESULT:      -5.0     12.114     14.688
REMARK  9 active torsions:
REMARK  status: ('A' for Active; 'I' for Inactive)
REMARK    1  A    between atoms: O_2  and  C_3 
REMARK    2  A    between atoms: C_3  and  C_17 
REMARK    3  A    between atoms: C_4  and  C_5 
REMARK    4  A    between atoms: C_5  and  C_15 
REMARK    5  A    between atoms: C_5  and  N_7 
REMARK       I    between atoms: N_7  and  C_14 
REMARK    6  A    between atoms: N_10  and  C_17 
REMARK    7  A    between atoms: S_12  and  C_13 
REMARK    8  A    between atoms: C_13  and  C_15 
REMARK    9  A    between atoms: C_14  and  C_17 
ROOT
HETATM    1  N           1     -20.898  -5.408  -5.181  0.00  0.00    -0.345 N 
HETATM    2  H           1     -20.156  -4.818  -4.828  0.00  0.00     0.163 HD
HETATM    3  C           1     -21.611  -6.201  -4.323  0.00  0.00     0.251 C 
HETATM    4  O           1     -22.498  -6.905  -4.745  0.00  0.00    -0.271 OA
ENDROOT
BRANCH   3   5
HETATM    5  C           1     -21.289  -6.196  -2.848  0.00  0.00     0.302 C 
BRANCH   5   6
HETATM    6  C           1     -20.700  -7.543  -2.452  0.00  0.00     0.153 C 
HETATM    7  C           1     -21.713  -8.312  -1.613  0.00  0.00     0.042 C 
BRANCH   6   8
HETATM    8  O           1     -20.397  -8.279  -3.606  0.00  0.00    -0.393 OA
HETATM    9  H           1     -20.877  -9.087  -3.550  0.00  0.00     0.210 HD
ENDBRANCH   6   8
ENDBRANCH   5   6
BRANCH   5  10
HETATM   10  N           1     -22.545  -5.950  -2.064  0.00  0.00    -0.064 N 
HETATM   11  H           1     -22.570  -6.588  -1.237  0.00  0.00     0.275 HD
HETATM   12  H           1     -22.562  -4.957  -1.738  0.00  0.00     0.275 HD
HETATM   13  H           1     -23.376  -6.132  -2.671  0.00  0.00     0.275 HD
ENDBRANCH   5  10
ENDBRANCH   3   5
BRANCH   1  14
HETATM   14  C           1     -21.208  -5.414  -6.598  0.00  0.00     0.186 C 
BRANCH  14  15
HETATM   15  C           1     -19.946  -5.665  -7.387  0.00  0.00     0.196 C 
HETATM   16  O           1     -19.345  -6.756  -7.273  0.00  0.00    -0.646 OA
HETATM   17  O           1     -19.502  -4.784  -8.154  0.00  0.00    -0.646 OA
ENDBRANCH  14  15
BRANCH  14  18
HETATM   18  C           1     -21.795  -4.065  -6.994  0.00  0.00     0.046 C 
BRANCH  18  19
HETATM   19  C           1     -23.125  -4.279  -7.706  0.00  0.00     0.076 C 
BRANCH  19  20
HETATM   20  S           1     -22.921  -3.951  -9.480  0.00  0.00    -0.173 SA
HETATM   21  C           1     -24.619  -3.382  -9.773  0.00  0.00     0.089 C 
ENDBRANCH  19  20
ENDBRANCH  18  19
ENDBRANCH  14  18
ENDBRANCH   1  14
TORSDOF 9
ENDMDL
MODEL 6
REMARK VINA RESULT:      -4.9     12.103     14.220
REMARK  9 active torsions:
REMARK  status: ('A' for Active; 'I' for Inactive)
REMARK    1  A    between atoms: O_2  and  C_3 
REMARK    2  A    between atoms: C_3  and  C_17 
REMARK    3  A    between atoms: C_4  and  C_5 
REMARK    4  A    between atoms: C_5  and  C_15 
REMARK    5  A    between atoms: C_5  and  N_7 
REMARK       I    between atoms: N_7  and  C_14 
REMARK    6  A    between atoms: N_10  and  C_17 
REMARK    7  A    between atoms: S_12  and  C_13 
REMARK    8  A    between atoms: C_13  and  C_15 
REMARK    9  A    between atoms: C_14  and  C_17 
ROOT
HETATM    1  N           1     -20.706  -6.327  -6.528  0.00  0.00    -0.345 N 
HETATM    2  H           1     -20.975  -6.806  -7.377  0.00  0.00     0.163 HD
HETATM    3  C           1     -20.455  -4.981  -6.551  0.00  0.00     0.251 C 
HETATM    4  O           1     -20.134  -4.409  -5.536  0.00  0.00    -0.271 OA
ENDROOT
BRANCH   3   5
HETATM    5  C           1     -20.579  -4.213  -7.844  0.00  0.00     0.302 C 
BRANCH   5   6
HETATM    6  C           1     -22.040  -3.857  -8.085  0.00  0.00     0.153 C 
HETATM    7  C           1     -22.517  -4.517  -9.372  0.00  0.00     0.042 C 
BRANCH   6   8
HETATM    8  O           1     -22.817  -4.313  -7.011  0.00  0.00    -0.393 OA
HETATM    9  H           1     -23.250  -3.560  -6.647  0.00  0.00     0.210 HD
ENDBRANCH   6   8
ENDBRANCH   5   6
BRANCH   5  10
HETATM   10  N           1     -20.078  -5.058  -8.977  0.00  0.00    -0.064 N 
HETATM   11  H           1     -20.626  -4.845  -9.841  0.00  0.00     0.275 HD
HETATM   12  H           1     -19.067  -4.850  -9.145  0.00  0.00     0.275 HD
HETATM   13  H           1     -20.190  -6.069  -8.734  0.00  0.00     0.275 HD
ENDBRANCH   5  10
ENDBRANCH   3   5
BRANCH   1  14
HETATM   14  C           1     -20.587  -7.064  -5.285  0.00  0.00     0.186 C 
BRANCH  14  15
HETATM   15  C           1     -20.180  -8.487  -5.582  0.00  0.00     0.196 C 
HETATM   16  O           1     -21.052  -9.373  -5.711  0.00  0.00    -0.646 OA
HETATM   17  O           1     -18.970  -8.779  -5.699  0.00  0.00    -0.646 OA
ENDBRANCH  14  15
BRANCH  14  18
HETATM   18  C           1     -21.927  -7.059  -4.562  0.00  0.00     0.046 C 
BRANCH  18  19
HETATM   19  C           1     -21.764  -6.410  -3.193  0.00  0.00     0.076 C 
BRANCH  19  20
HETATM   20  S           1     -21.259  -7.666  -1.984  0.00  0.00    -0.173 SA
HETATM   21  C           1     -22.408  -7.155  -0.675  0.00  0.00     0.089 C 
ENDBRANCH  19  20
ENDBRANCH  18  19
ENDBRANCH  14  18
ENDBRANCH   1  14
TORSDOF 9
ENDMDL
MODEL 7
REMARK VINA RESULT:      -4.7     12.600     14.742
REMARK  9 active torsions:
REMARK  status: ('A' for Active; 'I' for Inactive)
REMARK    1  A    between atoms: O_2  and  C_3 
REMARK    2  A    between atoms: C_3  and  C_17 
REMARK    3  A    between atoms: C_4  and  C_5 
REMARK    4  A    between atoms: C_5  and  C_15 
REMARK    5  A    between atoms: C_5  and  N_7 
REMARK       I    between atoms: N_7  and  C_14 
REMARK    6  A    between atoms: N_10  and  C_17 
REMARK    7  A    between atoms: S_12  and  C_13 
REMARK    8  A    between atoms: C_13  and  C_15 
REMARK    9  A    between atoms: C_14  and  C_17 
ROOT
HETATM    1  N           1     -20.966  -5.685  -5.002  0.00  0.00    -0.345 N 
HETATM    2  H           1     -20.774  -4.867  -4.437  0.00  0.00     0.163 HD
HETATM    3  C           1     -20.926  -5.600  -6.367  0.00  0.00     0.251 C 
HETATM    4  O           1     -21.154  -6.577  -7.041  0.00  0.00    -0.271 OA
ENDROOT
BRANCH   3   5
HETATM    5  C           1     -20.595  -4.286  -7.032  0.00  0.00     0.302 C 
BRANCH   5   6
HETATM    6  C           1     -21.848  -3.717  -7.684  0.00  0.00     0.153 C 
HETATM    7  C           1     -21.817  -4.006  -9.180  0.00  0.00     0.042 C 
BRANCH   6   8
HETATM    8  O           1     -22.983  -4.314  -7.118  0.00  0.00    -0.393 OA
HETATM    9  H           1     -23.718  -3.766  -7.335  0.00  0.00     0.210 HD
ENDBRANCH   6   8
ENDBRANCH   5   6
BRANCH   5  10
HETATM   10  N           1     -19.543  -4.506  -8.079  0.00  0.00    -0.064 N 
HETATM   11  H           1     -18.641  -4.085  -7.761  0.00  0.00     0.275 HD
HETATM   12  H           1     -19.415  -5.532  -8.232  0.00  0.00     0.275 HD
HETATM   13  H           1     -19.843  -4.055  -8.973  0.00  0.00     0.275 HD
ENDBRANCH   5  10
ENDBRANCH   3   5
BRANCH   1  14
HETATM   14  C           1     -21.284  -6.948  -4.364  0.00  0.00     0.186 C 
BRANCH  14  15
HETATM   15  C           1     -21.599  -6.710  -2.908  0.00  0.00     0.196 C 
HETATM   16  O           1     -20.959  -7.319  -2.022  0.00  0.00    -0.646 OA
HETATM   17  O           1     -22.500  -5.906  -2.586  0.00  0.00    -0.646 OA
ENDBRANCH  14  15
BRANCH  14  18
HETATM   18  C           1     -20.091  -7.888  -4.479  0.00  0.00     0.046 C 
BRANCH  18  19
HETATM   19  C           1     -20.578  -9.285  -4.845  0.00  0.00     0.076 C 
BRANCH  19  20
HETATM   20  S           1     -19.651 -10.519  -3.891  0.00  0.00    -0.173 SA
HETATM   21  C           1     -18.356  -9.389  -3.309  0.00  0.00     0.089 C 
ENDBRANCH  19  20
ENDBRANCH  18  19
ENDBRANCH  14  18
ENDBRANCH   1  14
TORSDOF 9
ENDMDL
MODEL 8
REMARK VINA RESULT:      -4.7     13.046     15.140
REMARK  9 active torsions:
REMARK  status: ('A' for Active; 'I' for Inactive)
REMARK    1  A    between atoms: O_2  and  C_3 
REMARK    2  A    between atoms: C_3  and  C_17 
REMARK    3  A    between atoms: C_4  and  C_5 
REMARK    4  A    between atoms: C_5  and  C_15 
REMARK    5  A    between atoms: C_5  and  N_7 
REMARK       I    between atoms: N_7  and  C_14 
REMARK    6  A    between atoms: N_10  and  C_17 
REMARK    7  A    between atoms: S_12  and  C_13 
REMARK    8  A    between atoms: C_13  and  C_15 
REMARK    9  A    between atoms: C_14  and  C_17 
ROOT
HETATM    1  N           1     -21.713  -6.214  -5.051  0.00  0.00    -0.345 N 
HETATM    2  H           1     -22.598  -6.607  -5.346  0.00  0.00     0.163 HD
HETATM    3  C           1     -21.140  -5.199  -5.770  0.00  0.00     0.251 C 
HETATM    4  O           1     -20.085  -4.730  -5.416  0.00  0.00    -0.271 OA
ENDROOT
BRANCH   3   5
HETATM    5  C           1     -21.827  -4.668  -7.003  0.00  0.00     0.302 C 
BRANCH   5   6
HETATM    6  C           1     -21.240  -5.335  -8.240  0.00  0.00     0.153 C 
HETATM    7  C           1     -20.775  -4.266  -9.220  0.00  0.00     0.042 C 
BRANCH   6   8
HETATM    8  O           1     -20.149  -6.132  -7.868  0.00  0.00    -0.393 OA
HETATM    9  H           1     -20.367  -6.527  -7.041  0.00  0.00     0.210 HD
ENDBRANCH   6   8
ENDBRANCH   5   6
BRANCH   5  10
HETATM   10  N           1     -21.620  -3.184  -7.090  0.00  0.00    -0.064 N 
HETATM   11  H           1     -22.333  -2.697  -6.502  0.00  0.00     0.275 HD
HETATM   12  H           1     -20.663  -2.946  -6.746  0.00  0.00     0.275 HD
HETATM   13  H           1     -21.720  -2.877  -8.085  0.00  0.00     0.275 HD
ENDBRANCH   5  10
ENDBRANCH   3   5
BRANCH   1  14
HETATM   14  C           1     -21.052  -6.724  -3.865  0.00  0.00     0.186 C 
BRANCH  14  15
HETATM   15  C           1     -20.744  -8.189  -4.053  0.00  0.00     0.196 C 
HETATM   16  O           1     -19.559  -8.588  -4.022  0.00  0.00    -0.646 OA
HETATM   17  O           1     -21.674  -9.005  -4.240  0.00  0.00    -0.646 OA
ENDBRANCH  14  15
BRANCH  14  18
HETATM   18  C           1     -21.966  -6.547  -2.659  0.00  0.00     0.046 C 
BRANCH  18  19
HETATM   19  C           1     -21.320  -7.182  -1.434  0.00  0.00     0.076 C 
BRANCH  19  20
HETATM   20  S           1     -22.610  -7.669  -0.254  0.00  0.00    -0.173 SA
HETATM   21  C           1     -21.496  -8.447   0.949  0.00  0.00     0.089 C 
ENDBRANCH  19  20
ENDBRANCH  18  19
ENDBRANCH  14  18
ENDBRANCH   1  14
TORSDOF 9
ENDMDL
MODEL 9
REMARK VINA RESULT:      -4.6      1.845      2.396
REMARK  9 active torsions:
REMARK  status: ('A' for Active; 'I' for Inactive)
REMARK    1  A    between atoms: O_2  and  C_3 
REMARK    2  A    between atoms: C_3  and  C_17 
REMARK    3  A    between atoms: C_4  and  C_5 
REMARK    4  A    between atoms: C_5  and  C_15 
REMARK    5  A    between atoms: C_5  and  N_7 
REMARK       I    between atoms: N_7  and  C_14 
REMARK    6  A    between atoms: N_10  and  C_17 
REMARK    7  A    between atoms: S_12  and  C_13 
REMARK    8  A    between atoms: C_13  and  C_15 
REMARK    9  A    between atoms: C_14  and  C_17 
ROOT
HETATM    1  N           1     -26.948  -6.665 -18.530  0.00  0.00    -0.345 N 
HETATM    2  H           1     -26.307  -7.348 -18.147  0.00  0.00     0.163 HD
HETATM    3  C           1     -26.836  -6.280 -19.840  0.00  0.00     0.251 C 
HETATM    4  O           1     -27.601  -5.465 -20.297  0.00  0.00    -0.271 OA
ENDROOT
BRANCH   3   5
HETATM    5  C           1     -25.758  -6.876 -20.711  0.00  0.00     0.302 C 
BRANCH   5   6
HETATM    6  C           1     -24.686  -7.507 -19.834  0.00  0.00     0.153 C 
HETATM    7  C           1     -23.602  -8.114 -20.715  0.00  0.00     0.042 C 
BRANCH   6   8
HETATM    8  O           1     -24.120  -6.527 -19.007  0.00  0.00    -0.393 OA
HETATM    9  H           1     -24.396  -6.719 -18.127  0.00  0.00     0.210 HD
ENDBRANCH   6   8
ENDBRANCH   5   6
BRANCH   5  10
HETATM   10  N           1     -25.142  -5.796 -21.552  0.00  0.00    -0.064 N 
HETATM   11  H           1     -24.480  -5.235 -20.970  0.00  0.00     0.275 HD
HETATM   12  H           1     -24.624  -6.230 -22.350  0.00  0.00     0.275 HD
HETATM   13  H           1     -25.895  -5.172 -21.923  0.00  0.00     0.275 HD
ENDBRANCH   5  10
ENDBRANCH   3   5
BRANCH   1  14
HETATM   14  C           1     -27.984  -6.092 -17.693  0.00  0.00     0.186 C 
BRANCH  14  15
HETATM   15  C           1     -27.530  -6.102 -16.254  0.00  0.00     0.196 C 
HETATM   16  O           1     -27.196  -7.178 -15.711  0.00  0.00    -0.646 OA
HETATM   17  O           1     -27.489  -5.034 -15.604  0.00  0.00    -0.646 OA
ENDBRANCH  14  15
BRANCH  14  18
HETATM   18  C           1     -29.259  -6.915 -17.830  0.00  0.00     0.046 C 
BRANCH  18  19
HETATM   19  C           1     -30.356  -6.299 -16.971  0.00  0.00     0.076 C 
BRANCH  19  20
HETATM   20  S           1     -30.565  -4.552 -17.416  0.00  0.00    -0.173 SA
HETATM   21  C           1     -32.292  -4.413 -16.875  0.00  0.00     0.089 C 
ENDBRANCH  19  20
ENDBRANCH  18  19
ENDBRANCH  14  18
ENDBRANCH   1  14
TORSDOF 9
ENDMDL
