MODEL 1
REMARK VINA RESULT:      -6.0      0.000      0.000
REMARK  10 active torsions:
REMARK  status: ('A' for Active; 'I' for Inactive)
REMARK    1  A    between atoms: C_6  and  C_21 
REMARK    2  A    between atoms: N_9  and  C_21 
REMARK       I    between atoms: N_9  and  C_10 
REMARK    3  A    between atoms: C_10  and  C_11 
REMARK    4  A    between atoms: C_11  and  C_12 
REMARK    5  A    between atoms: C_11  and  N_20 
REMARK    6  A    between atoms: C_12  and  C_13 
REMARK    7  A    between atoms: C_13  and  C_19 
REMARK    8  A    between atoms: Se_14  and  C_16 
REMARK    9  A    between atoms: C_16  and  C_22 
REMARK   10  A    between atoms: C_21  and  C_22 
ROOT
HETATM    1  H           1     -27.301  -6.978 -18.637  0.00  0.00     0.163 HD
HETATM    2  N           1     -26.411  -6.681 -18.254  0.00  0.00    -0.345 N 
HETATM    3  C           1     -25.255  -6.931 -18.942  0.00  0.00     0.249 C 
HETATM    4  O           1     -24.193  -6.576 -18.486  0.00  0.00    -0.271 OA
ENDROOT
BRANCH   3   5
HETATM    5  C           1     -25.305  -7.648 -20.269  0.00  0.00     0.275 C 
BRANCH   5   6
HETATM    6  C           1     -24.519  -6.854 -21.305  0.00  0.00     0.053 C 
BRANCH   6   7
HETATM    7  C           1     -24.106  -7.775 -22.445  0.00  0.00     0.115 C 
BRANCH   7   8
HETATM    8  C           1     -22.806  -8.457 -22.096  0.00  0.00     0.172 C 
HETATM    9  O           1     -22.246  -8.215 -21.006  0.00  0.00    -0.648 OA
HETATM   10  O           1     -22.289  -9.264 -22.899  0.00  0.00    -0.648 OA
ENDBRANCH   7   8
ENDBRANCH   6   7
ENDBRANCH   5   6
BRANCH   5  11
HETATM   11  N           1     -26.731  -7.776 -20.713  0.00  0.00    -0.066 N 
HETATM   12  H           1     -26.758  -8.060 -21.719  0.00  0.00     0.275 HD
HETATM   13  H           1     -27.212  -8.500 -20.135  0.00  0.00     0.275 HD
HETATM   14  H           1     -27.215  -6.857 -20.599  0.00  0.00     0.275 HD
ENDBRANCH   5  11
ENDBRANCH   3   5
BRANCH   2  15
HETATM   15  C           1     -26.364  -5.991 -16.980  0.00  0.00     0.185 C 
BRANCH  15  16
HETATM   16  C           1     -26.321  -7.004 -15.863  0.00  0.00     0.196 C 
HETATM   17  O           1     -27.385  -7.442 -15.376  0.00  0.00    -0.646 OA
HETATM   18  O           1     -25.221  -7.406 -15.425  0.00  0.00    -0.646 OA
ENDBRANCH  15  16
BRANCH  15  19
HETATM   19  C           1     -27.604  -5.120 -16.829  0.00  0.00     0.036 C 
BRANCH  19  20
HETATM   20  C           1     -28.490  -5.278 -18.058  0.00  0.00     0.003 C 
BRANCH  20  21
HETATM   21 Se           1     -30.219  -6.002 -17.525  0.00  0.00     0.000 Se
HETATM   22  C           1     -29.908  -7.760 -18.306  0.00  0.00     0.000 C 
ENDBRANCH  20  21
ENDBRANCH  19  20
ENDBRANCH  15  19
ENDBRANCH   2  15
TORSDOF 10
ENDMDL
MODEL 2
REMARK VINA RESULT:      -5.6     11.365     13.843
REMARK  10 active torsions:
REMARK  status: ('A' for Active; 'I' for Inactive)
REMARK    1  A    between atoms: C_6  and  C_21 
REMARK    2  A    between atoms: N_9  and  C_21 
REMARK       I    between atoms: N_9  and  C_10 
REMARK    3  A    between atoms: C_10  and  C_11 
REMARK    4  A    between atoms: C_11  and  C_12 
REMARK    5  A    between atoms: C_11  and  N_20 
REMARK    6  A    between atoms: C_12  and  C_13 
REMARK    7  A    between atoms: C_13  and  C_19 
REMARK    8  A    between atoms: Se_14  and  C_16 
REMARK    9  A    between atoms: C_16  and  C_22 
REMARK   10  A    between atoms: C_21  and  C_22 
ROOT
HETATM    1  H           1     -22.389  -5.966  -6.649  0.00  0.00     0.163 HD
HETATM    2  N           1     -21.462  -5.741  -6.307  0.00  0.00    -0.345 N 
HETATM    3  C           1     -20.724  -4.767  -6.926  0.00  0.00     0.249 C 
HETATM    4  O           1     -19.618  -4.498  -6.518  0.00  0.00    -0.271 OA
ENDROOT
BRANCH   3   5
HETATM    5  C           1     -21.290  -4.031  -8.115  0.00  0.00     0.275 C 
BRANCH   5   6
HETATM    6  C           1     -22.555  -4.733  -8.592  0.00  0.00     0.053 C 
BRANCH   6   7
HETATM    7  C           1     -23.649  -3.702  -8.833  0.00  0.00     0.115 C 
BRANCH   7   8
HETATM    8  C           1     -23.866  -3.535 -10.317  0.00  0.00     0.172 C 
HETATM    9  O           1     -22.913  -3.690 -11.110  0.00  0.00    -0.648 OA
HETATM   10  O           1     -25.000  -3.241 -10.753  0.00  0.00    -0.648 OA
ENDBRANCH   7   8
ENDBRANCH   6   7
ENDBRANCH   5   6
BRANCH   5  11
HETATM   11  N           1     -20.278  -4.017  -9.221  0.00  0.00    -0.066 N 
HETATM   12  H           1     -20.657  -3.479 -10.033  0.00  0.00     0.275 HD
HETATM   13  H           1     -19.400  -3.564  -8.884  0.00  0.00     0.275 HD
HETATM   14  H           1     -20.075  -4.998  -9.519  0.00  0.00     0.275 HD
ENDBRANCH   5  11
ENDBRANCH   3   5
BRANCH   2  15
HETATM   15  C           1     -20.919  -6.447  -5.164  0.00  0.00     0.185 C 
BRANCH  15  16
HETATM   16  C           1     -20.457  -7.818  -5.595  0.00  0.00     0.196 C 
HETATM   17  O           1     -21.262  -8.773  -5.608  0.00  0.00    -0.646 OA
HETATM   18  O           1     -19.269  -7.997  -5.940  0.00  0.00    -0.646 OA
ENDBRANCH  15  16
BRANCH  15  19
HETATM   19  C           1     -21.996  -6.587  -4.096  0.00  0.00     0.036 C 
BRANCH  19  20
HETATM   20  C           1     -21.464  -6.067  -2.767  0.00  0.00     0.003 C 
BRANCH  20  21
HETATM   21 Se           1     -21.954  -7.302  -1.341  0.00  0.00     0.000 Se
HETATM   22  C           1     -20.805  -8.744  -1.973  0.00  0.00     0.000 C 
ENDBRANCH  20  21
ENDBRANCH  19  20
ENDBRANCH  15  19
ENDBRANCH   2  15
TORSDOF 10
ENDMDL
MODEL 3
REMARK VINA RESULT:      -5.6     11.602     13.893
REMARK  10 active torsions:
REMARK  status: ('A' for Active; 'I' for Inactive)
REMARK    1  A    between atoms: C_6  and  C_21 
REMARK    2  A    between atoms: N_9  and  C_21 
REMARK       I    between atoms: N_9  and  C_10 
REMARK    3  A    between atoms: C_10  and  C_11 
REMARK    4  A    between atoms: C_11  and  C_12 
REMARK    5  A    between atoms: C_11  and  N_20 
REMARK    6  A    between atoms: C_12  and  C_13 
REMARK    7  A    between atoms: C_13  and  C_19 
REMARK    8  A    between atoms: Se_14  and  C_16 
REMARK    9  A    between atoms: C_16  and  C_22 
REMARK   10  A    between atoms: C_21  and  C_22 
ROOT
HETATM    1  H           1     -21.760  -7.199  -6.892  0.00  0.00     0.163 HD
HETATM    2  N           1     -21.309  -6.492  -6.323  0.00  0.00    -0.345 N 
HETATM    3  C           1     -21.223  -5.203  -6.775  0.00  0.00     0.249 C 
HETATM    4  O           1     -20.686  -4.360  -6.096  0.00  0.00    -0.271 OA
ENDROOT
BRANCH   3   5
HETATM    5  C           1     -21.799  -4.834  -8.120  0.00  0.00     0.275 C 
BRANCH   5   6
HETATM    6  C           1     -20.773  -4.032  -8.909  0.00  0.00     0.053 C 
BRANCH   6   7
HETATM    7  C           1     -20.798  -4.469 -10.368  0.00  0.00     0.115 C 
BRANCH   7   8
HETATM    8  C           1     -21.817  -3.650 -11.122  0.00  0.00     0.172 C 
HETATM    9  O           1     -22.994  -4.055 -11.223  0.00  0.00    -0.648 OA
HETATM   10  O           1     -21.481  -2.566 -11.646  0.00  0.00    -0.648 OA
ENDBRANCH   7   8
ENDBRANCH   6   7
ENDBRANCH   5   6
BRANCH   5  11
HETATM   11  N           1     -23.036  -4.009  -7.924  0.00  0.00    -0.066 N 
HETATM   12  H           1     -23.557  -4.355  -7.087  0.00  0.00     0.275 HD
HETATM   13  H           1     -22.767  -3.010  -7.778  0.00  0.00     0.275 HD
HETATM   14  H           1     -23.645  -4.088  -8.770  0.00  0.00     0.275 HD
ENDBRANCH   5  11
ENDBRANCH   3   5
BRANCH   2  15
HETATM   15  C           1     -20.757  -6.846  -5.030  0.00  0.00     0.185 C 
BRANCH  15  16
HETATM   16  C           1     -20.110  -8.207  -5.117  0.00  0.00     0.196 C 
HETATM   17  O           1     -19.216  -8.421  -5.963  0.00  0.00    -0.646 OA
HETATM   18  O           1     -20.468  -9.119  -4.341  0.00  0.00    -0.646 OA
ENDBRANCH  15  16
BRANCH  15  19
HETATM   19  C           1     -21.873  -6.880  -3.994  0.00  0.00     0.036 C 
BRANCH  19  20
HETATM   20  C           1     -21.452  -6.081  -2.767  0.00  0.00     0.003 C 
BRANCH  20  21
HETATM   21 Se           1     -22.242  -6.874  -1.172  0.00  0.00     0.000 Se
HETATM   22  C           1     -20.852  -8.224  -0.955  0.00  0.00     0.000 C 
ENDBRANCH  20  21
ENDBRANCH  19  20
ENDBRANCH  15  19
ENDBRANCH   2  15
TORSDOF 10
ENDMDL
MODEL 4
REMARK VINA RESULT:      -5.3      1.990      2.708
REMARK  10 active torsions:
REMARK  status: ('A' for Active; 'I' for Inactive)
REMARK    1  A    between atoms: C_6  and  C_21 
REMARK    2  A    between atoms: N_9  and  C_21 
REMARK       I    between atoms: N_9  and  C_10 
REMARK    3  A    between atoms: C_10  and  C_11 
REMARK    4  A    between atoms: C_11  and  C_12 
REMARK    5  A    between atoms: C_11  and  N_20 
REMARK    6  A    between atoms: C_12  and  C_13 
REMARK    7  A    between atoms: C_13  and  C_19 
REMARK    8  A    between atoms: Se_14  and  C_16 
REMARK    9  A    between atoms: C_16  and  C_22 
REMARK   10  A    between atoms: C_21  and  C_22 
ROOT
HETATM    1  H           1     -28.105  -7.117 -20.612  0.00  0.00     0.163 HD
HETATM    2  N           1     -27.651  -6.929 -19.726  0.00  0.00    -0.345 N 
HETATM    3  C           1     -26.288  -6.831 -19.663  0.00  0.00     0.249 C 
HETATM    4  O           1     -25.746  -6.606 -18.606  0.00  0.00    -0.271 OA
ENDROOT
BRANCH   3   5
HETATM    5  C           1     -25.460  -7.001 -20.913  0.00  0.00     0.275 C 
BRANCH   5   6
HETATM    6  C           1     -24.204  -7.799 -20.585  0.00  0.00     0.053 C 
BRANCH   6   7
HETATM    7  C           1     -23.530  -8.239 -21.878  0.00  0.00     0.115 C 
BRANCH   7   8
HETATM    8  C           1     -22.131  -8.719 -21.579  0.00  0.00     0.172 C 
HETATM    9  O           1     -21.534  -8.312 -20.560  0.00  0.00    -0.648 OA
HETATM   10  O           1     -21.570  -9.526 -22.351  0.00  0.00    -0.648 OA
ENDBRANCH   7   8
ENDBRANCH   6   7
ENDBRANCH   5   6
BRANCH   5  11
HETATM   11  N           1     -25.071  -5.653 -21.442  0.00  0.00    -0.066 N 
HETATM   12  H           1     -25.448  -5.537 -22.410  0.00  0.00     0.275 HD
HETATM   13  H           1     -25.466  -4.910 -20.824  0.00  0.00     0.275 HD
HETATM   14  H           1     -24.029  -5.575 -21.464  0.00  0.00     0.275 HD
ENDBRANCH   5  11
ENDBRANCH   3   5
BRANCH   2  15
HETATM   15  C           1     -28.447  -6.764 -18.525  0.00  0.00     0.185 C 
BRANCH  15  16
HETATM   16  C           1     -29.696  -7.603 -18.632  0.00  0.00     0.196 C 
HETATM   17  O           1     -29.684  -8.659 -19.300  0.00  0.00    -0.646 OA
HETATM   18  O           1     -30.743  -7.243 -18.052  0.00  0.00    -0.646 OA
ENDBRANCH  15  16
BRANCH  15  19
HETATM   19  C           1     -28.832  -5.298 -18.370  0.00  0.00     0.036 C 
BRANCH  19  20
HETATM   20  C           1     -28.175  -4.730 -17.118  0.00  0.00     0.003 C 
BRANCH  20  21
HETATM   21 Se           1     -28.943  -5.576 -15.539  0.00  0.00     0.000 Se
HETATM   22  C           1     -27.655  -7.038 -15.495  0.00  0.00     0.000 C 
ENDBRANCH  20  21
ENDBRANCH  19  20
ENDBRANCH  15  19
ENDBRANCH   2  15
TORSDOF 10
ENDMDL
MODEL 5
REMARK VINA RESULT:      -5.3     18.126     19.408
REMARK  10 active torsions:
REMARK  status: ('A' for Active; 'I' for Inactive)
REMARK    1  A    between atoms: C_6  and  C_21 
REMARK    2  A    between atoms: N_9  and  C_21 
REMARK       I    between atoms: N_9  and  C_10 
REMARK    3  A    between atoms: C_10  and  C_11 
REMARK    4  A    between atoms: C_11  and  C_12 
REMARK    5  A    between atoms: C_11  and  N_20 
REMARK    6  A    between atoms: C_12  and  C_13 
REMARK    7  A    between atoms: C_13  and  C_19 
REMARK    8  A    between atoms: Se_14  and  C_16 
REMARK    9  A    between atoms: C_16  and  C_22 
REMARK   10  A    between atoms: C_21  and  C_22 
ROOT
HETATM    1  H           1     -11.950   6.155 -21.477  0.00  0.00     0.163 HD
HETATM    2  N           1     -11.360   5.338 -21.375  0.00  0.00    -0.345 N 
HETATM    3  C           1     -11.718   4.158 -21.969  0.00  0.00     0.249 C 
HETATM    4  O           1     -11.014   3.183 -21.849  0.00  0.00    -0.271 OA
ENDROOT
BRANCH   3   5
HETATM    5  C           1     -12.991   4.074 -22.774  0.00  0.00     0.275 C 
BRANCH   5   6
HETATM    6  C           1     -13.842   5.310 -22.510  0.00  0.00     0.053 C 
BRANCH   6   7
HETATM    7  C           1     -15.021   4.936 -21.623  0.00  0.00     0.115 C 
BRANCH   7   8
HETATM    8  C           1     -14.812   5.501 -20.240  0.00  0.00     0.172 C 
HETATM    9  O           1     -13.849   6.266 -20.017  0.00  0.00    -0.648 OA
HETATM   10  O           1     -15.602   5.204 -19.318  0.00  0.00    -0.648 OA
ENDBRANCH   7   8
ENDBRANCH   6   7
ENDBRANCH   5   6
BRANCH   5  11
HETATM   11  N           1     -13.755   2.847 -22.374  0.00  0.00    -0.066 N 
HETATM   12  H           1     -14.767   2.975 -22.605  0.00  0.00     0.275 HD
HETATM   13  H           1     -13.383   2.020 -22.893  0.00  0.00     0.275 HD
HETATM   14  H           1     -13.651   2.692 -21.346  0.00  0.00     0.275 HD
ENDBRANCH   5  11
ENDBRANCH   3   5
BRANCH   2  15
HETATM   15  C           1     -10.136   5.419 -20.603  0.00  0.00     0.185 C 
BRANCH  15  16
HETATM   16  C           1     -10.470   5.408 -19.131  0.00  0.00     0.196 C 
HETATM   17  O           1     -11.579   4.981 -18.746  0.00  0.00    -0.646 OA
HETATM   18  O           1      -9.637   5.825 -18.298  0.00  0.00    -0.646 OA
ENDBRANCH  15  16
BRANCH  15  19
HETATM   19  C           1      -9.403   6.709 -20.948  0.00  0.00     0.036 C 
BRANCH  19  20
HETATM   20  C           1     -10.416   7.821 -21.187  0.00  0.00     0.003 C 
BRANCH  20  21
HETATM   21 Se           1     -10.194   9.206 -19.835  0.00  0.00     0.000 Se
HETATM   22  C           1     -12.075   9.239 -19.324  0.00  0.00     0.000 C 
ENDBRANCH  20  21
ENDBRANCH  19  20
ENDBRANCH  15  19
ENDBRANCH   2  15
TORSDOF 10
ENDMDL
MODEL 6
REMARK VINA RESULT:      -5.3     12.181     14.670
REMARK  10 active torsions:
REMARK  status: ('A' for Active; 'I' for Inactive)
REMARK    1  A    between atoms: C_6  and  C_21 
REMARK    2  A    between atoms: N_9  and  C_21 
REMARK       I    between atoms: N_9  and  C_10 
REMARK    3  A    between atoms: C_10  and  C_11 
REMARK    4  A    between atoms: C_11  and  C_12 
REMARK    5  A    between atoms: C_11  and  N_20 
REMARK    6  A    between atoms: C_12  and  C_13 
REMARK    7  A    between atoms: C_13  and  C_19 
REMARK    8  A    between atoms: Se_14  and  C_16 
REMARK    9  A    between atoms: C_16  and  C_22 
REMARK   10  A    between atoms: C_21  and  C_22 
ROOT
HETATM    1  H           1     -19.866  -6.467  -4.923  0.00  0.00     0.163 HD
HETATM    2  N           1     -20.877  -6.428  -4.970  0.00  0.00    -0.345 N 
HETATM    3  C           1     -21.488  -5.531  -5.805  0.00  0.00     0.249 C 
HETATM    4  O           1     -22.694  -5.485  -5.862  0.00  0.00    -0.271 OA
ENDROOT
BRANCH   3   5
HETATM    5  C           1     -20.656  -4.603  -6.655  0.00  0.00     0.275 C 
BRANCH   5   6
HETATM    6  C           1     -21.573  -3.680  -7.447  0.00  0.00     0.053 C 
BRANCH   6   7
HETATM    7  C           1     -21.576  -4.100  -8.910  0.00  0.00     0.115 C 
BRANCH   7   8
HETATM    8  C           1     -22.896  -3.726  -9.540  0.00  0.00     0.172 C 
HETATM    9  O           1     -23.954  -3.835  -8.885  0.00  0.00    -0.648 OA
HETATM   10  O           1     -22.929  -3.307 -10.717  0.00  0.00    -0.648 OA
ENDBRANCH   7   8
ENDBRANCH   6   7
ENDBRANCH   5   6
BRANCH   5  11
HETATM   11  N           1     -19.818  -5.408  -7.602  0.00  0.00    -0.066 N 
HETATM   12  H           1     -18.807  -5.210  -7.429  0.00  0.00     0.275 HD
HETATM   13  H           1     -20.003  -6.426  -7.451  0.00  0.00     0.275 HD
HETATM   14  H           1     -20.059  -5.150  -8.586  0.00  0.00     0.275 HD
ENDBRANCH   5  11
ENDBRANCH   3   5
BRANCH   2  15
HETATM   15  C           1     -21.677  -7.321  -4.155  0.00  0.00     0.185 C 
BRANCH  15  16
HETATM   16  C           1     -21.649  -6.851  -2.721  0.00  0.00     0.196 C 
HETATM   17  O           1     -22.398  -5.922  -2.354  0.00  0.00    -0.646 OA
HETATM   18  O           1     -20.877  -7.393  -1.901  0.00  0.00    -0.646 OA
ENDBRANCH  15  16
BRANCH  15  19
HETATM   19  C           1     -21.106  -8.731  -4.239  0.00  0.00     0.036 C 
BRANCH  19  20
HETATM   20  C           1     -19.776  -8.698  -4.981  0.00  0.00     0.003 C 
BRANCH  20  21
HETATM   21 Se           1     -18.380  -9.450  -3.849  0.00  0.00     0.000 Se
HETATM   22  C           1     -17.265 -10.040  -5.334  0.00  0.00     0.000 C 
ENDBRANCH  20  21
ENDBRANCH  19  20
ENDBRANCH  15  19
ENDBRANCH   2  15
TORSDOF 10
ENDMDL
MODEL 7
REMARK VINA RESULT:      -5.1     12.308     14.769
REMARK  10 active torsions:
REMARK  status: ('A' for Active; 'I' for Inactive)
REMARK    1  A    between atoms: C_6  and  C_21 
REMARK    2  A    between atoms: N_9  and  C_21 
REMARK       I    between atoms: N_9  and  C_10 
REMARK    3  A    between atoms: C_10  and  C_11 
REMARK    4  A    between atoms: C_11  and  C_12 
REMARK    5  A    between atoms: C_11  and  N_20 
REMARK    6  A    between atoms: C_12  and  C_13 
REMARK    7  A    between atoms: C_13  and  C_19 
REMARK    8  A    between atoms: Se_14  and  C_16 
REMARK    9  A    between atoms: C_16  and  C_22 
REMARK   10  A    between atoms: C_21  and  C_22 
ROOT
HETATM    1  H           1     -20.061  -6.798  -4.982  0.00  0.00     0.163 HD
HETATM    2  N           1     -21.062  -6.780  -4.833  0.00  0.00    -0.345 N 
HETATM    3  C           1     -21.851  -5.959  -5.593  0.00  0.00     0.249 C 
HETATM    4  O           1     -23.047  -5.938  -5.417  0.00  0.00    -0.271 OA
ENDROOT
BRANCH   3   5
HETATM    5  C           1     -21.229  -5.082  -6.652  0.00  0.00     0.275 C 
BRANCH   5   6
HETATM    6  C           1     -22.326  -4.347  -7.411  0.00  0.00     0.053 C 
BRANCH   6   7
HETATM    7  C           1     -21.874  -4.098  -8.844  0.00  0.00     0.115 C 
BRANCH   7   8
HETATM    8  C           1     -23.050  -3.644  -9.672  0.00  0.00     0.172 C 
HETATM    9  O           1     -22.882  -3.301 -10.862  0.00  0.00    -0.648 OA
HETATM   10  O           1     -24.193  -3.611  -9.168  0.00  0.00    -0.648 OA
ENDBRANCH   7   8
ENDBRANCH   6   7
ENDBRANCH   5   6
BRANCH   5  11
HETATM   11  N           1     -20.444  -5.932  -7.606  0.00  0.00    -0.066 N 
HETATM   12  H           1     -20.857  -6.892  -7.639  0.00  0.00     0.275 HD
HETATM   13  H           1     -20.478  -5.507  -8.560  0.00  0.00     0.275 HD
HETATM   14  H           1     -19.452  -5.991  -7.284  0.00  0.00     0.275 HD
ENDBRANCH   5  11
ENDBRANCH   3   5
BRANCH   2  15
HETATM   15  C           1     -21.660  -7.623  -3.817  0.00  0.00     0.185 C 
BRANCH  15  16
HETATM   16  C           1     -21.523  -6.958  -2.469  0.00  0.00     0.196 C 
HETATM   17  O           1     -20.747  -7.434  -1.614  0.00  0.00    -0.646 OA
HETATM   18  O           1     -22.185  -5.930  -2.209  0.00  0.00    -0.646 OA
ENDBRANCH  15  16
BRANCH  15  19
HETATM   19  C           1     -20.948  -8.970  -3.793  0.00  0.00     0.036 C 
BRANCH  19  20
HETATM   20  C           1     -21.979 -10.088  -3.705  0.00  0.00     0.003 C 
BRANCH  20  21
HETATM   21 Se           1     -21.632 -11.171  -2.122  0.00  0.00     0.000 Se
HETATM   22  C           1     -23.472 -11.119  -1.482  0.00  0.00     0.000 C 
ENDBRANCH  20  21
ENDBRANCH  19  20
ENDBRANCH  15  19
ENDBRANCH   2  15
TORSDOF 10
ENDMDL
MODEL 8
REMARK VINA RESULT:      -5.0     19.256     20.363
REMARK  10 active torsions:
REMARK  status: ('A' for Active; 'I' for Inactive)
REMARK    1  A    between atoms: C_6  and  C_21 
REMARK    2  A    between atoms: N_9  and  C_21 
REMARK       I    between atoms: N_9  and  C_10 
REMARK    3  A    between atoms: C_10  and  C_11 
REMARK    4  A    between atoms: C_11  and  C_12 
REMARK    5  A    between atoms: C_11  and  N_20 
REMARK    6  A    between atoms: C_12  and  C_13 
REMARK    7  A    between atoms: C_13  and  C_19 
REMARK    8  A    between atoms: Se_14  and  C_16 
REMARK    9  A    between atoms: C_16  and  C_22 
REMARK   10  A    between atoms: C_21  and  C_22 
ROOT
HETATM    1  H           1     -11.501   6.738 -19.446  0.00  0.00     0.163 HD
HETATM    2  N           1     -11.355   7.149 -20.360  0.00  0.00    -0.345 N 
HETATM    3  C           1     -11.169   6.344 -21.450  0.00  0.00     0.249 C 
HETATM    4  O           1     -10.995   6.835 -22.541  0.00  0.00    -0.271 OA
ENDROOT
BRANCH   3   5
HETATM    5  C           1     -11.181   4.843 -21.292  0.00  0.00     0.275 C 
BRANCH   5   6
HETATM    6  C           1     -12.455   4.278 -21.907  0.00  0.00     0.053 C 
BRANCH   6   7
HETATM    7  C           1     -13.438   3.919 -20.801  0.00  0.00     0.115 C 
BRANCH   7   8
HETATM    8  C           1     -14.362   5.084 -20.549  0.00  0.00     0.172 C 
HETATM    9  O           1     -14.116   5.890 -19.627  0.00  0.00    -0.648 OA
HETATM   10  O           1     -15.375   5.243 -21.264  0.00  0.00    -0.648 OA
ENDBRANCH   7   8
ENDBRANCH   6   7
ENDBRANCH   5   6
BRANCH   5  11
HETATM   11  N           1     -11.133   4.495 -19.834  0.00  0.00    -0.066 N 
HETATM   12  H           1     -12.077   4.175 -19.521  0.00  0.00     0.275 HD
HETATM   13  H           1     -10.439   3.729 -19.682  0.00  0.00     0.275 HD
HETATM   14  H           1     -10.851   5.338 -19.284  0.00  0.00     0.275 HD
ENDBRANCH   5  11
ENDBRANCH   3   5
BRANCH   2  15
HETATM   15  C           1     -11.344   8.591 -20.512  0.00  0.00     0.185 C 
BRANCH  15  16
HETATM   16  C           1     -10.119   9.157 -19.838  0.00  0.00     0.196 C 
HETATM   17  O           1      -9.225   9.701 -20.521  0.00  0.00    -0.646 OA
HETATM   18  O           1      -9.999   9.084 -18.596  0.00  0.00    -0.646 OA
ENDBRANCH  15  16
BRANCH  15  19
HETATM   19  C           1     -12.595   9.178 -19.869  0.00  0.00     0.036 C 
BRANCH  19  20
HETATM   20  C           1     -12.908  10.526 -20.506  0.00  0.00     0.003 C 
BRANCH  20  21
HETATM   21 Se           1     -14.196  11.484 -19.400  0.00  0.00     0.000 Se
HETATM   22  C           1     -14.112  10.219 -17.920  0.00  0.00     0.000 C 
ENDBRANCH  20  21
ENDBRANCH  19  20
ENDBRANCH  15  19
ENDBRANCH   2  15
TORSDOF 10
ENDMDL
MODEL 9
REMARK VINA RESULT:      -4.9     18.575     19.640
REMARK  10 active torsions:
REMARK  status: ('A' for Active; 'I' for Inactive)
REMARK    1  A    between atoms: C_6  and  C_21 
REMARK    2  A    between atoms: N_9  and  C_21 
REMARK       I    between atoms: N_9  and  C_10 
REMARK    3  A    between atoms: C_10  and  C_11 
REMARK    4  A    between atoms: C_11  and  C_12 
REMARK    5  A    between atoms: C_11  and  N_20 
REMARK    6  A    between atoms: C_12  and  C_13 
REMARK    7  A    between atoms: C_13  and  C_19 
REMARK    8  A    between atoms: Se_14  and  C_16 
REMARK    9  A    between atoms: C_16  and  C_22 
REMARK   10  A    between atoms: C_21  and  C_22 
ROOT
HETATM    1  H           1     -12.866   6.411 -19.619  0.00  0.00     0.163 HD
HETATM    2  N           1     -12.611   6.889 -20.476  0.00  0.00    -0.345 N 
HETATM    3  C           1     -13.129   6.470 -21.671  0.00  0.00     0.249 C 
HETATM    4  O           1     -12.826   7.040 -22.694  0.00  0.00    -0.271 OA
ENDROOT
BRANCH   3   5
HETATM    5  C           1     -14.079   5.298 -21.714  0.00  0.00     0.275 C 
BRANCH   5   6
HETATM    6  C           1     -13.365   4.087 -22.303  0.00  0.00     0.053 C 
BRANCH   6   7
HETATM    7  C           1     -13.198   3.023 -21.228  0.00  0.00     0.115 C 
BRANCH   7   8
HETATM    8  C           1     -11.833   3.151 -20.599  0.00  0.00     0.172 C 
HETATM    9  O           1     -10.892   2.431 -20.994  0.00  0.00    -0.648 OA
HETATM   10  O           1     -11.644   3.979 -19.681  0.00  0.00    -0.648 OA
ENDBRANCH   7   8
ENDBRANCH   6   7
ENDBRANCH   5   6
BRANCH   5  11
HETATM   11  N           1     -15.262   5.645 -22.567  0.00  0.00    -0.066 N 
HETATM   12  H           1     -16.050   5.962 -21.958  0.00  0.00     0.275 HD
HETATM   13  H           1     -15.003   6.412 -23.226  0.00  0.00     0.275 HD
HETATM   14  H           1     -15.559   4.802 -23.109  0.00  0.00     0.275 HD
ENDBRANCH   5  11
ENDBRANCH   3   5
BRANCH   2  15
HETATM   15  C           1     -11.700   8.015 -20.435  0.00  0.00     0.185 C 
BRANCH  15  16
HETATM   16  C           1     -10.377   7.570 -19.862  0.00  0.00     0.196 C 
HETATM   17  O           1     -10.346   6.912 -18.800  0.00  0.00    -0.646 OA
HETATM   18  O           1      -9.312   7.857 -20.450  0.00  0.00    -0.646 OA
ENDBRANCH  15  16
BRANCH  15  19
HETATM   19  C           1     -12.290   9.112 -19.557  0.00  0.00     0.036 C 
BRANCH  19  20
HETATM   20  C           1     -12.705  10.291 -20.428  0.00  0.00     0.003 C 
BRANCH  20  21
HETATM   21 Se           1     -14.030  11.363 -19.483  0.00  0.00     0.000 Se
HETATM   22  C           1     -14.116  10.187 -17.932  0.00  0.00     0.000 C 
ENDBRANCH  20  21
ENDBRANCH  19  20
ENDBRANCH  15  19
ENDBRANCH   2  15
TORSDOF 10
ENDMDL
