MODEL 1
REMARK VINA RESULT:      -5.7      0.000      0.000
REMARK  8 active torsions:
REMARK  status: ('A' for Active; 'I' for Inactive)
REMARK    1  A    between atoms: C_1  and  C_13 
REMARK    2  A    between atoms: C_1  and  C_3 
REMARK    3  A    between atoms: C_3  and  C_4 
REMARK    4  A    between atoms: C_3  and  N_9 
REMARK    5  A    between atoms: N_6  and  C_14 
REMARK       I    between atoms: N_9  and  C_19 
REMARK    6  A    between atoms: C_14  and  C_19 
REMARK    7  A    between atoms: C_14  and  C_15 
REMARK    8  A    between atoms: C_15  and  S_16 
ROOT
HETATM    1  O           1     -37.746  -0.718 -13.414  0.00  0.00    -0.271 OA
HETATM    2  N           1     -35.857  -0.409 -12.263  0.00  0.00    -0.344 N 
HETATM    3  H           1     -34.921  -0.025 -12.238  0.00  0.00     0.163 HD
HETATM    4  C           1     -36.628  -0.259 -13.384  0.00  0.00     0.249 C 
ENDROOT
BRANCH   2   5
HETATM    5  C           1     -36.380  -1.119 -11.113  0.00  0.00     0.189 C 
BRANCH   5   6
HETATM    6  C           1     -35.318  -2.073 -10.579  0.00  0.00     0.014 C 
HETATM    7  C           1     -35.772  -3.510 -10.796  0.00  0.00     0.012 C 
BRANCH   6   8
HETATM    8  C           1     -34.008  -1.837 -11.319  0.00  0.00     0.002 C 
HETATM    9  C           1     -33.174  -3.111 -11.297  0.00  0.00     0.005 C 
ENDBRANCH   6   8
ENDBRANCH   5   6
BRANCH   5  10
HETATM   10  C           1     -36.752  -0.128 -10.037  0.00  0.00     0.197 C 
HETATM   11  O           1     -36.184  -0.171  -8.924  0.00  0.00    -0.646 OA
HETATM   12  O           1     -37.627   0.737 -10.260  0.00  0.00    -0.646 OA
ENDBRANCH   5  10
ENDBRANCH   2   5
BRANCH   4  13
HETATM   13  C           1     -36.084   0.480 -14.582  0.00  0.00     0.283 C 
BRANCH  13  14
HETATM   14  N           1     -34.597   0.302 -14.643  0.00  0.00    -0.066 N 
HETATM   15  H           1     -34.256  -0.105 -13.743  0.00  0.00     0.275 HD
HETATM   16  H           1     -34.355  -0.344 -15.429  0.00  0.00     0.275 HD
HETATM   17  H           1     -34.140   1.229 -14.800  0.00  0.00     0.275 HD
ENDBRANCH  13  14
BRANCH  13  18
HETATM   18  C           1     -36.715  -0.076 -15.851  0.00  0.00     0.113 C 
BRANCH  18  19
HETATM   19  S           1     -35.590  -1.282 -16.609  0.00  0.00    -0.180 SA
HETATM   20  H           1     -34.762  -1.384 -15.555  0.00  0.00     0.101 HD
ENDBRANCH  18  19
ENDBRANCH  13  18
ENDBRANCH   4  13
TORSDOF 8
ENDMDL
MODEL 2
REMARK VINA RESULT:      -5.2      1.522      2.103
REMARK  8 active torsions:
REMARK  status: ('A' for Active; 'I' for Inactive)
REMARK    1  A    between atoms: C_1  and  C_13 
REMARK    2  A    between atoms: C_1  and  C_3 
REMARK    3  A    between atoms: C_3  and  C_4 
REMARK    4  A    between atoms: C_3  and  N_9 
REMARK    5  A    between atoms: N_6  and  C_14 
REMARK       I    between atoms: N_9  and  C_19 
REMARK    6  A    between atoms: C_14  and  C_19 
REMARK    7  A    between atoms: C_14  and  C_15 
REMARK    8  A    between atoms: C_15  and  S_16 
ROOT
HETATM    1  O           1     -37.103  -0.907 -13.299  0.00  0.00    -0.271 OA
HETATM    2  N           1     -34.928  -1.388 -13.124  0.00  0.00    -0.344 N 
HETATM    3  H           1     -33.974  -1.137 -13.348  0.00  0.00     0.163 HD
HETATM    4  C           1     -35.962  -0.607 -13.566  0.00  0.00     0.249 C 
ENDROOT
BRANCH   2   5
HETATM    5  C           1     -35.200  -2.575 -12.338  0.00  0.00     0.189 C 
BRANCH   5   6
HETATM    6  C           1     -33.952  -3.448 -12.289  0.00  0.00     0.014 C 
HETATM    7  C           1     -33.070  -3.006 -11.128  0.00  0.00     0.012 C 
BRANCH   6   8
HETATM    8  C           1     -34.359  -4.902 -12.092  0.00  0.00     0.002 C 
HETATM    9  C           1     -33.850  -5.395 -10.744  0.00  0.00     0.005 C 
ENDBRANCH   6   8
ENDBRANCH   5   6
BRANCH   5  10
HETATM   10  C           1     -35.587  -2.170 -10.936  0.00  0.00     0.197 C 
HETATM   11  O           1     -36.476  -2.803 -10.326  0.00  0.00    -0.646 OA
HETATM   12  O           1     -35.018  -1.204 -10.385  0.00  0.00    -0.646 OA
ENDBRANCH   5  10
ENDBRANCH   2   5
BRANCH   4  13
HETATM   13  C           1     -35.680   0.629 -14.384  0.00  0.00     0.283 C 
BRANCH  13  14
HETATM   14  N           1     -34.219   0.680 -14.721  0.00  0.00    -0.066 N 
HETATM   15  H           1     -33.662   0.311 -13.916  0.00  0.00     0.275 HD
HETATM   16  H           1     -34.035   0.094 -15.567  0.00  0.00     0.275 HD
HETATM   17  H           1     -33.939   1.669 -14.912  0.00  0.00     0.275 HD
ENDBRANCH  13  14
BRANCH  13  18
HETATM   18  C           1     -36.495   0.583 -15.670  0.00  0.00     0.113 C 
BRANCH  18  19
HETATM   19  S           1     -36.033  -0.886 -16.630  0.00  0.00    -0.180 SA
HETATM   20  H           1     -34.732  -0.873 -16.291  0.00  0.00     0.101 HD
ENDBRANCH  18  19
ENDBRANCH  13  18
ENDBRANCH   4  13
TORSDOF 8
ENDMDL
MODEL 3
REMARK VINA RESULT:      -5.0      3.144      4.932
REMARK  8 active torsions:
REMARK  status: ('A' for Active; 'I' for Inactive)
REMARK    1  A    between atoms: C_1  and  C_13 
REMARK    2  A    between atoms: C_1  and  C_3 
REMARK    3  A    between atoms: C_3  and  C_4 
REMARK    4  A    between atoms: C_3  and  N_9 
REMARK    5  A    between atoms: N_6  and  C_14 
REMARK       I    between atoms: N_9  and  C_19 
REMARK    6  A    between atoms: C_14  and  C_19 
REMARK    7  A    between atoms: C_14  and  C_15 
REMARK    8  A    between atoms: C_15  and  S_16 
ROOT
HETATM    1  O           1     -34.602  -3.288 -13.454  0.00  0.00    -0.271 OA
HETATM    2  N           1     -34.758  -1.426 -12.229  0.00  0.00    -0.344 N 
HETATM    3  H           1     -34.468  -0.916 -11.405  0.00  0.00     0.163 HD
HETATM    4  C           1     -34.257  -2.678 -12.470  0.00  0.00     0.249 C 
ENDROOT
BRANCH   2   5
HETATM    5  C           1     -35.703  -0.834 -13.155  0.00  0.00     0.189 C 
BRANCH   5   6
HETATM    6  C           1     -36.769  -0.075 -12.375  0.00  0.00     0.014 C 
HETATM    7  C           1     -38.072  -0.079 -13.163  0.00  0.00     0.012 C 
BRANCH   6   8
HETATM    8  C           1     -36.989  -0.752 -11.028  0.00  0.00     0.002 C 
HETATM    9  C           1     -37.998   0.048 -10.215  0.00  0.00     0.005 C 
ENDBRANCH   6   8
ENDBRANCH   5   6
BRANCH   5  10
HETATM   10  C           1     -34.977   0.119 -14.073  0.00  0.00     0.197 C 
HETATM   11  O           1     -34.870  -0.144 -15.290  0.00  0.00    -0.646 OA
HETATM   12  O           1     -34.483   1.173 -13.615  0.00  0.00    -0.646 OA
ENDBRANCH   5  10
ENDBRANCH   2   5
BRANCH   4  13
HETATM   13  C           1     -33.273  -3.295 -11.507  0.00  0.00     0.283 C 
BRANCH  13  14
HETATM   14  N           1     -33.795  -3.161 -10.107  0.00  0.00    -0.066 N 
HETATM   15  H           1     -33.656  -2.180  -9.774  0.00  0.00     0.275 HD
HETATM   16  H           1     -34.815  -3.391 -10.092  0.00  0.00     0.275 HD
HETATM   17  H           1     -33.280  -3.818  -9.478  0.00  0.00     0.275 HD
ENDBRANCH  13  14
BRANCH  13  18
HETATM   18  C           1     -33.091  -4.769 -11.841  0.00  0.00     0.113 C 
BRANCH  18  19
HETATM   19  S           1     -34.339  -5.750 -10.961  0.00  0.00    -0.180 SA
HETATM   20  H           1     -35.396  -5.018 -11.353  0.00  0.00     0.101 HD
ENDBRANCH  18  19
ENDBRANCH  13  18
ENDBRANCH   4  13
TORSDOF 8
ENDMDL
MODEL 4
REMARK VINA RESULT:      -4.8     15.866     17.463
REMARK  8 active torsions:
REMARK  status: ('A' for Active; 'I' for Inactive)
REMARK    1  A    between atoms: C_1  and  C_13 
REMARK    2  A    between atoms: C_1  and  C_3 
REMARK    3  A    between atoms: C_3  and  C_4 
REMARK    4  A    between atoms: C_3  and  N_9 
REMARK    5  A    between atoms: N_6  and  C_14 
REMARK       I    between atoms: N_9  and  C_19 
REMARK    6  A    between atoms: C_14  and  C_19 
REMARK    7  A    between atoms: C_14  and  C_15 
REMARK    8  A    between atoms: C_15  and  S_16 
ROOT
HETATM    1  O           1     -19.869  -5.061  -6.118  0.00  0.00    -0.271 OA
HETATM    2  N           1     -21.537  -6.420  -5.515  0.00  0.00    -0.344 N 
HETATM    3  H           1     -22.515  -6.665  -5.597  0.00  0.00     0.163 HD
HETATM    4  C           1     -21.037  -5.355  -6.215  0.00  0.00     0.249 C 
ENDROOT
BRANCH   2   5
HETATM    5  C           1     -20.664  -7.197  -4.657  0.00  0.00     0.189 C 
BRANCH   5   6
HETATM    6  C           1     -21.402  -7.552  -3.372  0.00  0.00     0.014 C 
HETATM    7  C           1     -20.452  -8.274  -2.426  0.00  0.00     0.012 C 
BRANCH   6   8
HETATM    8  C           1     -21.908  -6.278  -2.710  0.00  0.00     0.002 C 
HETATM    9  C           1     -22.286  -6.572  -1.264  0.00  0.00     0.005 C 
ENDBRANCH   6   8
ENDBRANCH   5   6
BRANCH   5  10
HETATM   10  C           1     -20.255  -8.463  -5.370  0.00  0.00     0.197 C 
HETATM   11  O           1     -21.118  -9.313  -5.678  0.00  0.00    -0.646 OA
HETATM   12  O           1     -19.054  -8.660  -5.653  0.00  0.00    -0.646 OA
ENDBRANCH   5  10
ENDBRANCH   2   5
BRANCH   4  13
HETATM   13  C           1     -21.945  -4.546  -7.109  0.00  0.00     0.283 C 
BRANCH  13  14
HETATM   14  N           1     -21.578  -3.095  -7.011  0.00  0.00    -0.066 N 
HETATM   15  H           1     -21.180  -2.773  -7.922  0.00  0.00     0.275 HD
HETATM   16  H           1     -22.432  -2.535  -6.787  0.00  0.00     0.275 HD
HETATM   17  H           1     -20.867  -2.966  -6.256  0.00  0.00     0.275 HD
ENDBRANCH  13  14
BRANCH  13  18
HETATM   18  C           1     -21.786  -5.012  -8.550  0.00  0.00     0.113 C 
BRANCH  18  19
HETATM   19  S           1     -23.015  -4.181  -9.597  0.00  0.00    -0.180 SA
HETATM   20  H           1     -22.153  -3.814 -10.560  0.00  0.00     0.101 HD
ENDBRANCH  18  19
ENDBRANCH  13  18
ENDBRANCH   4  13
TORSDOF 8
ENDMDL
MODEL 5
REMARK VINA RESULT:      -4.7     14.423     16.608
REMARK  8 active torsions:
REMARK  status: ('A' for Active; 'I' for Inactive)
REMARK    1  A    between atoms: C_1  and  C_13 
REMARK    2  A    between atoms: C_1  and  C_3 
REMARK    3  A    between atoms: C_3  and  C_4 
REMARK    4  A    between atoms: C_3  and  N_9 
REMARK    5  A    between atoms: N_6  and  C_14 
REMARK       I    between atoms: N_9  and  C_19 
REMARK    6  A    between atoms: C_14  and  C_19 
REMARK    7  A    between atoms: C_14  and  C_15 
REMARK    8  A    between atoms: C_15  and  S_16 
ROOT
HETATM    1  O           1     -20.701  -6.838  -7.078  0.00  0.00    -0.271 OA
HETATM    2  N           1     -21.767  -4.882  -7.254  0.00  0.00    -0.344 N 
HETATM    3  H           1     -22.266  -4.133  -6.791  0.00  0.00     0.163 HD
HETATM    4  C           1     -21.297  -5.942  -6.526  0.00  0.00     0.249 C 
ENDROOT
BRANCH   2   5
HETATM    5  C           1     -21.551  -4.834  -8.686  0.00  0.00     0.189 C 
BRANCH   5   6
HETATM    6  C           1     -22.479  -3.796  -9.305  0.00  0.00     0.014 C 
HETATM    7  C           1     -22.424  -3.907 -10.822  0.00  0.00     0.012 C 
BRANCH   6   8
HETATM    8  C           1     -23.904  -4.044  -8.828  0.00  0.00     0.002 C 
HETATM    9  C           1     -24.882  -3.332  -9.754  0.00  0.00     0.005 C 
ENDBRANCH   6   8
ENDBRANCH   5   6
BRANCH   5  10
HETATM   10  C           1     -20.116  -4.455  -8.965  0.00  0.00     0.197 C 
HETATM   11  O           1     -19.521  -3.661  -8.205  0.00  0.00    -0.646 OA
HETATM   12  O           1     -19.524  -4.937  -9.955  0.00  0.00    -0.646 OA
ENDBRANCH   5  10
ENDBRANCH   2   5
BRANCH   4  13
HETATM   13  C           1     -21.521  -5.993  -5.035  0.00  0.00     0.283 C 
BRANCH  13  14
HETATM   14  N           1     -22.985  -6.171  -4.757  0.00  0.00    -0.066 N 
HETATM   15  H           1     -23.301  -7.097  -5.126  0.00  0.00     0.275 HD
HETATM   16  H           1     -23.151  -6.134  -3.726  0.00  0.00     0.275 HD
HETATM   17  H           1     -23.524  -5.408  -5.226  0.00  0.00     0.275 HD
ENDBRANCH  13  14
BRANCH  13  18
HETATM   18  C           1     -20.748  -7.164  -4.444  0.00  0.00     0.113 C 
BRANCH  18  19
HETATM   19  S           1     -21.203  -7.375  -2.700  0.00  0.00    -0.180 SA
HETATM   20  H           1     -20.851  -8.670  -2.618  0.00  0.00     0.101 HD
ENDBRANCH  18  19
ENDBRANCH  13  18
ENDBRANCH   4  13
TORSDOF 8
ENDMDL
MODEL 6
REMARK VINA RESULT:      -4.6     15.997     17.804
REMARK  8 active torsions:
REMARK  status: ('A' for Active; 'I' for Inactive)
REMARK    1  A    between atoms: C_1  and  C_13 
REMARK    2  A    between atoms: C_1  and  C_3 
REMARK    3  A    between atoms: C_3  and  C_4 
REMARK    4  A    between atoms: C_3  and  N_9 
REMARK    5  A    between atoms: N_6  and  C_14 
REMARK       I    between atoms: N_9  and  C_19 
REMARK    6  A    between atoms: C_14  and  C_19 
REMARK    7  A    between atoms: C_14  and  C_15 
REMARK    8  A    between atoms: C_15  and  S_16 
ROOT
HETATM    1  O           1     -22.671  -5.916  -5.469  0.00  0.00    -0.271 OA
HETATM    2  N           1     -20.810  -6.771  -4.577  0.00  0.00    -0.344 N 
HETATM    3  H           1     -19.799  -6.805  -4.572  0.00  0.00     0.163 HD
HETATM    4  C           1     -21.463  -5.956  -5.462  0.00  0.00     0.249 C 
ENDROOT
BRANCH   2   5
HETATM    5  C           1     -21.568  -7.585  -3.647  0.00  0.00     0.189 C 
BRANCH   5   6
HETATM    6  C           1     -20.906  -8.951  -3.513  0.00  0.00     0.014 C 
HETATM    7  C           1     -21.801 -10.011  -4.141  0.00  0.00     0.012 C 
BRANCH   6   8
HETATM    8  C           1     -19.561  -8.934  -4.227  0.00  0.00     0.002 C 
HETATM    9  C           1     -18.467  -9.369  -3.261  0.00  0.00     0.005 C 
ENDBRANCH   6   8
ENDBRANCH   5   6
BRANCH   5  10
HETATM   10  C           1     -21.602  -6.908  -2.298  0.00  0.00     0.197 C 
HETATM   11  O           1     -22.269  -5.862  -2.141  0.00  0.00    -0.646 OA
HETATM   12  O           1     -20.965  -7.394  -1.339  0.00  0.00    -0.646 OA
ENDBRANCH   5  10
ENDBRANCH   2   5
BRANCH   4  13
HETATM   13  C           1     -20.675  -5.108  -6.430  0.00  0.00     0.283 C 
BRANCH  13  14
HETATM   14  N           1     -20.045  -5.991  -7.467  0.00  0.00    -0.066 N 
HETATM   15  H           1     -19.849  -5.432  -8.328  0.00  0.00     0.275 HD
HETATM   16  H           1     -19.150  -6.381  -7.095  0.00  0.00     0.275 HD
HETATM   17  H           1     -20.697  -6.773  -7.702  0.00  0.00     0.275 HD
ENDBRANCH  13  14
BRANCH  13  18
HETATM   18  C           1     -21.606  -4.113  -7.109  0.00  0.00     0.113 C 
BRANCH  18  19
HETATM   19  S           1     -21.665  -4.454  -8.891  0.00  0.00    -0.180 SA
HETATM   20  H           1     -20.341  -4.339  -9.099  0.00  0.00     0.101 HD
ENDBRANCH  18  19
ENDBRANCH  13  18
ENDBRANCH   4  13
TORSDOF 8
ENDMDL
MODEL 7
REMARK VINA RESULT:      -4.5     17.992     19.685
REMARK  8 active torsions:
REMARK  status: ('A' for Active; 'I' for Inactive)
REMARK    1  A    between atoms: C_1  and  C_13 
REMARK    2  A    between atoms: C_1  and  C_3 
REMARK    3  A    between atoms: C_3  and  C_4 
REMARK    4  A    between atoms: C_3  and  N_9 
REMARK    5  A    between atoms: N_6  and  C_14 
REMARK       I    between atoms: N_9  and  C_19 
REMARK    6  A    between atoms: C_14  and  C_19 
REMARK    7  A    between atoms: C_14  and  C_15 
REMARK    8  A    between atoms: C_15  and  S_16 
ROOT
HETATM    1  O           1     -20.858  -6.967  -2.163  0.00  0.00    -0.271 OA
HETATM    2  N           1     -21.569  -9.085  -2.180  0.00  0.00    -0.344 N 
HETATM    3  H           1     -21.987  -9.844  -2.702  0.00  0.00     0.163 HD
HETATM    4  C           1     -21.357  -7.875  -2.786  0.00  0.00     0.249 C 
ENDROOT
BRANCH   2   5
HETATM    5  C           1     -21.194  -9.277  -0.793  0.00  0.00     0.189 C 
BRANCH   5   6
HETATM    6  C           1     -22.443  -9.546   0.037  0.00  0.00     0.014 C 
HETATM    7  C           1     -23.108  -8.224   0.396  0.00  0.00     0.012 C 
BRANCH   6   8
HETATM    8  C           1     -23.413 -10.399  -0.770  0.00  0.00     0.002 C 
HETATM    9  C           1     -23.785 -11.641   0.030  0.00  0.00     0.005 C 
ENDBRANCH   6   8
ENDBRANCH   5   6
BRANCH   5  10
HETATM   10  C           1     -20.254 -10.452  -0.685  0.00  0.00     0.197 C 
HETATM   11  O           1     -20.122 -11.048   0.406  0.00  0.00    -0.646 OA
HETATM   12  O           1     -19.609 -10.832  -1.686  0.00  0.00    -0.646 OA
ENDBRANCH   5  10
ENDBRANCH   2   5
BRANCH   4  13
HETATM   13  C           1     -21.746  -7.675  -4.230  0.00  0.00     0.283 C 
BRANCH  13  14
HETATM   14  N           1     -22.350  -6.312  -4.398  0.00  0.00    -0.066 N 
HETATM   15  H           1     -21.984  -5.873  -5.274  0.00  0.00     0.275 HD
HETATM   16  H           1     -23.390  -6.397  -4.462  0.00  0.00     0.275 HD
HETATM   17  H           1     -22.097  -5.714  -3.579  0.00  0.00     0.275 HD
ENDBRANCH  13  14
BRANCH  13  18
HETATM   18  C           1     -20.510  -7.794  -5.110  0.00  0.00     0.113 C 
BRANCH  18  19
HETATM   19  S           1     -20.328  -6.289  -6.109  0.00  0.00    -0.180 SA
HETATM   20  H           1     -19.159  -6.637  -6.675  0.00  0.00     0.101 HD
ENDBRANCH  18  19
ENDBRANCH  13  18
ENDBRANCH   4  13
TORSDOF 8
ENDMDL
MODEL 8
REMARK VINA RESULT:      -4.4     25.108     26.054
REMARK  8 active torsions:
REMARK  status: ('A' for Active; 'I' for Inactive)
REMARK    1  A    between atoms: C_1  and  C_13 
REMARK    2  A    between atoms: C_1  and  C_3 
REMARK    3  A    between atoms: C_3  and  C_4 
REMARK    4  A    between atoms: C_3  and  N_9 
REMARK    5  A    between atoms: N_6  and  C_14 
REMARK       I    between atoms: N_9  and  C_19 
REMARK    6  A    between atoms: C_14  and  C_19 
REMARK    7  A    between atoms: C_14  and  C_15 
REMARK    8  A    between atoms: C_15  and  S_16 
ROOT
HETATM    1  O           1     -14.442   5.507 -19.636  0.00  0.00    -0.271 OA
HETATM    2  N           1     -12.800   6.325 -20.911  0.00  0.00    -0.344 N 
HETATM    3  H           1     -12.401   6.423 -21.836  0.00  0.00     0.163 HD
HETATM    4  C           1     -13.965   5.625 -20.740  0.00  0.00     0.249 C 
ENDROOT
BRANCH   2   5
HETATM    5  C           1     -12.140   6.923 -19.769  0.00  0.00     0.189 C 
BRANCH   5   6
HETATM    6  C           1     -10.637   6.698 -19.876  0.00  0.00     0.014 C 
HETATM    7  C           1     -10.333   5.216 -19.708  0.00  0.00     0.012 C 
BRANCH   6   8
HETATM    8  C           1     -10.152   7.165 -21.242  0.00  0.00     0.002 C 
HETATM    9  C           1      -9.154   8.302 -21.067  0.00  0.00     0.005 C 
ENDBRANCH   6   8
ENDBRANCH   5   6
BRANCH   5  10
HETATM   10  C           1     -12.427   8.405 -19.742  0.00  0.00     0.197 C 
HETATM   11  O           1     -12.076   9.091 -18.758  0.00  0.00    -0.646 OA
HETATM   12  O           1     -13.013   8.945 -20.704  0.00  0.00    -0.646 OA
ENDBRANCH   5  10
ENDBRANCH   2   5
BRANCH   4  13
HETATM   13  C           1     -14.653   5.002 -21.930  0.00  0.00     0.283 C 
BRANCH  13  14
HETATM   14  N           1     -15.045   6.078 -22.898  0.00  0.00    -0.066 N 
HETATM   15  H           1     -14.199   6.408 -23.415  0.00  0.00     0.275 HD
HETATM   16  H           1     -15.740   5.696 -23.580  0.00  0.00     0.275 HD
HETATM   17  H           1     -15.469   6.879 -22.378  0.00  0.00     0.275 HD
ENDBRANCH  13  14
BRANCH  13  18
HETATM   18  C           1     -13.704   4.026 -22.612  0.00  0.00     0.113 C 
BRANCH  18  19
HETATM   19  S           1     -13.225   2.724 -21.441  0.00  0.00    -0.180 SA
HETATM   20  H           1     -13.499   3.429 -20.329  0.00  0.00     0.101 HD
ENDBRANCH  18  19
ENDBRANCH  13  18
ENDBRANCH   4  13
TORSDOF 8
ENDMDL
MODEL 9
REMARK VINA RESULT:      -4.4     17.863     19.487
REMARK  8 active torsions:
REMARK  status: ('A' for Active; 'I' for Inactive)
REMARK    1  A    between atoms: C_1  and  C_13 
REMARK    2  A    between atoms: C_1  and  C_3 
REMARK    3  A    between atoms: C_3  and  C_4 
REMARK    4  A    between atoms: C_3  and  N_9 
REMARK    5  A    between atoms: N_6  and  C_14 
REMARK       I    between atoms: N_9  and  C_19 
REMARK    6  A    between atoms: C_14  and  C_19 
REMARK    7  A    between atoms: C_14  and  C_15 
REMARK    8  A    between atoms: C_15  and  S_16 
ROOT
HETATM    1  O           1     -21.327  -9.881  -5.012  0.00  0.00    -0.271 OA
HETATM    2  N           1     -20.123  -8.211  -4.144  0.00  0.00    -0.344 N 
HETATM    3  H           1     -19.209  -7.807  -3.983  0.00  0.00     0.163 HD
HETATM    4  C           1     -20.236  -9.397  -4.820  0.00  0.00     0.249 C 
ENDROOT
BRANCH   2   5
HETATM    5  C           1     -21.311  -7.537  -3.660  0.00  0.00     0.189 C 
BRANCH   5   6
HETATM    6  C           1     -21.068  -7.039  -2.240  0.00  0.00     0.014 C 
HETATM    7  C           1     -22.294  -6.277  -1.754  0.00  0.00     0.012 C 
BRANCH   6   8
HETATM    8  C           1     -20.814  -8.228  -1.324  0.00  0.00     0.002 C 
HETATM    9  C           1     -21.637  -8.076  -0.051  0.00  0.00     0.005 C 
ENDBRANCH   6   8
ENDBRANCH   5   6
BRANCH   5  10
HETATM   10  C           1     -21.624  -6.365  -4.557  0.00  0.00     0.197 C 
HETATM   11  O           1     -22.773  -6.231  -5.032  0.00  0.00    -0.646 OA
HETATM   12  O           1     -20.736  -5.527  -4.825  0.00  0.00    -0.646 OA
ENDBRANCH   5  10
ENDBRANCH   2   5
BRANCH   4  13
HETATM   13  C           1     -18.999 -10.099  -5.324  0.00  0.00     0.283 C 
BRANCH  13  14
HETATM   14  N           1     -18.281  -9.208  -6.293  0.00  0.00    -0.066 N 
HETATM   15  H           1     -17.541  -9.756  -6.789  0.00  0.00     0.275 HD
HETATM   16  H           1     -18.962  -8.834  -6.993  0.00  0.00     0.275 HD
HETATM   17  H           1     -17.838  -8.415  -5.777  0.00  0.00     0.275 HD
ENDBRANCH  13  14
BRANCH  13  18
HETATM   18  C           1     -18.082 -10.418  -4.152  0.00  0.00     0.113 C 
BRANCH  18  19
HETATM   19  S           1     -16.363 -10.056  -4.611  0.00  0.00    -0.180 SA
HETATM   20  H           1     -16.181  -9.073  -3.712  0.00  0.00     0.101 HD
ENDBRANCH  18  19
ENDBRANCH  13  18
ENDBRANCH   4  13
TORSDOF 8
ENDMDL
