MODEL 1
REMARK VINA RESULT:      -5.8      0.000      0.000
REMARK  11 active torsions:
REMARK  status: ('A' for Active; 'I' for Inactive)
REMARK    1  A    between atoms: C_4  and  C_23 
REMARK    2  A    between atoms: C_5  and  C_6 
REMARK    3  A    between atoms: C_5  and  S_10 
REMARK    4  A    between atoms: C_6  and  C_16 
REMARK    5  A    between atoms: C_6  and  N_11 
REMARK       I    between atoms: C_16  and  N_17 
REMARK    6  A    between atoms: N_17  and  C_23 
REMARK    7  A    between atoms: C_19  and  C_20 
REMARK    8  A    between atoms: C_19  and  C_24 
REMARK    9  A    between atoms: C_20  and  C_21 
REMARK   10  A    between atoms: C_21  and  N_22 
REMARK   11  A    between atoms: C_23  and  C_24 
ROOT
HETATM    1  H           1     -27.384  -7.004 -18.647  0.00  0.00     0.163 HD
HETATM    2  O           1     -24.296  -6.459 -18.564  0.00  0.00    -0.271 OA
HETATM    3  C           1     -25.349  -6.867 -18.995  0.00  0.00     0.249 C 
HETATM    4  N           1     -26.503  -6.664 -18.286  0.00  0.00    -0.345 N 
ENDROOT
BRANCH   4   5
HETATM    5  C           1     -26.462  -5.960 -17.019  0.00  0.00     0.185 C 
BRANCH   5   6
HETATM    6  C           1     -26.407  -6.959 -15.891  0.00  0.00     0.196 C 
HETATM    7  O           1     -25.303  -7.362 -15.465  0.00  0.00    -0.646 OA
HETATM    8  O           1     -27.466  -7.385 -15.381  0.00  0.00    -0.646 OA
ENDBRANCH   5   6
BRANCH   5   9
HETATM    9  C           1     -27.710  -5.099 -16.878  0.00  0.00     0.036 C 
BRANCH   9  10
HETATM   10  C           1     -28.634  -5.345 -18.064  0.00  0.00     0.004 C 
BRANCH  10  11
HETATM   11  C           1     -29.959  -5.908 -17.568  0.00  0.00     0.027 C 
BRANCH  11  12
HETATM   12  C           1     -30.192  -7.280 -18.187  0.00  0.00     0.229 C 
BRANCH  12  13
HETATM   13  N           1     -29.434  -8.315 -17.409  0.00  0.00    -0.079 N 
HETATM   14  H           1     -28.431  -8.030 -17.334  0.00  0.00     0.274 HD
HETATM   15  H           1     -29.844  -8.400 -16.451  0.00  0.00     0.274 HD
HETATM   16  H           1     -29.499  -9.236 -17.899  0.00  0.00     0.274 HD
ENDBRANCH  12  13
ENDBRANCH  11  12
ENDBRANCH  10  11
ENDBRANCH   9  10
ENDBRANCH   5   9
ENDBRANCH   4   5
BRANCH   3  17
HETATM   17  C           1     -25.391  -7.600 -20.313  0.00  0.00     0.283 C 
BRANCH  17  18
HETATM   18  C           1     -24.778  -6.727 -21.399  0.00  0.00     0.113 C 
BRANCH  18  19
HETATM   19  S           1     -23.851  -7.767 -22.561  0.00  0.00    -0.180 SA
HETATM   20  H           1     -24.233  -8.944 -22.032  0.00  0.00     0.101 HD
ENDBRANCH  18  19
ENDBRANCH  17  18
BRANCH  17  21
HETATM   21  N           1     -26.817  -7.910 -20.666  0.00  0.00    -0.066 N 
HETATM   22  H           1     -26.840  -8.531 -21.506  0.00  0.00     0.275 HD
HETATM   23  H           1     -27.277  -8.393 -19.862  0.00  0.00     0.275 HD
HETATM   24  H           1     -27.324  -7.021 -20.877  0.00  0.00     0.275 HD
ENDBRANCH  17  21
ENDBRANCH   3  17
TORSDOF 11
ENDMDL
MODEL 2
REMARK VINA RESULT:      -5.3      2.436      3.055
REMARK  11 active torsions:
REMARK  status: ('A' for Active; 'I' for Inactive)
REMARK    1  A    between atoms: C_4  and  C_23 
REMARK    2  A    between atoms: C_5  and  C_6 
REMARK    3  A    between atoms: C_5  and  S_10 
REMARK    4  A    between atoms: C_6  and  C_16 
REMARK    5  A    between atoms: C_6  and  N_11 
REMARK       I    between atoms: C_16  and  N_17 
REMARK    6  A    between atoms: N_17  and  C_23 
REMARK    7  A    between atoms: C_19  and  C_20 
REMARK    8  A    between atoms: C_19  and  C_24 
REMARK    9  A    between atoms: C_20  and  C_21 
REMARK   10  A    between atoms: C_21  and  N_22 
REMARK   11  A    between atoms: C_23  and  C_24 
ROOT
HETATM    1  H           1     -27.822  -6.845 -19.870  0.00  0.00     0.163 HD
HETATM    2  O           1     -26.078  -6.179 -17.349  0.00  0.00    -0.271 OA
HETATM    3  C           1     -26.320  -6.483 -18.493  0.00  0.00     0.249 C 
HETATM    4  N           1     -27.620  -6.591 -18.912  0.00  0.00    -0.345 N 
ENDROOT
BRANCH   4   5
HETATM    5  C           1     -28.705  -6.342 -17.983  0.00  0.00     0.185 C 
BRANCH   5   6
HETATM    6  C           1     -29.600  -7.555 -17.919  0.00  0.00     0.196 C 
HETATM    7  O           1     -30.508  -7.707 -18.764  0.00  0.00    -0.646 OA
HETATM    8  O           1     -29.434  -8.407 -17.020  0.00  0.00    -0.646 OA
ENDBRANCH   5   6
BRANCH   5   9
HETATM    9  C           1     -29.510  -5.139 -18.456  0.00  0.00     0.036 C 
BRANCH   9  10
HETATM   10  C           1     -29.694  -4.165 -17.300  0.00  0.00     0.004 C 
BRANCH  10  11
HETATM   11  C           1     -30.738  -4.712 -16.335  0.00  0.00     0.027 C 
BRANCH  11  12
HETATM   12  C           1     -32.127  -4.540 -16.938  0.00  0.00     0.229 C 
BRANCH  12  13
HETATM   13  N           1     -32.268  -3.149 -17.481  0.00  0.00    -0.079 N 
HETATM   14  H           1     -32.697  -3.188 -18.432  0.00  0.00     0.274 HD
HETATM   15  H           1     -32.880  -2.588 -16.846  0.00  0.00     0.274 HD
HETATM   16  H           1     -31.325  -2.702 -17.541  0.00  0.00     0.274 HD
ENDBRANCH  12  13
ENDBRANCH  11  12
ENDBRANCH  10  11
ENDBRANCH   9  10
ENDBRANCH   5   9
ENDBRANCH   4   5
BRANCH   3  17
HETATM   17  C           1     -25.191  -6.742 -19.459  0.00  0.00     0.283 C 
BRANCH  17  18
HETATM   18  C           1     -25.723  -7.493 -20.672  0.00  0.00     0.113 C 
BRANCH  18  19
HETATM   19  S           1     -24.353  -7.872 -21.800  0.00  0.00    -0.180 SA
HETATM   20  H           1     -24.969  -8.887 -22.434  0.00  0.00     0.101 HD
ENDBRANCH  18  19
ENDBRANCH  17  18
BRANCH  17  21
HETATM   21  N           1     -24.136  -7.568 -18.784  0.00  0.00    -0.066 N 
HETATM   22  H           1     -24.512  -8.522 -18.588  0.00  0.00     0.275 HD
HETATM   23  H           1     -23.301  -7.644 -19.407  0.00  0.00     0.275 HD
HETATM   24  H           1     -23.860  -7.112 -17.885  0.00  0.00     0.275 HD
ENDBRANCH  17  21
ENDBRANCH   3  17
TORSDOF 11
ENDMDL
MODEL 3
REMARK VINA RESULT:      -4.9     12.408     14.251
REMARK  11 active torsions:
REMARK  status: ('A' for Active; 'I' for Inactive)
REMARK    1  A    between atoms: C_4  and  C_23 
REMARK    2  A    between atoms: C_5  and  C_6 
REMARK    3  A    between atoms: C_5  and  S_10 
REMARK    4  A    between atoms: C_6  and  C_16 
REMARK    5  A    between atoms: C_6  and  N_11 
REMARK       I    between atoms: C_16  and  N_17 
REMARK    6  A    between atoms: N_17  and  C_23 
REMARK    7  A    between atoms: C_19  and  C_20 
REMARK    8  A    between atoms: C_19  and  C_24 
REMARK    9  A    between atoms: C_20  and  C_21 
REMARK   10  A    between atoms: C_21  and  N_22 
REMARK   11  A    between atoms: C_23  and  C_24 
ROOT
HETATM    1  H           1     -20.718  -4.566  -4.708  0.00  0.00     0.163 HD
HETATM    2  O           1     -21.909  -7.459  -4.936  0.00  0.00    -0.271 OA
HETATM    3  C           1     -21.449  -6.478  -4.403  0.00  0.00     0.249 C 
HETATM    4  N           1     -21.103  -5.387  -5.156  0.00  0.00    -0.345 N 
ENDROOT
BRANCH   4   5
HETATM    5  C           1     -21.289  -5.410  -6.593  0.00  0.00     0.185 C 
BRANCH   5   6
HETATM    6  C           1     -19.964  -5.664  -7.267  0.00  0.00     0.196 C 
HETATM    7  O           1     -19.407  -4.751  -7.915  0.00  0.00    -0.646 OA
HETATM    8  O           1     -19.423  -6.786  -7.179  0.00  0.00    -0.646 OA
ENDBRANCH   5   6
BRANCH   5   9
HETATM    9  C           1     -21.846  -4.069  -7.053  0.00  0.00     0.036 C 
BRANCH   9  10
HETATM   10  C           1     -23.180  -4.287  -7.754  0.00  0.00     0.004 C 
BRANCH  10  11
HETATM   11  C           1     -22.955  -4.386  -9.257  0.00  0.00     0.027 C 
BRANCH  11  12
HETATM   12  C           1     -23.942  -3.480  -9.980  0.00  0.00     0.229 C 
BRANCH  12  13
HETATM   13  N           1     -25.343  -3.896  -9.642  0.00  0.00    -0.079 N 
HETATM   14  H           1     -25.508  -3.768  -8.618  0.00  0.00     0.274 HD
HETATM   15  H           1     -26.020  -3.307 -10.179  0.00  0.00     0.274 HD
HETATM   16  H           1     -25.478  -4.901  -9.893  0.00  0.00     0.274 HD
ENDBRANCH  12  13
ENDBRANCH  11  12
ENDBRANCH  10  11
ENDBRANCH   9  10
ENDBRANCH   5   9
ENDBRANCH   4   5
BRANCH   3  17
HETATM   17  C           1     -21.255  -6.454  -2.906  0.00  0.00     0.283 C 
BRANCH  17  18
HETATM   18  C           1     -21.017  -7.871  -2.402  0.00  0.00     0.113 C 
BRANCH  18  19
HETATM   19  S           1     -21.939  -8.129  -0.861  0.00  0.00    -0.180 SA
HETATM   20  H           1     -21.336  -9.285  -0.528  0.00  0.00     0.101 HD
ENDBRANCH  18  19
ENDBRANCH  17  18
BRANCH  17  21
HETATM   21  N           1     -22.482  -5.890  -2.253  0.00  0.00    -0.066 N 
HETATM   22  H           1     -23.099  -6.673  -1.937  0.00  0.00     0.275 HD
HETATM   23  H           1     -22.204  -5.312  -1.429  0.00  0.00     0.275 HD
HETATM   24  H           1     -22.999  -5.296  -2.939  0.00  0.00     0.275 HD
ENDBRANCH  17  21
ENDBRANCH   3  17
TORSDOF 11
ENDMDL
MODEL 4
REMARK VINA RESULT:      -4.7     12.776     14.494
REMARK  11 active torsions:
REMARK  status: ('A' for Active; 'I' for Inactive)
REMARK    1  A    between atoms: C_4  and  C_23 
REMARK    2  A    between atoms: C_5  and  C_6 
REMARK    3  A    between atoms: C_5  and  S_10 
REMARK    4  A    between atoms: C_6  and  C_16 
REMARK    5  A    between atoms: C_6  and  N_11 
REMARK       I    between atoms: C_16  and  N_17 
REMARK    6  A    between atoms: N_17  and  C_23 
REMARK    7  A    between atoms: C_19  and  C_20 
REMARK    8  A    between atoms: C_19  and  C_24 
REMARK    9  A    between atoms: C_20  and  C_21 
REMARK   10  A    between atoms: C_21  and  N_22 
REMARK   11  A    between atoms: C_23  and  C_24 
ROOT
HETATM    1  H           1     -21.783  -7.056  -6.879  0.00  0.00     0.163 HD
HETATM    2  O           1     -20.382  -4.354  -6.122  0.00  0.00    -0.271 OA
HETATM    3  C           1     -20.994  -5.145  -6.800  0.00  0.00     0.249 C 
HETATM    4  N           1     -21.270  -6.394  -6.312  0.00  0.00    -0.345 N 
ENDROOT
BRANCH   4   5
HETATM    5  C           1     -20.826  -6.768  -4.983  0.00  0.00     0.185 C 
BRANCH   5   6
HETATM    6  C           1     -20.363  -8.204  -4.993  0.00  0.00     0.196 C 
HETATM    7  O           1     -19.491  -8.586  -4.183  0.00  0.00    -0.646 OA
HETATM    8  O           1     -20.851  -9.012  -5.812  0.00  0.00    -0.646 OA
ENDBRANCH   5   6
BRANCH   5   9
HETATM    9  C           1     -21.981  -6.613  -4.002  0.00  0.00     0.036 C 
BRANCH   9  10
HETATM   10  C           1     -21.465  -6.008  -2.703  0.00  0.00     0.004 C 
BRANCH  10  11
HETATM   11  C           1     -22.263  -6.565  -1.531  0.00  0.00     0.027 C 
BRANCH  11  12
HETATM   12  C           1     -21.880  -8.021  -1.303  0.00  0.00     0.229 C 
BRANCH  12  13
HETATM   13  N           1     -20.386  -8.148  -1.275  0.00  0.00    -0.079 N 
HETATM   14  H           1     -19.954  -7.205  -1.405  0.00  0.00     0.274 HD
HETATM   15  H           1     -20.088  -8.542  -0.354  0.00  0.00     0.274 HD
HETATM   16  H           1     -20.076  -8.783  -2.044  0.00  0.00     0.274 HD
ENDBRANCH  12  13
ENDBRANCH  11  12
ENDBRANCH  10  11
ENDBRANCH   9  10
ENDBRANCH   5   9
ENDBRANCH   4   5
BRANCH   3  17
HETATM   17  C           1     -21.455  -4.756  -8.183  0.00  0.00     0.283 C 
BRANCH  17  18
HETATM   18  C           1     -20.249  -4.389  -9.036  0.00  0.00     0.113 C 
BRANCH  18  19
HETATM   19  S           1     -20.769  -4.175 -10.761  0.00  0.00    -0.180 SA
HETATM   20  H           1     -22.086  -4.331 -10.532  0.00  0.00     0.101 HD
ENDBRANCH  18  19
ENDBRANCH  17  18
BRANCH  17  21
HETATM   21  N           1     -22.377  -3.576  -8.088  0.00  0.00    -0.066 N 
HETATM   22  H           1     -23.171  -3.804  -7.447  0.00  0.00     0.275 HD
HETATM   23  H           1     -21.853  -2.753  -7.712  0.00  0.00     0.275 HD
HETATM   24  H           1     -22.751  -3.349  -9.036  0.00  0.00     0.275 HD
ENDBRANCH  17  21
ENDBRANCH   3  17
TORSDOF 11
ENDMDL
MODEL 5
REMARK VINA RESULT:      -4.6     11.554     13.444
REMARK  11 active torsions:
REMARK  status: ('A' for Active; 'I' for Inactive)
REMARK    1  A    between atoms: C_4  and  C_23 
REMARK    2  A    between atoms: C_5  and  C_6 
REMARK    3  A    between atoms: C_5  and  S_10 
REMARK    4  A    between atoms: C_6  and  C_16 
REMARK    5  A    between atoms: C_6  and  N_11 
REMARK       I    between atoms: C_16  and  N_17 
REMARK    6  A    between atoms: N_17  and  C_23 
REMARK    7  A    between atoms: C_19  and  C_20 
REMARK    8  A    between atoms: C_19  and  C_24 
REMARK    9  A    between atoms: C_20  and  C_21 
REMARK   10  A    between atoms: C_21  and  N_22 
REMARK   11  A    between atoms: C_23  and  C_24 
ROOT
HETATM    1  H           1     -21.306  -4.670  -5.483  0.00  0.00     0.163 HD
HETATM    2  O           1     -21.192  -7.664  -6.411  0.00  0.00    -0.271 OA
HETATM    3  C           1     -21.211  -6.731  -5.644  0.00  0.00     0.249 C 
HETATM    4  N           1     -21.289  -5.451  -6.126  0.00  0.00    -0.345 N 
ENDROOT
BRANCH   4   5
HETATM    5  C           1     -21.349  -5.216  -7.555  0.00  0.00     0.185 C 
BRANCH   5   6
HETATM    6  C           1     -19.975  -4.855  -8.063  0.00  0.00     0.196 C 
HETATM    7  O           1     -19.744  -4.851  -9.292  0.00  0.00    -0.646 OA
HETATM    8  O           1     -19.068  -4.560  -7.256  0.00  0.00    -0.646 OA
ENDBRANCH   5   6
BRANCH   5   9
HETATM    9  C           1     -22.314  -4.073  -7.840  0.00  0.00     0.036 C 
BRANCH   9  10
HETATM   10  C           1     -23.215  -4.448  -9.009  0.00  0.00     0.004 C 
BRANCH  10  11
HETATM   11  C           1     -22.905  -3.549 -10.199  0.00  0.00     0.027 C 
BRANCH  11  12
HETATM   12  C           1     -22.376  -4.394 -11.350  0.00  0.00     0.229 C 
BRANCH  12  13
HETATM   13  N           1     -21.110  -3.785 -11.878  0.00  0.00    -0.079 N 
HETATM   14  H           1     -21.049  -3.946 -12.908  0.00  0.00     0.274 HD
HETATM   15  H           1     -21.112  -2.757 -11.686  0.00  0.00     0.274 HD
HETATM   16  H           1     -20.289  -4.226 -11.406  0.00  0.00     0.274 HD
ENDBRANCH  12  13
ENDBRANCH  11  12
ENDBRANCH  10  11
ENDBRANCH   9  10
ENDBRANCH   5   9
ENDBRANCH   4   5
BRANCH   3  17
HETATM   17  C           1     -21.148  -6.975  -4.157  0.00  0.00     0.283 C 
BRANCH  17  18
HETATM   18  C           1     -21.424  -8.445  -3.871  0.00  0.00     0.113 C 
BRANCH  18  19
HETATM   19  S           1     -21.361  -8.737  -2.081  0.00  0.00    -0.180 SA
HETATM   20  H           1     -20.118  -8.254  -1.903  0.00  0.00     0.101 HD
ENDBRANCH  18  19
ENDBRANCH  17  18
BRANCH  17  21
HETATM   21  N           1     -22.179  -6.130  -3.468  0.00  0.00    -0.066 N 
HETATM   22  H           1     -22.455  -6.582  -2.567  0.00  0.00     0.275 HD
HETATM   23  H           1     -21.781  -5.184  -3.275  0.00  0.00     0.275 HD
HETATM   24  H           1     -23.019  -6.038  -4.082  0.00  0.00     0.275 HD
ENDBRANCH  17  21
ENDBRANCH   3  17
TORSDOF 11
ENDMDL
MODEL 6
REMARK VINA RESULT:      -4.5     12.691     14.420
REMARK  11 active torsions:
REMARK  status: ('A' for Active; 'I' for Inactive)
REMARK    1  A    between atoms: C_4  and  C_23 
REMARK    2  A    between atoms: C_5  and  C_6 
REMARK    3  A    between atoms: C_5  and  S_10 
REMARK    4  A    between atoms: C_6  and  C_16 
REMARK    5  A    between atoms: C_6  and  N_11 
REMARK       I    between atoms: C_16  and  N_17 
REMARK    6  A    between atoms: N_17  and  C_23 
REMARK    7  A    between atoms: C_19  and  C_20 
REMARK    8  A    between atoms: C_19  and  C_24 
REMARK    9  A    between atoms: C_20  and  C_21 
REMARK   10  A    between atoms: C_21  and  N_22 
REMARK   11  A    between atoms: C_23  and  C_24 
ROOT
HETATM    1  H           1     -21.473  -8.541  -6.361  0.00  0.00     0.163 HD
HETATM    2  O           1     -19.210  -8.636  -4.191  0.00  0.00    -0.271 OA
HETATM    3  C           1     -20.012  -9.058  -4.990  0.00  0.00     0.249 C 
HETATM    4  N           1     -20.803  -8.188  -5.691  0.00  0.00    -0.345 N 
ENDROOT
BRANCH   4   5
HETATM    5  C           1     -20.679  -6.759  -5.474  0.00  0.00     0.185 C 
BRANCH   5   6
HETATM    6  C           1     -21.818  -6.282  -4.609  0.00  0.00     0.196 C 
HETATM    7  O           1     -22.975  -6.215  -5.079  0.00  0.00    -0.646 OA
HETATM    8  O           1     -21.607  -5.954  -3.422  0.00  0.00    -0.646 OA
ENDBRANCH   5   6
BRANCH   5   9
HETATM    9  C           1     -20.720  -6.039  -6.815  0.00  0.00     0.036 C 
BRANCH   9  10
HETATM   10  C           1     -20.290  -4.590  -6.626  0.00  0.00     0.004 C 
BRANCH  10  11
HETATM   11  C           1     -21.355  -3.664  -7.200  0.00  0.00     0.027 C 
BRANCH  11  12
HETATM   12  C           1     -22.260  -4.451  -8.139  0.00  0.00     0.229 C 
BRANCH  12  13
HETATM   13  N           1     -23.690  -4.078  -7.885  0.00  0.00    -0.079 N 
HETATM   14  H           1     -23.769  -3.614  -6.952  0.00  0.00     0.274 HD
HETATM   15  H           1     -24.016  -3.421  -8.629  0.00  0.00     0.274 HD
HETATM   16  H           1     -24.281  -4.939  -7.896  0.00  0.00     0.274 HD
ENDBRANCH  12  13
ENDBRANCH  11  12
ENDBRANCH  10  11
ENDBRANCH   9  10
ENDBRANCH   5   9
ENDBRANCH   4   5
BRANCH   3  17
HETATM   17  C           1     -20.141 -10.545  -5.215  0.00  0.00     0.283 C 
BRANCH  17  18
HETATM   18  C           1     -18.778 -11.126  -5.565  0.00  0.00     0.113 C 
BRANCH  18  19
HETATM   19  S           1     -18.200 -12.177  -4.204  0.00  0.00    -0.180 SA
HETATM   20  H           1     -18.733 -11.435  -3.216  0.00  0.00     0.101 HD
ENDBRANCH  18  19
ENDBRANCH  17  18
BRANCH  17  21
HETATM   21  N           1     -21.097 -10.797  -6.345  0.00  0.00    -0.066 N 
HETATM   22  H           1     -21.976 -10.255  -6.185  0.00  0.00     0.275 HD
HETATM   23  H           1     -20.660 -10.495  -7.244  0.00  0.00     0.275 HD
HETATM   24  H           1     -21.321 -11.816  -6.389  0.00  0.00     0.275 HD
ENDBRANCH  17  21
ENDBRANCH   3  17
TORSDOF 11
ENDMDL
MODEL 7
REMARK VINA RESULT:      -4.2     14.765     16.503
REMARK  11 active torsions:
REMARK  status: ('A' for Active; 'I' for Inactive)
REMARK    1  A    between atoms: C_4  and  C_23 
REMARK    2  A    between atoms: C_5  and  C_6 
REMARK    3  A    between atoms: C_5  and  S_10 
REMARK    4  A    between atoms: C_6  and  C_16 
REMARK    5  A    between atoms: C_6  and  N_11 
REMARK       I    between atoms: C_16  and  N_17 
REMARK    6  A    between atoms: N_17  and  C_23 
REMARK    7  A    between atoms: C_19  and  C_20 
REMARK    8  A    between atoms: C_19  and  C_24 
REMARK    9  A    between atoms: C_20  and  C_21 
REMARK   10  A    between atoms: C_21  and  N_22 
REMARK   11  A    between atoms: C_23  and  C_24 
ROOT
HETATM    1  H           1     -19.575  -7.191  -4.293  0.00  0.00     0.163 HD
HETATM    2  O           1     -21.318  -9.785  -4.020  0.00  0.00    -0.271 OA
HETATM    3  C           1     -20.332  -9.116  -4.216  0.00  0.00     0.249 C 
HETATM    4  N           1     -20.402  -7.751  -4.130  0.00  0.00    -0.345 N 
ENDROOT
BRANCH   4   5
HETATM    5  C           1     -21.660  -7.108  -3.805  0.00  0.00     0.185 C 
BRANCH   5   6
HETATM    6  C           1     -22.123  -6.286  -4.982  0.00  0.00     0.196 C 
HETATM    7  O           1     -21.287  -5.808  -5.778  0.00  0.00    -0.646 OA
HETATM    8  O           1     -23.343  -6.083  -5.161  0.00  0.00    -0.646 OA
ENDBRANCH   5   6
BRANCH   5   9
HETATM    9  C           1     -21.469  -6.203  -2.595  0.00  0.00     0.036 C 
BRANCH   9  10
HETATM   10  C           1     -22.280  -6.742  -1.424  0.00  0.00     0.004 C 
BRANCH  10  11
HETATM   11  C           1     -21.471  -7.803  -0.690  0.00  0.00     0.027 C 
BRANCH  11  12
HETATM   12  C           1     -22.070  -8.033   0.692  0.00  0.00     0.229 C 
BRANCH  12  13
HETATM   13  N           1     -23.567  -8.008   0.598  0.00  0.00    -0.079 N 
HETATM   14  H           1     -23.890  -8.783  -0.024  0.00  0.00     0.274 HD
HETATM   15  H           1     -23.977  -8.134   1.552  0.00  0.00     0.274 HD
HETATM   16  H           1     -23.876  -7.092   0.204  0.00  0.00     0.274 HD
ENDBRANCH  12  13
ENDBRANCH  11  12
ENDBRANCH  10  11
ENDBRANCH   9  10
ENDBRANCH   5   9
ENDBRANCH   4   5
BRANCH   3  17
HETATM   17  C           1     -19.022  -9.784  -4.554  0.00  0.00     0.283 C 
BRANCH  17  18
HETATM   18  C           1     -17.980  -9.422  -3.505  0.00  0.00     0.113 C 
BRANCH  18  19
HETATM   19  S           1     -16.358 -10.054  -4.017  0.00  0.00    -0.180 SA
HETATM   20  H           1     -16.594 -11.336  -3.678  0.00  0.00     0.101 HD
ENDBRANCH  18  19
ENDBRANCH  17  18
BRANCH  17  21
HETATM   21  N           1     -18.557  -9.317  -5.902  0.00  0.00    -0.066 N 
HETATM   22  H           1     -18.164 -10.126  -6.435  0.00  0.00     0.275 HD
HETATM   23  H           1     -19.364  -8.913  -6.428  0.00  0.00     0.275 HD
HETATM   24  H           1     -17.818  -8.589  -5.782  0.00  0.00     0.275 HD
ENDBRANCH  17  21
ENDBRANCH   3  17
TORSDOF 11
ENDMDL
MODEL 8
REMARK VINA RESULT:      -4.2     13.995     15.732
REMARK  11 active torsions:
REMARK  status: ('A' for Active; 'I' for Inactive)
REMARK    1  A    between atoms: C_4  and  C_23 
REMARK    2  A    between atoms: C_5  and  C_6 
REMARK    3  A    between atoms: C_5  and  S_10 
REMARK    4  A    between atoms: C_6  and  C_16 
REMARK    5  A    between atoms: C_6  and  N_11 
REMARK       I    between atoms: C_16  and  N_17 
REMARK    6  A    between atoms: N_17  and  C_23 
REMARK    7  A    between atoms: C_19  and  C_20 
REMARK    8  A    between atoms: C_19  and  C_24 
REMARK    9  A    between atoms: C_20  and  C_21 
REMARK   10  A    between atoms: C_21  and  N_22 
REMARK   11  A    between atoms: C_23  and  C_24 
ROOT
HETATM    1  H           1     -22.087  -6.988  -4.066  0.00  0.00     0.163 HD
HETATM    2  O           1     -19.654  -7.602  -5.948  0.00  0.00    -0.271 OA
HETATM    3  C           1     -20.658  -7.053  -5.562  0.00  0.00     0.249 C 
HETATM    4  N           1     -21.246  -7.448  -4.390  0.00  0.00    -0.345 N 
ENDROOT
BRANCH   4   5
HETATM    5  C           1     -20.663  -8.524  -3.612  0.00  0.00     0.185 C 
BRANCH   5   6
HETATM    6  C           1     -21.492  -9.773  -3.783  0.00  0.00     0.196 C 
HETATM    7  O           1     -21.492 -10.379  -4.877  0.00  0.00    -0.646 OA
HETATM    8  O           1     -22.178 -10.202  -2.831  0.00  0.00    -0.646 OA
ENDBRANCH   5   6
BRANCH   5   9
HETATM    9  C           1     -20.635  -8.129  -2.142  0.00  0.00     0.036 C 
BRANCH   9  10
HETATM   10  C           1     -21.439  -6.851  -1.944  0.00  0.00     0.004 C 
BRANCH  10  11
HETATM   11  C           1     -22.416  -7.038  -0.791  0.00  0.00     0.027 C 
BRANCH  11  12
HETATM   12  C           1     -22.009  -8.256   0.027  0.00  0.00     0.229 C 
BRANCH  12  13
HETATM   13  N           1     -23.120  -9.264   0.013  0.00  0.00    -0.079 N 
HETATM   14  H           1     -24.036  -8.771  -0.083  0.00  0.00     0.274 HD
HETATM   15  H           1     -22.989  -9.914  -0.795  0.00  0.00     0.274 HD
HETATM   16  H           1     -23.108  -9.808   0.905  0.00  0.00     0.274 HD
ENDBRANCH  12  13
ENDBRANCH  11  12
ENDBRANCH  10  11
ENDBRANCH   9  10
ENDBRANCH   5   9
ENDBRANCH   4   5
BRANCH   3  17
HETATM   17  C           1     -21.265  -5.933  -6.371  0.00  0.00     0.283 C 
BRANCH  17  18
HETATM   18  C           1     -20.369  -4.705  -6.290  0.00  0.00     0.113 C 
BRANCH  18  19
HETATM   19  S           1     -19.667  -4.359  -7.927  0.00  0.00    -0.180 SA
HETATM   20  H           1     -19.346  -3.077  -7.675  0.00  0.00     0.101 HD
ENDBRANCH  18  19
ENDBRANCH  17  18
BRANCH  17  21
HETATM   21  N           1     -22.622  -5.600  -5.822  0.00  0.00    -0.066 N 
HETATM   22  H           1     -22.862  -4.612  -6.064  0.00  0.00     0.275 HD
HETATM   23  H           1     -23.333  -6.242  -6.237  0.00  0.00     0.275 HD
HETATM   24  H           1     -22.613  -5.711  -4.783  0.00  0.00     0.275 HD
ENDBRANCH  17  21
ENDBRANCH   3  17
TORSDOF 11
ENDMDL
MODEL 9
REMARK VINA RESULT:      -4.1     13.760     15.491
REMARK  11 active torsions:
REMARK  status: ('A' for Active; 'I' for Inactive)
REMARK    1  A    between atoms: C_4  and  C_23 
REMARK    2  A    between atoms: C_5  and  C_6 
REMARK    3  A    between atoms: C_5  and  S_10 
REMARK    4  A    between atoms: C_6  and  C_16 
REMARK    5  A    between atoms: C_6  and  N_11 
REMARK       I    between atoms: C_16  and  N_17 
REMARK    6  A    between atoms: N_17  and  C_23 
REMARK    7  A    between atoms: C_19  and  C_20 
REMARK    8  A    between atoms: C_19  and  C_24 
REMARK    9  A    between atoms: C_20  and  C_21 
REMARK   10  A    between atoms: C_21  and  N_22 
REMARK   11  A    between atoms: C_23  and  C_24 
ROOT
HETATM    1  H           1     -19.796  -6.923  -4.429  0.00  0.00     0.163 HD
HETATM    2  O           1     -22.598  -5.926  -5.430  0.00  0.00    -0.271 OA
HETATM    3  C           1     -21.394  -6.008  -5.376  0.00  0.00     0.249 C 
HETATM    4  N           1     -20.805  -6.854  -4.473  0.00  0.00    -0.345 N 
ENDROOT
BRANCH   4   5
HETATM    5  C           1     -21.626  -7.651  -3.583  0.00  0.00     0.185 C 
BRANCH   5   6
HETATM    6  C           1     -21.696  -6.983  -2.232  0.00  0.00     0.196 C 
HETATM    7  O           1     -21.181  -7.533  -1.235  0.00  0.00    -0.646 OA
HETATM    8  O           1     -22.270  -5.880  -2.110  0.00  0.00    -0.646 OA
ENDBRANCH   5   6
BRANCH   5   9
HETATM    9  C           1     -21.014  -9.037  -3.435  0.00  0.00     0.036 C 
BRANCH   9  10
HETATM   10  C           1     -22.112 -10.089  -3.516  0.00  0.00     0.004 C 
BRANCH  10  11
HETATM   11  C           1     -22.018 -11.016  -2.311  0.00  0.00     0.027 C 
BRANCH  11  12
HETATM   12  C           1     -23.281 -10.885  -1.470  0.00  0.00     0.229 C 
BRANCH  12  13
HETATM   13  N           1     -23.084  -9.818  -0.435  0.00  0.00    -0.079 N 
HETATM   14  H           1     -22.297 -10.087   0.198  0.00  0.00     0.274 HD
HETATM   15  H           1     -22.858  -8.913  -0.906  0.00  0.00     0.274 HD
HETATM   16  H           1     -23.960  -9.711   0.126  0.00  0.00     0.274 HD
ENDBRANCH  12  13
ENDBRANCH  11  12
ENDBRANCH  10  11
ENDBRANCH   9  10
ENDBRANCH   5   9
ENDBRANCH   4   5
BRANCH   3  17
HETATM   17  C           1     -20.539  -5.179  -6.302  0.00  0.00     0.283 C 
BRANCH  17  18
HETATM   18  C           1     -21.395  -4.105  -6.958  0.00  0.00     0.113 C 
BRANCH  18  19
HETATM   19  S           1     -21.582  -4.474  -8.725  0.00  0.00    -0.180 SA
HETATM   20  H           1     -22.881  -4.817  -8.661  0.00  0.00     0.101 HD
ENDBRANCH  18  19
ENDBRANCH  17  18
BRANCH  17  21
HETATM   21  N           1     -19.947  -6.063  -7.361  0.00  0.00    -0.066 N 
HETATM   22  H           1     -19.450  -6.862  -6.908  0.00  0.00     0.275 HD
HETATM   23  H           1     -20.709  -6.429  -7.974  0.00  0.00     0.275 HD
HETATM   24  H           1     -19.270  -5.512  -7.934  0.00  0.00     0.275 HD
ENDBRANCH  17  21
ENDBRANCH   3  17
TORSDOF 11
ENDMDL
