MODEL 1
REMARK VINA RESULT:      -7.2      0.000      0.000
REMARK  9 active torsions:
REMARK  status: ('A' for Active; 'I' for Inactive)
REMARK    1  A    between atoms: C_2  and  C_4 
REMARK    2  A    between atoms: C_4  and  C_5 
REMARK    3  A    between atoms: C_4  and  N_19 
REMARK    4  A    between atoms: C_5  and  C_15 
REMARK    5  A    between atoms: N_13  and  C_17 
REMARK    6  A    between atoms: C_16  and  C_17 
REMARK    7  A    between atoms: C_16  and  C_23 
REMARK    8  A    between atoms: C_17  and  C_18 
REMARK       I    between atoms: C_18  and  N_19 
REMARK    9  A    between atoms: C_23  and  C_24 
ROOT
HETATM    1  O           1     -33.471  -1.729 -10.458  0.00  0.00    -0.271 OA
HETATM    2  C           1     -34.605  -2.012 -10.760  0.00  0.00     0.249 C 
HETATM    3  N           1     -35.654  -1.363 -10.166  0.00  0.00    -0.344 N 
HETATM    4  H           1     -36.058  -1.729  -9.315  0.00  0.00     0.163 HD
ENDROOT
BRANCH   3   5
HETATM    5  C           1     -36.184  -0.150 -10.758  0.00  0.00     0.189 C 
BRANCH   5   6
HETATM    6  C           1     -36.837   0.688  -9.687  0.00  0.00     0.197 C 
HETATM    7  O           1     -36.259   0.865  -8.593  0.00  0.00    -0.646 OA
HETATM    8  O           1     -37.956   1.206  -9.893  0.00  0.00    -0.646 OA
ENDBRANCH   5   6
BRANCH   5   9
HETATM    9  C           1     -37.216  -0.513 -11.819  0.00  0.00     0.074 C 
BRANCH   9  10
HETATM   10  C           1     -36.765  -0.000 -13.150  0.00  0.00    -0.056 A 
HETATM   11  C           1     -35.507   0.589 -13.281  0.00  0.00     0.007 A 
HETATM   12  C           1     -35.086   1.066 -14.523  0.00  0.00     0.001 A 
HETATM   13  C           1     -35.923   0.954 -15.633  0.00  0.00     0.000 A 
HETATM   14  C           1     -37.180   0.364 -15.503  0.00  0.00     0.001 A 
HETATM   15  C           1     -37.601  -0.113 -14.261  0.00  0.00     0.007 A 
ENDBRANCH   9  10
ENDBRANCH   5   9
ENDBRANCH   3   5
BRANCH   2  16
HETATM   16  C           1     -34.867  -3.081 -11.792  0.00  0.00     0.275 C 
BRANCH  16  17
HETATM   17  N           1     -34.354  -2.624 -13.125  0.00  0.00    -0.066 N 
HETATM   18  H           1     -33.795  -1.749 -13.003  0.00  0.00     0.275 HD
HETATM   19  H           1     -33.749  -3.369 -13.540  0.00  0.00     0.275 HD
HETATM   20  H           1     -35.160  -2.434 -13.763  0.00  0.00     0.275 HD
ENDBRANCH  16  17
BRANCH  16  21
HETATM   21  C           1     -34.154  -4.365 -11.388  0.00  0.00     0.053 C 
BRANCH  21  22
HETATM   22  C           1     -35.057  -5.181 -10.472  0.00  0.00     0.115 C 
BRANCH  22  23
HETATM   23  C           1     -34.480  -6.564 -10.298  0.00  0.00     0.172 C 
HETATM   24  O           1     -33.351  -6.833 -10.760  0.00  0.00    -0.648 OA
HETATM   25  O           1     -35.132  -7.441  -9.691  0.00  0.00    -0.648 OA
ENDBRANCH  22  23
ENDBRANCH  21  22
ENDBRANCH  16  21
ENDBRANCH   2  16
TORSDOF 9
ENDMDL
MODEL 2
REMARK VINA RESULT:      -6.8     10.083     12.486
REMARK  9 active torsions:
REMARK  status: ('A' for Active; 'I' for Inactive)
REMARK    1  A    between atoms: C_2  and  C_4 
REMARK    2  A    between atoms: C_4  and  C_5 
REMARK    3  A    between atoms: C_4  and  N_19 
REMARK    4  A    between atoms: C_5  and  C_15 
REMARK    5  A    between atoms: N_13  and  C_17 
REMARK    6  A    between atoms: C_16  and  C_17 
REMARK    7  A    between atoms: C_16  and  C_23 
REMARK    8  A    between atoms: C_17  and  C_18 
REMARK       I    between atoms: C_18  and  N_19 
REMARK    9  A    between atoms: C_23  and  C_24 
ROOT
HETATM    1  O           1     -29.386  -8.472 -16.625  0.00  0.00    -0.271 OA
HETATM    2  C           1     -29.055  -7.360 -16.962  0.00  0.00     0.249 C 
HETATM    3  N           1     -27.965  -6.767 -16.384  0.00  0.00    -0.344 N 
HETATM    4  H           1     -28.078  -6.205 -15.550  0.00  0.00     0.163 HD
ENDROOT
BRANCH   3   5
HETATM    5  C           1     -26.649  -6.942 -16.968  0.00  0.00     0.189 C 
BRANCH   5   6
HETATM    6  C           1     -25.595  -6.606 -15.942  0.00  0.00     0.197 C 
HETATM    7  O           1     -25.281  -7.445 -15.071  0.00  0.00    -0.646 OA
HETATM    8  O           1     -25.037  -5.487 -15.963  0.00  0.00    -0.646 OA
ENDBRANCH   5   6
BRANCH   5   9
HETATM    9  C           1     -26.501  -6.019 -18.171  0.00  0.00     0.074 C 
BRANCH   9  10
HETATM   10  C           1     -25.893  -6.775 -19.309  0.00  0.00    -0.056 A 
HETATM   11  C           1     -24.513  -6.977 -19.355  0.00  0.00     0.007 A 
HETATM   12  C           1     -23.946  -7.683 -20.416  0.00  0.00     0.001 A 
HETATM   13  C           1     -24.759  -8.187 -21.432  0.00  0.00     0.000 A 
HETATM   14  C           1     -26.138  -7.986 -21.387  0.00  0.00     0.001 A 
HETATM   15  C           1     -26.705  -7.280 -20.325  0.00  0.00     0.007 A 
ENDBRANCH   9  10
ENDBRANCH   5   9
ENDBRANCH   3   5
BRANCH   2  16
HETATM   16  C           1     -29.842  -6.626 -18.020  0.00  0.00     0.275 C 
BRANCH  16  17
HETATM   17  N           1     -31.005  -7.469 -18.450  0.00  0.00    -0.066 N 
HETATM   18  H           1     -30.844  -8.460 -18.163  0.00  0.00     0.275 HD
HETATM   19  H           1     -31.878  -7.113 -17.999  0.00  0.00     0.275 HD
HETATM   20  H           1     -31.105  -7.420 -19.489  0.00  0.00     0.275 HD
ENDBRANCH  16  17
BRANCH  16  21
HETATM   21  C           1     -30.352  -5.309 -17.452  0.00  0.00     0.053 C 
BRANCH  21  22
HETATM   22  C           1     -29.737  -4.150 -18.225  0.00  0.00     0.115 C 
BRANCH  22  23
HETATM   23  C           1     -29.023  -3.227 -17.268  0.00  0.00     0.172 C 
HETATM   24  O           1     -29.279  -2.003 -17.272  0.00  0.00    -0.648 OA
HETATM   25  O           1     -28.177  -3.686 -16.471  0.00  0.00    -0.648 OA
ENDBRANCH  22  23
ENDBRANCH  21  22
ENDBRANCH  16  21
ENDBRANCH   2  16
TORSDOF 9
ENDMDL
MODEL 3
REMARK VINA RESULT:      -6.8     13.762     16.783
REMARK  9 active torsions:
REMARK  status: ('A' for Active; 'I' for Inactive)
REMARK    1  A    between atoms: C_2  and  C_4 
REMARK    2  A    between atoms: C_4  and  C_5 
REMARK    3  A    between atoms: C_4  and  N_19 
REMARK    4  A    between atoms: C_5  and  C_15 
REMARK    5  A    between atoms: N_13  and  C_17 
REMARK    6  A    between atoms: C_16  and  C_17 
REMARK    7  A    between atoms: C_16  and  C_23 
REMARK    8  A    between atoms: C_17  and  C_18 
REMARK       I    between atoms: C_18  and  N_19 
REMARK    9  A    between atoms: C_23  and  C_24 
ROOT
HETATM    1  O           1     -23.822  -4.769  -6.345  0.00  0.00    -0.271 OA
HETATM    2  C           1     -22.771  -4.567  -6.904  0.00  0.00     0.249 C 
HETATM    3  N           1     -21.660  -4.239  -6.175  0.00  0.00    -0.344 N 
HETATM    4  H           1     -21.451  -3.269  -5.981  0.00  0.00     0.163 HD
ENDROOT
BRANCH   3   5
HETATM    5  C           1     -20.782  -5.283  -5.682  0.00  0.00     0.189 C 
BRANCH   5   6
HETATM    6  C           1     -19.719  -5.572  -6.714  0.00  0.00     0.197 C 
HETATM    7  O           1     -18.980  -4.653  -7.126  0.00  0.00    -0.646 OA
HETATM    8  O           1     -19.578  -6.733  -7.156  0.00  0.00    -0.646 OA
ENDBRANCH   5   6
BRANCH   5   9
HETATM    9  C           1     -21.591  -6.545  -5.418  0.00  0.00     0.074 C 
BRANCH   9  10
HETATM   10  C           1     -21.459  -6.931  -3.978  0.00  0.00    -0.056 A 
HETATM   11  C           1     -20.656  -8.014  -3.618  0.00  0.00     0.007 A 
HETATM   12  C           1     -20.533  -8.373  -2.275  0.00  0.00     0.001 A 
HETATM   13  C           1     -21.211  -7.651  -1.294  0.00  0.00     0.000 A 
HETATM   14  C           1     -22.013  -6.568  -1.654  0.00  0.00     0.001 A 
HETATM   15  C           1     -22.136  -6.208  -2.997  0.00  0.00     0.007 A 
ENDBRANCH   9  10
ENDBRANCH   5   9
ENDBRANCH   3   5
BRANCH   2  16
HETATM   16  C           1     -22.682  -4.679  -8.406  0.00  0.00     0.275 C 
BRANCH  16  17
HETATM   17  N           1     -24.029  -4.409  -9.007  0.00  0.00    -0.066 N 
HETATM   18  H           1     -24.146  -4.982  -9.873  0.00  0.00     0.275 HD
HETATM   19  H           1     -24.775  -4.661  -8.319  0.00  0.00     0.275 HD
HETATM   20  H           1     -24.106  -3.395  -9.249  0.00  0.00     0.275 HD
ENDBRANCH  16  17
BRANCH  16  21
HETATM   21  C           1     -21.679  -3.662  -8.933  0.00  0.00     0.053 C 
BRANCH  21  22
HETATM   22  C           1     -21.018  -4.205 -10.193  0.00  0.00     0.115 C 
BRANCH  22  23
HETATM   23  C           1     -21.778  -3.728 -11.407  0.00  0.00     0.172 C 
HETATM   24  O           1     -21.531  -2.606 -11.898  0.00  0.00    -0.648 OA
HETATM   25  O           1     -22.656  -4.456 -11.921  0.00  0.00    -0.648 OA
ENDBRANCH  22  23
ENDBRANCH  21  22
ENDBRANCH  16  21
ENDBRANCH   2  16
TORSDOF 9
ENDMDL
MODEL 4
REMARK VINA RESULT:      -6.7     13.994     17.289
REMARK  9 active torsions:
REMARK  status: ('A' for Active; 'I' for Inactive)
REMARK    1  A    between atoms: C_2  and  C_4 
REMARK    2  A    between atoms: C_4  and  C_5 
REMARK    3  A    between atoms: C_4  and  N_19 
REMARK    4  A    between atoms: C_5  and  C_15 
REMARK    5  A    between atoms: N_13  and  C_17 
REMARK    6  A    between atoms: C_16  and  C_17 
REMARK    7  A    between atoms: C_16  and  C_23 
REMARK    8  A    between atoms: C_17  and  C_18 
REMARK       I    between atoms: C_18  and  N_19 
REMARK    9  A    between atoms: C_23  and  C_24 
ROOT
HETATM    1  O           1     -19.319  -4.814  -7.020  0.00  0.00    -0.271 OA
HETATM    2  C           1     -20.347  -5.445  -6.960  0.00  0.00     0.249 C 
HETATM    3  N           1     -20.309  -6.795  -6.735  0.00  0.00    -0.344 N 
HETATM    4  H           1     -20.259  -7.436  -7.516  0.00  0.00     0.163 HD
ENDROOT
BRANCH   3   5
HETATM    5  C           1     -20.342  -7.305  -5.378  0.00  0.00     0.189 C 
BRANCH   5   6
HETATM    6  C           1     -19.642  -8.641  -5.327  0.00  0.00     0.197 C 
HETATM    7  O           1     -18.539  -8.747  -4.750  0.00  0.00    -0.646 OA
HETATM    8  O           1     -20.167  -9.642  -5.862  0.00  0.00    -0.646 OA
ENDBRANCH   5   6
BRANCH   5   9
HETATM    9  C           1     -21.789  -7.471  -4.934  0.00  0.00     0.074 C 
BRANCH   9  10
HETATM   10  C           1     -21.857  -7.459  -3.439  0.00  0.00    -0.056 A 
HETATM   11  C           1     -21.730  -8.651  -2.725  0.00  0.00     0.007 A 
HETATM   12  C           1     -21.793  -8.639  -1.332  0.00  0.00     0.001 A 
HETATM   13  C           1     -21.983  -7.436  -0.652  0.00  0.00     0.000 A 
HETATM   14  C           1     -22.109  -6.244  -1.365  0.00  0.00     0.001 A 
HETATM   15  C           1     -22.046  -6.256  -2.759  0.00  0.00     0.007 A 
ENDBRANCH   9  10
ENDBRANCH   5   9
ENDBRANCH   3   5
BRANCH   2  16
HETATM   16  C           1     -21.673  -4.745  -7.131  0.00  0.00     0.275 C 
BRANCH  16  17
HETATM   17  N           1     -21.489  -3.271  -6.927  0.00  0.00    -0.066 N 
HETATM   18  H           1     -21.370  -2.803  -7.853  0.00  0.00     0.275 HD
HETATM   19  H           1     -22.329  -2.879  -6.444  0.00  0.00     0.275 HD
HETATM   20  H           1     -20.640  -3.103  -6.341  0.00  0.00     0.275 HD
ENDBRANCH  16  17
BRANCH  16  21
HETATM   21  C           1     -22.205  -5.001  -8.535  0.00  0.00     0.053 C 
BRANCH  21  22
HETATM   22  C           1     -22.681  -3.689  -9.145  0.00  0.00     0.115 C 
BRANCH  22  23
HETATM   23  C           1     -24.099  -3.846  -9.636  0.00  0.00     0.172 C 
HETATM   24  O           1     -24.476  -4.936 -10.119  0.00  0.00    -0.648 OA
HETATM   25  O           1     -24.897  -2.887  -9.560  0.00  0.00    -0.648 OA
ENDBRANCH  22  23
ENDBRANCH  21  22
ENDBRANCH  16  21
ENDBRANCH   2  16
TORSDOF 9
ENDMDL
MODEL 5
REMARK VINA RESULT:      -6.4     15.083     17.174
REMARK  9 active torsions:
REMARK  status: ('A' for Active; 'I' for Inactive)
REMARK    1  A    between atoms: C_2  and  C_4 
REMARK    2  A    between atoms: C_4  and  C_5 
REMARK    3  A    between atoms: C_4  and  N_19 
REMARK    4  A    between atoms: C_5  and  C_15 
REMARK    5  A    between atoms: N_13  and  C_17 
REMARK    6  A    between atoms: C_16  and  C_17 
REMARK    7  A    between atoms: C_16  and  C_23 
REMARK    8  A    between atoms: C_17  and  C_18 
REMARK       I    between atoms: C_18  and  N_19 
REMARK    9  A    between atoms: C_23  and  C_24 
ROOT
HETATM    1  O           1     -21.540  -5.289  -2.299  0.00  0.00    -0.271 OA
HETATM    2  C           1     -21.916  -6.361  -2.709  0.00  0.00     0.249 C 
HETATM    3  N           1     -22.552  -6.446  -3.918  0.00  0.00    -0.344 N 
HETATM    4  H           1     -23.558  -6.360  -3.968  0.00  0.00     0.163 HD
ENDROOT
BRANCH   3   5
HETATM    5  C           1     -21.782  -6.662  -5.128  0.00  0.00     0.189 C 
BRANCH   5   6
HETATM    6  C           1     -20.984  -7.936  -4.995  0.00  0.00     0.197 C 
HETATM    7  O           1     -21.564  -9.042  -5.012  0.00  0.00    -0.646 OA
HETATM    8  O           1     -19.741  -7.884  -4.867  0.00  0.00    -0.646 OA
ENDBRANCH   5   6
BRANCH   5   9
HETATM    9  C           1     -20.835  -5.489  -5.344  0.00  0.00     0.074 C 
BRANCH   9  10
HETATM   10  C           1     -20.952  -5.004  -6.754  0.00  0.00    -0.056 A 
HETATM   11  C           1     -19.853  -5.079  -7.611  0.00  0.00     0.007 A 
HETATM   12  C           1     -19.964  -4.628  -8.927  0.00  0.00     0.001 A 
HETATM   13  C           1     -21.171  -4.102  -9.386  0.00  0.00     0.000 A 
HETATM   14  C           1     -22.270  -4.029  -8.530  0.00  0.00     0.001 A 
HETATM   15  C           1     -22.160  -4.480  -7.214  0.00  0.00     0.007 A 
ENDBRANCH   9  10
ENDBRANCH   5   9
ENDBRANCH   3   5
BRANCH   2  16
HETATM   16  C           1     -21.684  -7.605  -1.889  0.00  0.00     0.275 C 
BRANCH  16  17
HETATM   17  N           1     -20.210  -7.820  -1.712  0.00  0.00    -0.066 N 
HETATM   18  H           1     -19.937  -7.579  -0.733  0.00  0.00     0.275 HD
HETATM   19  H           1     -19.979  -8.821  -1.903  0.00  0.00     0.275 HD
HETATM   20  H           1     -19.687  -7.208  -2.379  0.00  0.00     0.275 HD
ENDBRANCH  16  17
BRANCH  16  21
HETATM   21  C           1     -22.340  -7.444  -0.524  0.00  0.00     0.053 C 
BRANCH  21  22
HETATM   22  C           1     -21.916  -8.592   0.383  0.00  0.00     0.115 C 
BRANCH  22  23
HETATM   23  C           1     -22.589  -9.865  -0.066  0.00  0.00     0.172 C 
HETATM   24  O           1     -23.833  -9.969  -0.004  0.00  0.00    -0.648 OA
HETATM   25  O           1     -21.903 -10.816  -0.500  0.00  0.00    -0.648 OA
ENDBRANCH  22  23
ENDBRANCH  21  22
ENDBRANCH  16  21
ENDBRANCH   2  16
TORSDOF 9
ENDMDL
MODEL 6
REMARK VINA RESULT:      -6.4      9.933     12.319
REMARK  9 active torsions:
REMARK  status: ('A' for Active; 'I' for Inactive)
REMARK    1  A    between atoms: C_2  and  C_4 
REMARK    2  A    between atoms: C_4  and  C_5 
REMARK    3  A    between atoms: C_4  and  N_19 
REMARK    4  A    between atoms: C_5  and  C_15 
REMARK    5  A    between atoms: N_13  and  C_17 
REMARK    6  A    between atoms: C_16  and  C_17 
REMARK    7  A    between atoms: C_16  and  C_23 
REMARK    8  A    between atoms: C_17  and  C_18 
REMARK       I    between atoms: C_18  and  N_19 
REMARK    9  A    between atoms: C_23  and  C_24 
ROOT
HETATM    1  O           1     -28.413  -4.788 -15.623  0.00  0.00    -0.271 OA
HETATM    2  C           1     -28.072  -4.966 -16.768  0.00  0.00     0.249 C 
HETATM    3  N           1     -26.755  -5.202 -17.060  0.00  0.00    -0.344 N 
HETATM    4  H           1     -26.136  -4.428 -17.264  0.00  0.00     0.163 HD
ENDROOT
BRANCH   3   5
HETATM    5  C           1     -26.249  -6.561 -17.079  0.00  0.00     0.189 C 
BRANCH   5   6
HETATM    6  C           1     -26.247  -7.116 -15.676  0.00  0.00     0.197 C 
HETATM    7  O           1     -27.273  -7.663 -15.219  0.00  0.00    -0.646 OA
HETATM    8  O           1     -25.218  -7.027 -14.971  0.00  0.00    -0.646 OA
ENDBRANCH   5   6
BRANCH   5   9
HETATM    9  C           1     -24.829  -6.566 -17.631  0.00  0.00     0.074 C 
BRANCH   9  10
HETATM   10  C           1     -24.846  -7.043 -19.049  0.00  0.00    -0.056 A 
HETATM   11  C           1     -26.003  -6.909 -19.817  0.00  0.00     0.007 A 
HETATM   12  C           1     -26.017  -7.353 -21.139  0.00  0.00     0.001 A 
HETATM   13  C           1     -24.876  -7.932 -21.694  0.00  0.00     0.000 A 
HETATM   14  C           1     -23.718  -8.065 -20.926  0.00  0.00     0.001 A 
HETATM   15  C           1     -23.704  -7.620 -19.604  0.00  0.00     0.007 A 
ENDBRANCH   9  10
ENDBRANCH   5   9
ENDBRANCH   3   5
BRANCH   2  16
HETATM   16  C           1     -29.096  -4.931 -17.875  0.00  0.00     0.275 C 
BRANCH  16  17
HETATM   17  N           1     -29.642  -6.310 -18.095  0.00  0.00    -0.066 N 
HETATM   18  H           1     -29.939  -6.718 -17.180  0.00  0.00     0.275 HD
HETATM   19  H           1     -30.464  -6.261 -18.738  0.00  0.00     0.275 HD
HETATM   20  H           1     -28.902  -6.914 -18.520  0.00  0.00     0.275 HD
ENDBRANCH  16  17
BRANCH  16  21
HETATM   21  C           1     -30.231  -3.992 -17.487  0.00  0.00     0.053 C 
BRANCH  21  22
HETATM   22  C           1     -31.408  -4.806 -16.965  0.00  0.00     0.115 C 
BRANCH  22  23
HETATM   23  C           1     -32.631  -3.926 -16.881  0.00  0.00     0.172 C 
HETATM   24  O           1     -33.518  -4.168 -16.034  0.00  0.00    -0.648 OA
HETATM   25  O           1     -32.759  -2.956 -17.659  0.00  0.00    -0.648 OA
ENDBRANCH  22  23
ENDBRANCH  21  22
ENDBRANCH  16  21
ENDBRANCH   2  16
TORSDOF 9
ENDMDL
MODEL 7
REMARK VINA RESULT:      -6.3     16.853     19.272
REMARK  9 active torsions:
REMARK  status: ('A' for Active; 'I' for Inactive)
REMARK    1  A    between atoms: C_2  and  C_4 
REMARK    2  A    between atoms: C_4  and  C_5 
REMARK    3  A    between atoms: C_4  and  N_19 
REMARK    4  A    between atoms: C_5  and  C_15 
REMARK    5  A    between atoms: N_13  and  C_17 
REMARK    6  A    between atoms: C_16  and  C_17 
REMARK    7  A    between atoms: C_16  and  C_23 
REMARK    8  A    between atoms: C_17  and  C_18 
REMARK       I    between atoms: C_18  and  N_19 
REMARK    9  A    between atoms: C_23  and  C_24 
ROOT
HETATM    1  O           1     -21.967  -5.712  -2.425  0.00  0.00    -0.271 OA
HETATM    2  C           1     -21.588  -6.799  -2.792  0.00  0.00     0.249 C 
HETATM    3  N           1     -20.961  -7.638  -1.911  0.00  0.00    -0.344 N 
HETATM    4  H           1     -19.955  -7.605  -1.810  0.00  0.00     0.163 HD
ENDROOT
BRANCH   3   5
HETATM    5  C           1     -21.739  -8.577  -1.126  0.00  0.00     0.189 C 
BRANCH   5   6
HETATM    6  C           1     -22.219  -7.900   0.135  0.00  0.00     0.197 C 
HETATM    7  O           1     -23.365  -7.403   0.180  0.00  0.00    -0.646 OA
HETATM    8  O           1     -21.470  -7.835   1.134  0.00  0.00    -0.646 OA
ENDBRANCH   5   6
BRANCH   5   9
HETATM    9  C           1     -20.871  -9.774  -0.761  0.00  0.00     0.074 C 
BRANCH   9  10
HETATM   10  C           1     -21.740 -10.891  -0.274  0.00  0.00    -0.056 A 
HETATM   11  C           1     -21.249 -11.798   0.666  0.00  0.00     0.007 A 
HETATM   12  C           1     -22.059 -12.838   1.120  0.00  0.00     0.001 A 
HETATM   13  C           1     -23.360 -12.973   0.634  0.00  0.00     0.000 A 
HETATM   14  C           1     -23.851 -12.066  -0.305  0.00  0.00     0.001 A 
HETATM   15  C           1     -23.040 -11.025  -0.759  0.00  0.00     0.007 A 
ENDBRANCH   9  10
ENDBRANCH   5   9
ENDBRANCH   3   5
BRANCH   2  16
HETATM   16  C           1     -21.809  -7.231  -4.220  0.00  0.00     0.275 C 
BRANCH  16  17
HETATM   17  N           1     -22.752  -6.277  -4.891  0.00  0.00    -0.066 N 
HETATM   18  H           1     -22.874  -6.552  -5.891  0.00  0.00     0.275 HD
HETATM   19  H           1     -23.678  -6.304  -4.406  0.00  0.00     0.275 HD
HETATM   20  H           1     -22.362  -5.309  -4.842  0.00  0.00     0.275 HD
ENDBRANCH  16  17
BRANCH  16  21
HETATM   21  C           1     -20.479  -7.234  -4.962  0.00  0.00     0.053 C 
BRANCH  21  22
HETATM   22  C           1     -20.636  -6.507  -6.291  0.00  0.00     0.115 C 
BRANCH  22  23
HETATM   23  C           1     -19.932  -5.174  -6.224  0.00  0.00     0.172 C 
HETATM   24  O           1     -19.163  -4.826  -7.145  0.00  0.00    -0.648 OA
HETATM   25  O           1     -20.119  -4.418  -5.246  0.00  0.00    -0.648 OA
ENDBRANCH  22  23
ENDBRANCH  21  22
ENDBRANCH  16  21
ENDBRANCH   2  16
TORSDOF 9
ENDMDL
MODEL 8
REMARK VINA RESULT:      -6.3     16.810     19.762
REMARK  9 active torsions:
REMARK  status: ('A' for Active; 'I' for Inactive)
REMARK    1  A    between atoms: C_2  and  C_4 
REMARK    2  A    between atoms: C_4  and  C_5 
REMARK    3  A    between atoms: C_4  and  N_19 
REMARK    4  A    between atoms: C_5  and  C_15 
REMARK    5  A    between atoms: N_13  and  C_17 
REMARK    6  A    between atoms: C_16  and  C_17 
REMARK    7  A    between atoms: C_16  and  C_23 
REMARK    8  A    between atoms: C_17  and  C_18 
REMARK       I    between atoms: C_18  and  N_19 
REMARK    9  A    between atoms: C_23  and  C_24 
ROOT
HETATM    1  O           1     -19.280  -9.744  -5.836  0.00  0.00    -0.271 OA
HETATM    2  C           1     -19.153  -9.060  -4.849  0.00  0.00     0.249 C 
HETATM    3  N           1     -19.700  -7.806  -4.812  0.00  0.00    -0.344 N 
HETATM    4  H           1     -19.160  -7.009  -5.122  0.00  0.00     0.163 HD
ENDROOT
BRANCH   3   5
HETATM    5  C           1     -21.053  -7.619  -4.324  0.00  0.00     0.189 C 
BRANCH   5   6
HETATM    6  C           1     -21.857  -6.862  -5.352  0.00  0.00     0.197 C 
HETATM    7  O           1     -21.497  -6.859  -6.549  0.00  0.00    -0.646 OA
HETATM    8  O           1     -22.883  -6.237  -5.006  0.00  0.00    -0.646 OA
ENDBRANCH   5   6
BRANCH   5   9
HETATM    9  C           1     -21.019  -6.829  -3.022  0.00  0.00     0.074 C 
BRANCH   9  10
HETATM   10  C           1     -21.681  -7.621  -1.940  0.00  0.00    -0.056 A 
HETATM   11  C           1     -22.275  -6.966  -0.860  0.00  0.00     0.007 A 
HETATM   12  C           1     -22.893  -7.705   0.149  0.00  0.00     0.001 A 
HETATM   13  C           1     -22.917  -9.098   0.080  0.00  0.00     0.000 A 
HETATM   14  C           1     -22.323  -9.753  -1.000  0.00  0.00     0.001 A 
HETATM   15  C           1     -21.706  -9.014  -2.009  0.00  0.00     0.007 A 
ENDBRANCH   9  10
ENDBRANCH   5   9
ENDBRANCH   3   5
BRANCH   2  16
HETATM   16  C           1     -18.394  -9.589  -3.657  0.00  0.00     0.275 C 
BRANCH  16  17
HETATM   17  N           1     -18.974 -10.907  -3.240  0.00  0.00    -0.066 N 
HETATM   18  H           1     -18.286 -11.417  -2.641  0.00  0.00     0.275 HD
HETATM   19  H           1     -19.854 -10.745  -2.701  0.00  0.00     0.275 HD
HETATM   20  H           1     -19.185 -11.479  -4.089  0.00  0.00     0.275 HD
ENDBRANCH  16  17
BRANCH  16  21
HETATM   21  C           1     -16.929  -9.774  -4.030  0.00  0.00     0.053 C 
BRANCH  21  22
HETATM   22  C           1     -16.064  -9.619  -2.785  0.00  0.00     0.115 C 
BRANCH  22  23
HETATM   23  C           1     -15.805 -10.977  -2.180  0.00  0.00     0.172 C 
HETATM   24  O           1     -14.967 -11.744  -2.701  0.00  0.00    -0.648 OA
HETATM   25  O           1     -16.428 -11.335  -1.156  0.00  0.00    -0.648 OA
ENDBRANCH  22  23
ENDBRANCH  21  22
ENDBRANCH  16  21
ENDBRANCH   2  16
TORSDOF 9
ENDMDL
MODEL 9
REMARK VINA RESULT:      -6.2     17.644     21.013
REMARK  9 active torsions:
REMARK  status: ('A' for Active; 'I' for Inactive)
REMARK    1  A    between atoms: C_2  and  C_4 
REMARK    2  A    between atoms: C_4  and  C_5 
REMARK    3  A    between atoms: C_4  and  N_19 
REMARK    4  A    between atoms: C_5  and  C_15 
REMARK    5  A    between atoms: N_13  and  C_17 
REMARK    6  A    between atoms: C_16  and  C_17 
REMARK    7  A    between atoms: C_16  and  C_23 
REMARK    8  A    between atoms: C_17  and  C_18 
REMARK       I    between atoms: C_18  and  N_19 
REMARK    9  A    between atoms: C_23  and  C_24 
ROOT
HETATM    1  O           1     -17.524 -11.174  -2.837  0.00  0.00    -0.271 OA
HETATM    2  C           1     -18.581 -10.720  -2.469  0.00  0.00     0.249 C 
HETATM    3  N           1     -19.404 -11.465  -1.669  0.00  0.00    -0.344 N 
HETATM    4  H           1     -20.099 -12.071  -2.083  0.00  0.00     0.163 HD
ENDROOT
BRANCH   3   5
HETATM    5  C           1     -19.280 -11.383  -0.226  0.00  0.00     0.189 C 
BRANCH   5   6
HETATM    6  C           1     -18.234 -12.362   0.245  0.00  0.00     0.197 C 
HETATM    7  O           1     -17.074 -11.967   0.493  0.00  0.00    -0.646 OA
HETATM    8  O           1     -18.526 -13.569   0.386  0.00  0.00    -0.646 OA
ENDBRANCH   5   6
BRANCH   5   9
HETATM    9  C           1     -20.619 -11.720   0.418  0.00  0.00     0.074 C 
BRANCH   9  10
HETATM   10  C           1     -21.462 -10.486   0.493  0.00  0.00    -0.056 A 
HETATM   11  C           1     -20.956  -9.331   1.089  0.00  0.00     0.007 A 
HETATM   12  C           1     -21.743  -8.180   1.158  0.00  0.00     0.001 A 
HETATM   13  C           1     -23.034  -8.185   0.631  0.00  0.00     0.000 A 
HETATM   14  C           1     -23.540  -9.340   0.035  0.00  0.00     0.001 A 
HETATM   15  C           1     -22.753 -10.491  -0.034  0.00  0.00     0.007 A 
ENDBRANCH   9  10
ENDBRANCH   5   9
ENDBRANCH   3   5
BRANCH   2  16
HETATM   16  C           1     -18.992  -9.331  -2.891  0.00  0.00     0.275 C 
BRANCH  16  17
HETATM   17  N           1     -18.635  -9.120  -4.332  0.00  0.00    -0.066 N 
HETATM   18  H           1     -19.094  -8.249  -4.682  0.00  0.00     0.275 HD
HETATM   19  H           1     -17.598  -9.029  -4.424  0.00  0.00     0.275 HD
HETATM   20  H           1     -18.965  -9.936  -4.896  0.00  0.00     0.275 HD
ENDBRANCH  16  17
BRANCH  16  21
HETATM   21  C           1     -20.496  -9.170  -2.712  0.00  0.00     0.053 C 
BRANCH  21  22
HETATM   22  C           1     -20.813  -7.726  -2.343  0.00  0.00     0.115 C 
BRANCH  22  23
HETATM   23  C           1     -21.498  -7.048  -3.503  0.00  0.00     0.172 C 
HETATM   24  O           1     -21.327  -7.473  -4.666  0.00  0.00    -0.648 OA
HETATM   25  O           1     -22.238  -6.060  -3.301  0.00  0.00    -0.648 OA
ENDBRANCH  22  23
ENDBRANCH  21  22
ENDBRANCH  16  21
ENDBRANCH   2  16
TORSDOF 9
ENDMDL
