MODEL 1
REMARK VINA RESULT:      -5.8      0.000      0.000
REMARK  8 active torsions:
REMARK  status: ('A' for Active; 'I' for Inactive)
REMARK    1  A    between atoms: N_4  and  C_9 
REMARK       I    between atoms: N_6  and  C_7 
REMARK    2  A    between atoms: C_7  and  C_8 
REMARK    3  A    between atoms: C_8  and  C_9 
REMARK    4  A    between atoms: C_9  and  C_12 
REMARK    5  A    between atoms: N_11  and  C_19 
REMARK       I    between atoms: N_11  and  C_12 
REMARK    6  A    between atoms: C_18  and  C_19 
REMARK    7  A    between atoms: C_19  and  C_20 
REMARK    8  A    between atoms: C_20  and  Se_21 
ROOT
HETATM    1  C           1     -33.614  -2.783 -11.241  0.00  0.00     0.283 C 
ENDROOT
BRANCH   1   2
HETATM    2  N           1     -33.651  -1.733 -10.171  0.00  0.00    -0.066 N 
HETATM    3  H           1     -32.866  -1.891  -9.499  0.00  0.00     0.275 HD
HETATM    4  H           1     -33.551  -0.789 -10.606  0.00  0.00     0.275 HD
HETATM    5  H           1     -34.561  -1.787  -9.660  0.00  0.00     0.275 HD
ENDBRANCH   1   2
BRANCH   1   6
HETATM    6  C           1     -34.182  -4.086 -10.693  0.00  0.00     0.145 C 
BRANCH   6   7
HETATM    7  C           1     -33.378  -5.249 -11.222  0.00  0.00     0.217 C 
HETATM    8  O           1     -33.651  -6.375 -10.882  0.00  0.00    -0.274 OA
HETATM    9  N           1     -32.341  -5.026 -12.088  0.00  0.00    -0.370 N 
HETATM   10  H           1     -31.803  -5.806 -12.443  0.00  0.00     0.159 HD
HETATM   11  H           1     -32.114  -4.082 -12.372  0.00  0.00     0.159 HD
ENDBRANCH   6   7
ENDBRANCH   1   6
BRANCH   1  12
HETATM   12  C           1     -34.441  -2.329 -12.419  0.00  0.00     0.249 C 
HETATM   13  O           1     -34.468  -2.991 -13.429  0.00  0.00    -0.271 OA
HETATM   14  N           1     -35.159  -1.166 -12.344  0.00  0.00    -0.345 N 
HETATM   15  H           1     -35.137  -0.612 -11.498  0.00  0.00     0.163 HD
BRANCH  14  16
HETATM   16  C           1     -35.953  -0.729 -13.476  0.00  0.00     0.185 C 
BRANCH  16  17
HETATM   17  C           1     -35.168   0.278 -14.280  0.00  0.00     0.196 C 
HETATM   18  O           1     -34.870   1.383 -13.778  0.00  0.00    -0.646 OA
HETATM   19  O           1     -34.817   0.007 -15.449  0.00  0.00    -0.646 OA
ENDBRANCH  16  17
BRANCH  16  20
HETATM   20  C           1     -37.240  -0.088 -12.974  0.00  0.00     0.039 C 
BRANCH  20  21
HETATM   21 Se           1     -37.248  -0.082 -11.025  0.00  0.00     0.000 Se
HETATM   22  H           1     -36.658   1.261 -10.911  0.00  0.00     0.000 HD
ENDBRANCH  20  21
ENDBRANCH  16  20
ENDBRANCH  14  16
ENDBRANCH   1  12
TORSDOF 8
ENDMDL
MODEL 2
REMARK VINA RESULT:      -5.5      2.903      5.678
REMARK  8 active torsions:
REMARK  status: ('A' for Active; 'I' for Inactive)
REMARK    1  A    between atoms: N_4  and  C_9 
REMARK       I    between atoms: N_6  and  C_7 
REMARK    2  A    between atoms: C_7  and  C_8 
REMARK    3  A    between atoms: C_8  and  C_9 
REMARK    4  A    between atoms: C_9  and  C_12 
REMARK    5  A    between atoms: N_11  and  C_19 
REMARK       I    between atoms: N_11  and  C_12 
REMARK    6  A    between atoms: C_18  and  C_19 
REMARK    7  A    between atoms: C_19  and  C_20 
REMARK    8  A    between atoms: C_20  and  Se_21 
ROOT
HETATM    1  C           1     -35.825   0.360 -14.011  0.00  0.00     0.283 C 
ENDROOT
BRANCH   1   2
HETATM    2  N           1     -34.641   1.246 -13.759  0.00  0.00    -0.066 N 
HETATM    3  H           1     -34.622   1.525 -12.752  0.00  0.00     0.275 HD
HETATM    4  H           1     -33.764   0.730 -13.994  0.00  0.00     0.275 HD
HETATM    5  H           1     -34.713   2.102 -14.354  0.00  0.00     0.275 HD
ENDBRANCH   1   2
BRANCH   1   6
HETATM    6  C           1     -35.782  -0.145 -15.447  0.00  0.00     0.145 C 
BRANCH   6   7
HETATM    7  C           1     -37.154  -0.020 -16.067  0.00  0.00     0.217 C 
HETATM    8  O           1     -37.568  -0.889 -16.796  0.00  0.00    -0.274 OA
HETATM    9  N           1     -37.927   1.077 -15.801  0.00  0.00    -0.370 N 
HETATM   10  H           1     -38.847   1.160 -16.215  0.00  0.00     0.159 HD
HETATM   11  H           1     -37.580   1.804 -15.189  0.00  0.00     0.159 HD
ENDBRANCH   6   7
ENDBRANCH   1   6
BRANCH   1  12
HETATM   12  C           1     -35.785  -0.813 -13.063  0.00  0.00     0.249 C 
HETATM   13  O           1     -36.691  -0.990 -12.284  0.00  0.00    -0.271 OA
HETATM   14  N           1     -34.723  -1.675 -13.084  0.00  0.00    -0.345 N 
HETATM   15  H           1     -33.964  -1.527 -13.736  0.00  0.00     0.163 HD
BRANCH  14  16
HETATM   16  C           1     -34.685  -2.802 -12.172  0.00  0.00     0.185 C 
BRANCH  16  17
HETATM   17  C           1     -33.626  -2.563 -11.123  0.00  0.00     0.196 C 
HETATM   18  O           1     -32.503  -3.099 -11.235  0.00  0.00    -0.646 OA
HETATM   19  O           1     -33.874  -1.829 -10.142  0.00  0.00    -0.646 OA
ENDBRANCH  16  17
BRANCH  16  20
HETATM   20  C           1     -34.355  -4.071 -12.947  0.00  0.00     0.039 C 
BRANCH  20  21
HETATM   21 Se           1     -34.793  -5.629 -11.861  0.00  0.00     0.000 Se
HETATM   22  H           1     -33.909  -6.541 -12.605  0.00  0.00     0.000 HD
ENDBRANCH  20  21
ENDBRANCH  16  20
ENDBRANCH  14  16
ENDBRANCH   1  12
TORSDOF 8
ENDMDL
MODEL 3
REMARK VINA RESULT:      -5.5     10.905     12.091
REMARK  8 active torsions:
REMARK  status: ('A' for Active; 'I' for Inactive)
REMARK    1  A    between atoms: N_4  and  C_9 
REMARK       I    between atoms: N_6  and  C_7 
REMARK    2  A    between atoms: C_7  and  C_8 
REMARK    3  A    between atoms: C_8  and  C_9 
REMARK    4  A    between atoms: C_9  and  C_12 
REMARK    5  A    between atoms: N_11  and  C_19 
REMARK       I    between atoms: N_11  and  C_12 
REMARK    6  A    between atoms: C_18  and  C_19 
REMARK    7  A    between atoms: C_19  and  C_20 
REMARK    8  A    between atoms: C_20  and  Se_21 
ROOT
HETATM    1  C           1     -24.999  -6.941 -19.921  0.00  0.00     0.283 C 
ENDROOT
BRANCH   1   2
HETATM    2  N           1     -24.327  -7.499 -18.702  0.00  0.00    -0.066 N 
HETATM    3  H           1     -23.291  -7.481 -18.835  0.00  0.00     0.275 HD
HETATM    4  H           1     -24.580  -6.921 -17.869  0.00  0.00     0.275 HD
HETATM    5  H           1     -24.641  -8.484 -18.551  0.00  0.00     0.275 HD
ENDBRANCH   1   2
BRANCH   1   6
HETATM    6  C           1     -25.160  -8.042 -20.960  0.00  0.00     0.145 C 
BRANCH   6   7
HETATM    7  C           1     -23.893  -8.156 -21.774  0.00  0.00     0.217 C 
HETATM    8  O           1     -23.787  -7.549 -22.813  0.00  0.00    -0.274 OA
HETATM    9  N           1     -22.866  -8.946 -21.334  0.00  0.00    -0.370 N 
HETATM   10  H           1     -22.017  -9.022 -21.879  0.00  0.00     0.159 HD
HETATM   11  H           1     -22.956  -9.453 -20.463  0.00  0.00     0.159 HD
ENDBRANCH   6   7
ENDBRANCH   1   6
BRANCH   1  12
HETATM   12  C           1     -26.357  -6.402 -19.543  0.00  0.00     0.249 C 
HETATM   13  O           1     -27.116  -6.020 -20.402  0.00  0.00    -0.271 OA
HETATM   14  N           1     -26.729  -6.345 -18.227  0.00  0.00    -0.345 N 
HETATM   15  H           1     -26.094  -6.665 -17.507  0.00  0.00     0.163 HD
BRANCH  14  16
HETATM   16  C           1     -28.034  -5.827 -17.864  0.00  0.00     0.185 C 
BRANCH  16  17
HETATM   17  C           1     -27.894  -4.894 -16.686  0.00  0.00     0.196 C 
HETATM   18  O           1     -27.645  -5.354 -15.551  0.00  0.00    -0.646 OA
HETATM   19  O           1     -28.027  -3.661 -16.846  0.00  0.00    -0.646 OA
ENDBRANCH  16  17
BRANCH  16  20
HETATM   20  C           1     -28.953  -6.983 -17.490  0.00  0.00     0.039 C 
BRANCH  20  21
HETATM   21 Se           1     -30.771  -6.321 -17.261  0.00  0.00     0.000 Se
HETATM   22  H           1     -31.307  -7.047 -18.423  0.00  0.00     0.000 HD
ENDBRANCH  20  21
ENDBRANCH  16  20
ENDBRANCH  14  16
ENDBRANCH   1  12
TORSDOF 8
ENDMDL
MODEL 4
REMARK VINA RESULT:      -5.4      9.560     11.006
REMARK  8 active torsions:
REMARK  status: ('A' for Active; 'I' for Inactive)
REMARK    1  A    between atoms: N_4  and  C_9 
REMARK       I    between atoms: N_6  and  C_7 
REMARK    2  A    between atoms: C_7  and  C_8 
REMARK    3  A    between atoms: C_8  and  C_9 
REMARK    4  A    between atoms: C_9  and  C_12 
REMARK    5  A    between atoms: N_11  and  C_19 
REMARK       I    between atoms: N_11  and  C_12 
REMARK    6  A    between atoms: C_18  and  C_19 
REMARK    7  A    between atoms: C_19  and  C_20 
REMARK    8  A    between atoms: C_20  and  Se_21 
ROOT
HETATM    1  C           1     -25.138  -6.790 -17.009  0.00  0.00     0.283 C 
ENDROOT
BRANCH   1   2
HETATM    2  N           1     -24.241  -7.911 -16.577  0.00  0.00    -0.066 N 
HETATM    3  H           1     -24.662  -8.824 -16.859  0.00  0.00     0.275 HD
HETATM    4  H           1     -23.306  -7.804 -17.032  0.00  0.00     0.275 HD
HETATM    5  H           1     -24.128  -7.887 -15.538  0.00  0.00     0.275 HD
ENDBRANCH   1   2
BRANCH   1   6
HETATM    6  C           1     -25.306  -6.829 -18.522  0.00  0.00     0.145 C 
BRANCH   6   7
HETATM    7  C           1     -23.982  -7.165 -19.167  0.00  0.00     0.217 C 
HETATM    8  O           1     -22.963  -6.673 -18.745  0.00  0.00    -0.274 OA
HETATM    9  N           1     -23.938  -8.028 -20.228  0.00  0.00    -0.370 N 
HETATM   10  H           1     -23.052  -8.254 -20.660  0.00  0.00     0.159 HD
HETATM   11  H           1     -24.793  -8.440 -20.580  0.00  0.00     0.159 HD
ENDBRANCH   6   7
ENDBRANCH   1   6
BRANCH   1  12
HETATM   12  C           1     -26.486  -6.943 -16.348  0.00  0.00     0.249 C 
HETATM   13  O           1     -26.560  -7.353 -15.214  0.00  0.00    -0.271 OA
HETATM   14  N           1     -27.626  -6.617 -17.032  0.00  0.00    -0.345 N 
HETATM   15  H           1     -27.564  -6.273 -17.982  0.00  0.00     0.163 HD
BRANCH  14  16
HETATM   16  C           1     -28.921  -6.765 -16.397  0.00  0.00     0.185 C 
BRANCH  16  17
HETATM   17  C           1     -29.912  -7.305 -17.399  0.00  0.00     0.196 C 
HETATM   18  O           1     -31.068  -6.835 -17.451  0.00  0.00    -0.646 OA
HETATM   19  O           1     -29.576  -8.225 -18.177  0.00  0.00    -0.646 OA
ENDBRANCH  16  17
BRANCH  16  20
HETATM   20  C           1     -29.396  -5.408 -15.894  0.00  0.00     0.039 C 
BRANCH  20  21
HETATM   21 Se           1     -28.763  -4.010 -17.095  0.00  0.00     0.000 Se
HETATM   22  H           1     -29.164  -4.720 -18.320  0.00  0.00     0.000 HD
ENDBRANCH  20  21
ENDBRANCH  16  20
ENDBRANCH  14  16
ENDBRANCH   1  12
TORSDOF 8
ENDMDL
MODEL 5
REMARK VINA RESULT:      -5.4     12.419     13.958
REMARK  8 active torsions:
REMARK  status: ('A' for Active; 'I' for Inactive)
REMARK    1  A    between atoms: N_4  and  C_9 
REMARK       I    between atoms: N_6  and  C_7 
REMARK    2  A    between atoms: C_7  and  C_8 
REMARK    3  A    between atoms: C_8  and  C_9 
REMARK    4  A    between atoms: C_9  and  C_12 
REMARK    5  A    between atoms: N_11  and  C_19 
REMARK       I    between atoms: N_11  and  C_12 
REMARK    6  A    between atoms: C_18  and  C_19 
REMARK    7  A    between atoms: C_19  and  C_20 
REMARK    8  A    between atoms: C_20  and  Se_21 
ROOT
HETATM    1  C           1     -21.090  -5.763  -6.838  0.00  0.00     0.283 C 
ENDROOT
BRANCH   1   2
HETATM    2  N           1     -19.825  -6.227  -7.498  0.00  0.00    -0.066 N 
HETATM    3  H           1     -19.936  -7.219  -7.808  0.00  0.00     0.275 HD
HETATM    4  H           1     -19.624  -5.625  -8.327  0.00  0.00     0.275 HD
HETATM    5  H           1     -19.034  -6.163  -6.819  0.00  0.00     0.275 HD
ENDBRANCH   1   2
BRANCH   1   6
HETATM    6  C           1     -20.792  -5.359  -5.400  0.00  0.00     0.145 C 
BRANCH   6   7
HETATM    7  C           1     -21.816  -5.981  -4.480  0.00  0.00     0.217 C 
HETATM    8  O           1     -22.839  -6.433  -4.934  0.00  0.00    -0.274 OA
HETATM    9  N           1     -21.583  -6.032  -3.132  0.00  0.00    -0.370 N 
HETATM   10  H           1     -22.269  -6.448  -2.516  0.00  0.00     0.159 HD
HETATM   11  H           1     -20.725  -5.653  -2.753  0.00  0.00     0.159 HD
ENDBRANCH   6   7
ENDBRANCH   1   6
BRANCH   1  12
HETATM   12  C           1     -21.642  -4.578  -7.591  0.00  0.00     0.249 C 
HETATM   13  O           1     -21.549  -3.468  -7.122  0.00  0.00    -0.271 OA
HETATM   14  N           1     -22.249  -4.759  -8.804  0.00  0.00    -0.345 N 
HETATM   15  H           1     -22.327  -5.689  -9.197  0.00  0.00     0.163 HD
BRANCH  14  16
HETATM   16  C           1     -22.781  -3.620  -9.527  0.00  0.00     0.185 C 
BRANCH  16  17
HETATM   17  C           1     -24.276  -3.768  -9.667  0.00  0.00     0.196 C 
HETATM   18  O           1     -25.018  -2.773  -9.526  0.00  0.00    -0.646 OA
HETATM   19  O           1     -24.772  -4.887  -9.924  0.00  0.00    -0.646 OA
ENDBRANCH  16  17
BRANCH  16  20
HETATM   20  C           1     -22.144  -3.556 -10.909  0.00  0.00     0.039 C 
BRANCH  20  21
HETATM   21 Se           1     -20.323  -4.244 -10.819  0.00  0.00     0.000 Se
HETATM   22  H           1     -20.180  -4.388 -12.277  0.00  0.00     0.000 HD
ENDBRANCH  20  21
ENDBRANCH  16  20
ENDBRANCH  14  16
ENDBRANCH   1  12
TORSDOF 8
ENDMDL
MODEL 6
REMARK VINA RESULT:      -5.3      2.145      2.429
REMARK  8 active torsions:
REMARK  status: ('A' for Active; 'I' for Inactive)
REMARK    1  A    between atoms: N_4  and  C_9 
REMARK       I    between atoms: N_6  and  C_7 
REMARK    2  A    between atoms: C_7  and  C_8 
REMARK    3  A    between atoms: C_8  and  C_9 
REMARK    4  A    between atoms: C_9  and  C_12 
REMARK    5  A    between atoms: N_11  and  C_19 
REMARK       I    between atoms: N_11  and  C_12 
REMARK    6  A    between atoms: C_18  and  C_19 
REMARK    7  A    between atoms: C_19  and  C_20 
REMARK    8  A    between atoms: C_20  and  Se_21 
ROOT
HETATM    1  C           1     -34.082  -3.434 -10.341  0.00  0.00     0.283 C 
ENDROOT
BRANCH   1   2
HETATM    2  N           1     -34.255  -4.922 -10.422  0.00  0.00    -0.066 N 
HETATM    3  H           1     -35.083  -5.145 -11.018  0.00  0.00     0.275 HD
HETATM    4  H           1     -33.399  -5.350 -10.842  0.00  0.00     0.275 HD
HETATM    5  H           1     -34.403  -5.308  -9.463  0.00  0.00     0.275 HD
ENDBRANCH   1   2
BRANCH   1   6
HETATM    6  C           1     -33.007  -2.995 -11.326  0.00  0.00     0.145 C 
BRANCH   6   7
HETATM    7  C           1     -32.789  -4.081 -12.352  0.00  0.00     0.217 C 
HETATM    8  O           1     -31.958  -4.936 -12.157  0.00  0.00    -0.274 OA
HETATM    9  N           1     -33.532  -4.098 -13.501  0.00  0.00    -0.370 N 
HETATM   10  H           1     -33.386  -4.826 -14.188  0.00  0.00     0.159 HD
HETATM   11  H           1     -34.228  -3.381 -13.663  0.00  0.00     0.159 HD
ENDBRANCH   6   7
ENDBRANCH   1   6
BRANCH   1  12
HETATM   12  C           1     -35.387  -2.758 -10.682  0.00  0.00     0.249 C 
HETATM   13  O           1     -36.405  -3.405 -10.739  0.00  0.00    -0.271 OA
HETATM   14  N           1     -35.418  -1.412 -10.928  0.00  0.00    -0.345 N 
HETATM   15  H           1     -34.565  -0.870 -10.879  0.00  0.00     0.163 HD
BRANCH  14  16
HETATM   16  C           1     -36.672  -0.762 -11.256  0.00  0.00     0.185 C 
BRANCH  16  17
HETATM   17  C           1     -36.648  -0.327 -12.700  0.00  0.00     0.196 C 
HETATM   18  O           1     -37.491  -0.780 -13.504  0.00  0.00    -0.646 OA
HETATM   19  O           1     -35.784   0.486 -13.094  0.00  0.00    -0.646 OA
ENDBRANCH  16  17
BRANCH  16  20
HETATM   20  C           1     -36.861   0.455 -10.361  0.00  0.00     0.039 C 
BRANCH  20  21
HETATM   21 Se           1     -37.273  -0.129  -8.547  0.00  0.00     0.000 Se
HETATM   22  H           1     -37.787  -1.443  -8.963  0.00  0.00     0.000 HD
ENDBRANCH  20  21
ENDBRANCH  16  20
ENDBRANCH  14  16
ENDBRANCH   1  12
TORSDOF 8
ENDMDL
MODEL 7
REMARK VINA RESULT:      -5.2      2.188      2.513
REMARK  8 active torsions:
REMARK  status: ('A' for Active; 'I' for Inactive)
REMARK    1  A    between atoms: N_4  and  C_9 
REMARK       I    between atoms: N_6  and  C_7 
REMARK    2  A    between atoms: C_7  and  C_8 
REMARK    3  A    between atoms: C_8  and  C_9 
REMARK    4  A    between atoms: C_9  and  C_12 
REMARK    5  A    between atoms: N_11  and  C_19 
REMARK       I    between atoms: N_11  and  C_12 
REMARK    6  A    between atoms: C_18  and  C_19 
REMARK    7  A    between atoms: C_19  and  C_20 
REMARK    8  A    between atoms: C_20  and  Se_21 
ROOT
HETATM    1  C           1     -34.389  -2.317 -11.928  0.00  0.00     0.283 C 
ENDROOT
BRANCH   1   2
HETATM    2  N           1     -34.093  -1.445 -10.745  0.00  0.00    -0.066 N 
HETATM    3  H           1     -34.893  -1.482 -10.074  0.00  0.00     0.275 HD
HETATM    4  H           1     -33.226  -1.786 -10.270  0.00  0.00     0.275 HD
HETATM    5  H           1     -33.952  -0.461 -11.063  0.00  0.00     0.275 HD
ENDBRANCH   1   2
BRANCH   1   6
HETATM    6  C           1     -34.998  -3.629 -11.452  0.00  0.00     0.145 C 
BRANCH   6   7
HETATM    7  C           1     -34.693  -4.719 -12.451  0.00  0.00     0.217 C 
HETATM    8  O           1     -34.546  -4.443 -13.618  0.00  0.00    -0.274 OA
HETATM    9  N           1     -34.584  -6.019 -12.035  0.00  0.00    -0.370 N 
HETATM   10  H           1     -34.379  -6.749 -12.705  0.00  0.00     0.159 HD
HETATM   11  H           1     -34.707  -6.248 -11.058  0.00  0.00     0.159 HD
ENDBRANCH   6   7
ENDBRANCH   1   6
BRANCH   1  12
HETATM   12  C           1     -35.362  -1.612 -12.840  0.00  0.00     0.249 C 
HETATM   13  O           1     -36.493  -1.402 -12.470  0.00  0.00    -0.271 OA
HETATM   14  N           1     -34.965  -1.209 -14.086  0.00  0.00    -0.345 N 
HETATM   15  H           1     -34.018  -1.384 -14.396  0.00  0.00     0.163 HD
BRANCH  14  16
HETATM   16  C           1     -35.900  -0.531 -14.963  0.00  0.00     0.185 C 
BRANCH  16  17
HETATM   17  C           1     -35.788  -1.102 -16.355  0.00  0.00     0.196 C 
HETATM   18  O           1     -36.682  -0.876 -17.198  0.00  0.00    -0.646 OA
HETATM   19  O           1     -34.799  -1.802 -16.665  0.00  0.00    -0.646 OA
ENDBRANCH  16  17
BRANCH  16  20
HETATM   20  C           1     -35.576   0.957 -14.996  0.00  0.00     0.039 C 
BRANCH  20  21
HETATM   21 Se           1     -34.447   1.410 -13.473  0.00  0.00     0.000 Se
HETATM   22  H           1     -33.195   1.013 -14.136  0.00  0.00     0.000 HD
ENDBRANCH  20  21
ENDBRANCH  16  20
ENDBRANCH  14  16
ENDBRANCH   1  12
TORSDOF 8
ENDMDL
MODEL 8
REMARK VINA RESULT:      -5.2     10.220     11.536
REMARK  8 active torsions:
REMARK  status: ('A' for Active; 'I' for Inactive)
REMARK    1  A    between atoms: N_4  and  C_9 
REMARK       I    between atoms: N_6  and  C_7 
REMARK    2  A    between atoms: C_7  and  C_8 
REMARK    3  A    between atoms: C_8  and  C_9 
REMARK    4  A    between atoms: C_9  and  C_12 
REMARK    5  A    between atoms: N_11  and  C_19 
REMARK       I    between atoms: N_11  and  C_12 
REMARK    6  A    between atoms: C_18  and  C_19 
REMARK    7  A    between atoms: C_19  and  C_20 
REMARK    8  A    between atoms: C_20  and  Se_21 
ROOT
HETATM    1  C           1     -25.202  -6.474 -19.363  0.00  0.00     0.283 C 
ENDROOT
BRANCH   1   2
HETATM    2  N           1     -24.434  -7.736 -19.101  0.00  0.00    -0.066 N 
HETATM    3  H           1     -24.118  -8.147 -20.008  0.00  0.00     0.275 HD
HETATM    4  H           1     -23.601  -7.519 -18.508  0.00  0.00     0.275 HD
HETATM    5  H           1     -25.047  -8.420 -18.604  0.00  0.00     0.275 HD
ENDBRANCH   1   2
BRANCH   1   6
HETATM    6  C           1     -25.776  -6.514 -20.773  0.00  0.00     0.145 C 
BRANCH   6   7
HETATM    7  C           1     -25.832  -7.944 -21.254  0.00  0.00     0.217 C 
HETATM    8  O           1     -24.864  -8.443 -21.776  0.00  0.00    -0.274 OA
HETATM    9  N           1     -26.979  -8.674 -21.098  0.00  0.00    -0.370 N 
HETATM   10  H           1     -27.017  -9.633 -21.420  0.00  0.00     0.159 HD
HETATM   11  H           1     -27.789  -8.255 -20.660  0.00  0.00     0.159 HD
ENDBRANCH   6   7
ENDBRANCH   1   6
BRANCH   1  12
HETATM   12  C           1     -26.327  -6.355 -18.364  0.00  0.00     0.249 C 
HETATM   13  O           1     -26.079  -6.228 -17.188  0.00  0.00    -0.271 OA
HETATM   14  N           1     -27.627  -6.390 -18.788  0.00  0.00    -0.345 N 
HETATM   15  H           1     -27.835  -6.496 -19.773  0.00  0.00     0.163 HD
BRANCH  14  16
HETATM   16  C           1     -28.708  -6.276 -17.828  0.00  0.00     0.185 C 
BRANCH  16  17
HETATM   17  C           1     -29.535  -7.538 -17.851  0.00  0.00     0.196 C 
HETATM   18  O           1     -29.503  -8.324 -16.880  0.00  0.00    -0.646 OA
HETATM   19  O           1     -30.252  -7.797 -18.842  0.00  0.00    -0.646 OA
ENDBRANCH  16  17
BRANCH  16  20
HETATM   20  C           1     -29.586  -5.086 -18.193  0.00  0.00     0.039 C 
BRANCH  20  21
HETATM   21 Se           1     -30.986  -4.876 -16.854  0.00  0.00     0.000 Se
HETATM   22  H           1     -32.011  -4.455 -17.822  0.00  0.00     0.000 HD
ENDBRANCH  20  21
ENDBRANCH  16  20
ENDBRANCH  14  16
ENDBRANCH   1  12
TORSDOF 8
ENDMDL
MODEL 9
REMARK VINA RESULT:      -5.1     12.713     14.866
REMARK  8 active torsions:
REMARK  status: ('A' for Active; 'I' for Inactive)
REMARK    1  A    between atoms: N_4  and  C_9 
REMARK       I    between atoms: N_6  and  C_7 
REMARK    2  A    between atoms: C_7  and  C_8 
REMARK    3  A    between atoms: C_8  and  C_9 
REMARK    4  A    between atoms: C_9  and  C_12 
REMARK    5  A    between atoms: N_11  and  C_19 
REMARK       I    between atoms: N_11  and  C_12 
REMARK    6  A    between atoms: C_18  and  C_19 
REMARK    7  A    between atoms: C_19  and  C_20 
REMARK    8  A    between atoms: C_20  and  Se_21 
ROOT
HETATM    1  C           1     -23.050  -4.260  -9.036  0.00  0.00     0.283 C 
ENDROOT
BRANCH   1   2
HETATM    2  N           1     -24.296  -3.461  -8.798  0.00  0.00    -0.066 N 
HETATM    3  H           1     -24.041  -2.515  -8.435  0.00  0.00     0.275 HD
HETATM    4  H           1     -24.821  -3.359  -9.696  0.00  0.00     0.275 HD
HETATM    5  H           1     -24.896  -3.952  -8.097  0.00  0.00     0.275 HD
ENDBRANCH   1   2
BRANCH   1   6
HETATM    6  C           1     -22.195  -3.564 -10.087  0.00  0.00     0.145 C 
BRANCH   6   7
HETATM    7  C           1     -22.481  -4.160 -11.445  0.00  0.00     0.217 C 
HETATM    8  O           1     -23.552  -4.672 -11.665  0.00  0.00    -0.274 OA
HETATM    9  N           1     -21.526  -4.120 -12.425  0.00  0.00    -0.370 N 
HETATM   10  H           1     -21.717  -4.519 -13.334  0.00  0.00     0.159 HD
HETATM   11  H           1     -20.629  -3.691 -12.239  0.00  0.00     0.159 HD
ENDBRANCH   6   7
ENDBRANCH   1   6
BRANCH   1  12
HETATM   12  C           1     -22.272  -4.373  -7.748  0.00  0.00     0.249 C 
HETATM   13  O           1     -21.693  -3.409  -7.306  0.00  0.00    -0.271 OA
HETATM   14  N           1     -22.223  -5.566  -7.079  0.00  0.00    -0.345 N 
HETATM   15  H           1     -22.709  -6.373  -7.449  0.00  0.00     0.163 HD
BRANCH  14  16
HETATM   16  C           1     -21.476  -5.674  -5.841  0.00  0.00     0.185 C 
BRANCH  16  17
HETATM   17  C           1     -20.099  -6.220  -6.132  0.00  0.00     0.196 C 
HETATM   18  O           1     -19.861  -7.436  -5.969  0.00  0.00    -0.646 OA
HETATM   19  O           1     -19.197  -5.455  -6.536  0.00  0.00    -0.646 OA
ENDBRANCH  16  17
BRANCH  16  20
HETATM   20  C           1     -22.205  -6.614  -4.890  0.00  0.00     0.039 C 
BRANCH  20  21
HETATM   21 Se           1     -21.575  -6.314  -3.070  0.00  0.00     0.000 Se
HETATM   22  H           1     -20.993  -4.995  -3.365  0.00  0.00     0.000 HD
ENDBRANCH  20  21
ENDBRANCH  16  20
ENDBRANCH  14  16
ENDBRANCH   1  12
TORSDOF 8
ENDMDL
