MODEL 1
REMARK VINA RESULT:      -7.5      0.000      0.000
REMARK  8 active torsions:
REMARK  status: ('A' for Active; 'I' for Inactive)
REMARK    1  A    between atoms: C_1  and  C_19 
REMARK    2  A    between atoms: N_2  and  C_19 
REMARK       I    between atoms: N_2  and  C_13 
REMARK    3  A    between atoms: N_3  and  C_24 
REMARK    4  A    between atoms: C_9  and  C_20 
REMARK    5  A    between atoms: C_12  and  C_24 
REMARK    6  A    between atoms: C_12  and  C_28 
REMARK    7  A    between atoms: C_13  and  C_24 
REMARK    8  A    between atoms: C_19  and  C_20 
ROOT
HETATM    1  N           1     -34.880  -0.810 -13.803  0.00  0.00    -0.344 N 
HETATM    2  O           1     -36.191   0.718 -14.768  0.00  0.00    -0.271 OA
HETATM    3  C           1     -35.746  -0.405 -14.783  0.00  0.00     0.249 C 
HETATM    4  H           1     -33.883  -0.685 -13.926  0.00  0.00     0.163 HD
ENDROOT
BRANCH   3   5
HETATM    5  C           1     -36.143  -1.360 -15.880  0.00  0.00     0.280 C 
BRANCH   5   6
HETATM    6  N           1     -37.380  -0.853 -16.561  0.00  0.00    -0.066 N 
HETATM    7  H           1     -37.993  -0.375 -15.862  0.00  0.00     0.275 HD
HETATM    8  H           1     -37.112  -0.176 -17.309  0.00  0.00     0.275 HD
HETATM    9  H           1     -37.898  -1.655 -16.985  0.00  0.00     0.275 HD
ENDBRANCH   5   6
BRANCH   5  10
HETATM   10  C           1     -35.013  -1.465 -16.896  0.00  0.00     0.101 C 
BRANCH  10  11
HETATM   11  C           1     -34.279  -2.754 -16.696  0.00  0.00     0.028 A 
HETATM   12  N           1     -33.128  -3.106 -17.352  0.00  0.00    -0.355 N 
HETATM   13  C           1     -32.816  -4.295 -16.892  0.00  0.00     0.180 A 
ATOM     14  HN          1     -32.622  -2.559 -18.050  1.00  0.00     0.166 HD
HETATM   15  N           1     -33.720  -4.725 -15.963  0.00  0.00    -0.360 N 
HETATM   16  H           1     -33.694  -5.640 -15.448  0.00  0.00     0.166 HD
HETATM   17  C           1     -34.665  -3.746 -15.826  0.00  0.00     0.114 A 
ENDBRANCH  10  11
ENDBRANCH   5  10
ENDBRANCH   3   5
BRANCH   1  18
HETATM   18  C           1     -35.390  -1.419 -12.590  0.00  0.00     0.189 C 
BRANCH  18  19
HETATM   19  C           1     -36.401  -0.498 -11.952  0.00  0.00     0.197 C 
HETATM   20  O           1     -37.623  -0.722 -12.088  0.00  0.00    -0.646 OA
HETATM   21  O           1     -36.016   0.489 -11.289  0.00  0.00    -0.646 OA
ENDBRANCH  18  19
BRANCH  18  22
HETATM   22  C           1     -34.239  -1.660 -11.622  0.00  0.00     0.074 C 
BRANCH  22  23
HETATM   23  C           1     -34.052  -3.132 -11.426  0.00  0.00    -0.056 A 
HETATM   24  C           1     -35.076  -3.896 -10.866  0.00  0.00     0.007 A 
HETATM   25  C           1     -34.903  -5.268 -10.683  0.00  0.00     0.001 A 
HETATM   26  C           1     -33.705  -5.876 -11.061  0.00  0.00     0.000 A 
HETATM   27  C           1     -32.682  -5.111 -11.620  0.00  0.00     0.001 A 
HETATM   28  C           1     -32.856  -3.740 -11.803  0.00  0.00     0.007 A 
ENDBRANCH  22  23
ENDBRANCH  18  22
ENDBRANCH   1  18
TORSDOF 8
ENDMDL
MODEL 2
REMARK VINA RESULT:      -7.3     15.033     17.184
REMARK  8 active torsions:
REMARK  status: ('A' for Active; 'I' for Inactive)
REMARK    1  A    between atoms: C_1  and  C_19 
REMARK    2  A    between atoms: N_2  and  C_19 
REMARK       I    between atoms: N_2  and  C_13 
REMARK    3  A    between atoms: N_3  and  C_24 
REMARK    4  A    between atoms: C_9  and  C_20 
REMARK    5  A    between atoms: C_12  and  C_24 
REMARK    6  A    between atoms: C_12  and  C_28 
REMARK    7  A    between atoms: C_13  and  C_24 
REMARK    8  A    between atoms: C_19  and  C_20 
ROOT
HETATM    1  N           1     -20.887  -7.574  -6.013  0.00  0.00    -0.344 N 
HETATM    2  O           1     -19.389  -6.505  -7.276  0.00  0.00    -0.271 OA
HETATM    3  C           1     -20.332  -6.433  -6.525  0.00  0.00     0.249 C 
HETATM    4  H           1     -21.640  -8.037  -6.507  0.00  0.00     0.163 HD
ENDROOT
BRANCH   3   5
HETATM    5  C           1     -20.899  -5.086  -6.152  0.00  0.00     0.280 C 
BRANCH   5   6
HETATM    6  N           1     -20.230  -4.591  -4.903  0.00  0.00    -0.066 N 
HETATM    7  H           1     -19.546  -5.305  -4.566  0.00  0.00     0.275 HD
HETATM    8  H           1     -19.728  -3.698  -5.109  0.00  0.00     0.275 HD
HETATM    9  H           1     -20.950  -4.424  -4.165  0.00  0.00     0.275 HD
ENDBRANCH   5   6
BRANCH   5  10
HETATM   10  C           1     -20.651  -4.098  -7.284  0.00  0.00     0.101 C 
BRANCH  10  11
HETATM   11  C           1     -21.807  -4.127  -8.235  0.00  0.00     0.028 A 
HETATM   12  N           1     -23.114  -3.918  -7.879  0.00  0.00    -0.355 N 
HETATM   13  C           1     -23.799  -4.027  -8.993  0.00  0.00     0.180 A 
ATOM     14  HN          1     -23.477  -3.719  -6.946  1.00  0.00     0.166 HD
HETATM   15  N           1     -22.984  -4.298 -10.056  0.00  0.00    -0.360 N 
HETATM   16  H           1     -23.288  -4.430 -11.053  0.00  0.00     0.166 HD
HETATM   17  C           1     -21.703  -4.364  -9.585  0.00  0.00     0.114 A 
ENDBRANCH  10  11
ENDBRANCH   5  10
ENDBRANCH   3   5
BRANCH   1  18
HETATM   18  C           1     -20.397  -8.121  -4.763  0.00  0.00     0.189 C 
BRANCH  18  19
HETATM   19  C           1     -19.223  -9.029  -5.036  0.00  0.00     0.197 C 
HETATM   20  O           1     -18.284  -9.100  -4.215  0.00  0.00    -0.646 OA
HETATM   21  O           1     -19.191  -9.709  -6.085  0.00  0.00    -0.646 OA
ENDBRANCH  18  19
BRANCH  18  22
HETATM   22  C           1     -21.508  -8.915  -4.087  0.00  0.00     0.074 C 
BRANCH  22  23
HETATM   23  C           1     -21.776  -8.343  -2.730  0.00  0.00    -0.056 A 
HETATM   24  C           1     -21.931  -6.965  -2.573  0.00  0.00     0.007 A 
HETATM   25  C           1     -22.181  -6.431  -1.309  0.00  0.00     0.001 A 
HETATM   26  C           1     -22.277  -7.275  -0.202  0.00  0.00     0.000 A 
HETATM   27  C           1     -22.121  -8.652  -0.360  0.00  0.00     0.001 A 
HETATM   28  C           1     -21.871  -9.186  -1.624  0.00  0.00     0.007 A 
ENDBRANCH  22  23
ENDBRANCH  18  22
ENDBRANCH   1  18
TORSDOF 8
ENDMDL
MODEL 3
REMARK VINA RESULT:      -7.1     14.647     17.304
REMARK  8 active torsions:
REMARK  status: ('A' for Active; 'I' for Inactive)
REMARK    1  A    between atoms: C_1  and  C_19 
REMARK    2  A    between atoms: N_2  and  C_19 
REMARK       I    between atoms: N_2  and  C_13 
REMARK    3  A    between atoms: N_3  and  C_24 
REMARK    4  A    between atoms: C_9  and  C_20 
REMARK    5  A    between atoms: C_12  and  C_24 
REMARK    6  A    between atoms: C_12  and  C_28 
REMARK    7  A    between atoms: C_13  and  C_24 
REMARK    8  A    between atoms: C_19  and  C_20 
ROOT
HETATM    1  N           1     -22.202  -5.633  -5.613  0.00  0.00    -0.344 N 
HETATM    2  O           1     -20.865  -5.636  -3.825  0.00  0.00    -0.271 OA
HETATM    3  C           1     -21.553  -6.269  -4.589  0.00  0.00     0.249 C 
HETATM    4  H           1     -23.135  -5.269  -5.472  0.00  0.00     0.163 HD
ENDROOT
BRANCH   3   5
HETATM    5  C           1     -21.701  -7.760  -4.415  0.00  0.00     0.280 C 
BRANCH   5   6
HETATM    6  N           1     -21.308  -8.453  -5.686  0.00  0.00    -0.066 N 
HETATM    7  H           1     -20.849  -7.769  -6.329  0.00  0.00     0.275 HD
HETATM    8  H           1     -20.643  -9.228  -5.468  0.00  0.00     0.275 HD
HETATM    9  H           1     -22.161  -8.844  -6.147  0.00  0.00     0.275 HD
ENDBRANCH   5   6
BRANCH   5  10
HETATM   10  C           1     -20.798  -8.232  -3.282  0.00  0.00     0.101 C 
BRANCH  10  11
HETATM   11  C           1     -21.581  -8.284  -2.007  0.00  0.00     0.028 A 
HETATM   12  N           1     -21.951  -7.187  -1.274  0.00  0.00    -0.355 N 
HETATM   13  C           1     -22.614  -7.664  -0.247  0.00  0.00     0.180 A 
ATOM     14  HN          1     -21.753  -6.208  -1.483  1.00  0.00     0.166 HD
HETATM   15  N           1     -22.688  -9.027  -0.288  0.00  0.00    -0.360 N 
HETATM   16  H           1     -23.164  -9.645   0.416  0.00  0.00     0.166 HD
HETATM   17  C           1     -22.030  -9.440  -1.413  0.00  0.00     0.114 A 
ENDBRANCH  10  11
ENDBRANCH   5  10
ENDBRANCH   3   5
BRANCH   1  18
HETATM   18  C           1     -21.550  -5.480  -6.899  0.00  0.00     0.189 C 
BRANCH  18  19
HETATM   19  C           1     -20.055  -5.566  -6.719  0.00  0.00     0.197 C 
HETATM   20  O           1     -19.409  -4.555  -6.366  0.00  0.00    -0.646 OA
HETATM   21  O           1     -19.462  -6.647  -6.923  0.00  0.00    -0.646 OA
ENDBRANCH  18  19
BRANCH  18  22
HETATM   22  C           1     -21.914  -4.126  -7.494  0.00  0.00     0.074 C 
BRANCH  22  23
HETATM   23  C           1     -21.881  -4.212  -8.989  0.00  0.00    -0.056 A 
HETATM   24  C           1     -20.684  -3.994  -9.672  0.00  0.00     0.007 A 
HETATM   25  C           1     -20.652  -4.073 -11.064  0.00  0.00     0.001 A 
HETATM   26  C           1     -21.816  -4.372 -11.773  0.00  0.00     0.000 A 
HETATM   27  C           1     -23.012  -4.590 -11.089  0.00  0.00     0.001 A 
HETATM   28  C           1     -23.044  -4.510  -9.697  0.00  0.00     0.007 A 
ENDBRANCH  22  23
ENDBRANCH  18  22
ENDBRANCH   1  18
TORSDOF 8
ENDMDL
MODEL 4
REMARK VINA RESULT:      -7.1     15.045     17.193
REMARK  8 active torsions:
REMARK  status: ('A' for Active; 'I' for Inactive)
REMARK    1  A    between atoms: C_1  and  C_19 
REMARK    2  A    between atoms: N_2  and  C_19 
REMARK       I    between atoms: N_2  and  C_13 
REMARK    3  A    between atoms: N_3  and  C_24 
REMARK    4  A    between atoms: C_9  and  C_20 
REMARK    5  A    between atoms: C_12  and  C_24 
REMARK    6  A    between atoms: C_12  and  C_28 
REMARK    7  A    between atoms: C_13  and  C_24 
REMARK    8  A    between atoms: C_19  and  C_20 
ROOT
HETATM    1  N           1     -21.026  -7.730  -5.875  0.00  0.00    -0.344 N 
HETATM    2  O           1     -19.577  -6.643  -7.181  0.00  0.00    -0.271 OA
HETATM    3  C           1     -20.499  -6.582  -6.403  0.00  0.00     0.249 C 
HETATM    4  H           1     -21.786  -8.202  -6.348  0.00  0.00     0.163 HD
ENDROOT
BRANCH   3   5
HETATM    5  C           1     -21.072  -5.242  -6.014  0.00  0.00     0.280 C 
BRANCH   5   6
HETATM    6  N           1     -20.450  -4.788  -4.726  0.00  0.00    -0.066 N 
HETATM    7  H           1     -19.415  -4.915  -4.774  0.00  0.00     0.275 HD
HETATM    8  H           1     -20.671  -3.779  -4.570  0.00  0.00     0.275 HD
HETATM    9  H           1     -20.834  -5.355  -3.936  0.00  0.00     0.275 HD
ENDBRANCH   5   6
BRANCH   5  10
HETATM   10  C           1     -20.772  -4.224  -7.106  0.00  0.00     0.101 C 
BRANCH  10  11
HETATM   11  C           1     -21.875  -4.237  -8.118  0.00  0.00     0.028 A 
HETATM   12  N           1     -23.203  -4.058  -7.826  0.00  0.00    -0.355 N 
HETATM   13  C           1     -23.825  -4.139  -8.979  0.00  0.00     0.180 A 
ATOM     14  HN          1     -23.617  -3.895  -6.909  1.00  0.00     0.166 HD
HETATM   15  N           1     -22.951  -4.364 -10.005  0.00  0.00    -0.360 N 
HETATM   16  H           1     -23.199  -4.467 -11.020  0.00  0.00     0.166 HD
HETATM   17  C           1     -21.695  -4.428  -9.468  0.00  0.00     0.114 A 
ENDBRANCH  10  11
ENDBRANCH   5  10
ENDBRANCH   3   5
BRANCH   1  18
HETATM   18  C           1     -20.494  -8.271  -4.640  0.00  0.00     0.189 C 
BRANCH  18  19
HETATM   19  C           1     -19.305  -9.148  -4.945  0.00  0.00     0.197 C 
HETATM   20  O           1     -19.296  -9.851  -5.979  0.00  0.00    -0.646 OA
HETATM   21  O           1     -18.329  -9.173  -4.164  0.00  0.00    -0.646 OA
ENDBRANCH  18  19
BRANCH  18  22
HETATM   22  C           1     -21.569  -9.095  -3.943  0.00  0.00     0.074 C 
BRANCH  22  23
HETATM   23  C           1     -21.833  -8.523  -2.584  0.00  0.00    -0.056 A 
HETATM   24  C           1     -21.961  -9.372  -1.485  0.00  0.00     0.007 A 
HETATM   25  C           1     -22.207  -8.841  -0.218  0.00  0.00     0.001 A 
HETATM   26  C           1     -22.325  -7.461  -0.052  0.00  0.00     0.000 A 
HETATM   27  C           1     -22.197  -6.613  -1.152  0.00  0.00     0.001 A 
HETATM   28  C           1     -21.951  -7.145  -2.418  0.00  0.00     0.007 A 
ENDBRANCH  22  23
ENDBRANCH  18  22
ENDBRANCH   1  18
TORSDOF 8
ENDMDL
MODEL 5
REMARK VINA RESULT:      -6.9     15.382     17.575
REMARK  8 active torsions:
REMARK  status: ('A' for Active; 'I' for Inactive)
REMARK    1  A    between atoms: C_1  and  C_19 
REMARK    2  A    between atoms: N_2  and  C_19 
REMARK       I    between atoms: N_2  and  C_13 
REMARK    3  A    between atoms: N_3  and  C_24 
REMARK    4  A    between atoms: C_9  and  C_20 
REMARK    5  A    between atoms: C_12  and  C_24 
REMARK    6  A    between atoms: C_12  and  C_28 
REMARK    7  A    between atoms: C_13  and  C_24 
REMARK    8  A    between atoms: C_19  and  C_20 
ROOT
HETATM    1  N           1     -20.870  -8.433  -5.366  0.00  0.00    -0.344 N 
HETATM    2  O           1     -19.511  -7.119  -6.553  0.00  0.00    -0.271 OA
HETATM    3  C           1     -20.510  -7.218  -5.883  0.00  0.00     0.249 C 
HETATM    4  H           1     -21.470  -9.052  -5.896  0.00  0.00     0.163 HD
ENDROOT
BRANCH   3   5
HETATM    5  C           1     -21.363  -6.003  -5.615  0.00  0.00     0.280 C 
BRANCH   5   6
HETATM    6  N           1     -21.277  -5.642  -4.162  0.00  0.00    -0.066 N 
HETATM    7  H           1     -21.044  -4.628  -4.067  0.00  0.00     0.275 HD
HETATM    8  H           1     -22.195  -5.832  -3.702  0.00  0.00     0.275 HD
HETATM    9  H           1     -20.533  -6.214  -3.705  0.00  0.00     0.275 HD
ENDBRANCH   5   6
BRANCH   5  10
HETATM   10  C           1     -20.864  -4.836  -6.457  0.00  0.00     0.101 C 
BRANCH  10  11
HETATM   11  C           1     -21.935  -4.416  -7.416  0.00  0.00     0.028 A 
HETATM   12  N           1     -21.705  -3.894  -8.662  0.00  0.00    -0.355 N 
HETATM   13  C           1     -22.895  -3.665  -9.167  0.00  0.00     0.180 A 
ATOM     14  HN          1     -20.802  -3.719  -9.102  1.00  0.00     0.166 HD
HETATM   15  N           1     -23.885  -4.021  -8.296  0.00  0.00    -0.360 N 
HETATM   16  H           1     -24.919  -3.938  -8.463  0.00  0.00     0.166 HD
HETATM   17  C           1     -23.285  -4.506  -7.167  0.00  0.00     0.114 A 
ENDBRANCH  10  11
ENDBRANCH   5  10
ENDBRANCH   3   5
BRANCH   1  18
HETATM   18  C           1     -20.391  -8.835  -4.057  0.00  0.00     0.189 C 
BRANCH  18  19
HETATM   19  C           1     -19.029  -9.471  -4.194  0.00  0.00     0.197 C 
HETATM   20  O           1     -18.801 -10.264  -5.133  0.00  0.00    -0.646 OA
HETATM   21  O           1     -18.130  -9.205  -3.368  0.00  0.00    -0.646 OA
ENDBRANCH  18  19
BRANCH  18  22
HETATM   22  C           1     -21.362  -9.838  -3.448  0.00  0.00     0.074 C 
BRANCH  22  23
HETATM   23  C           1     -21.867  -9.313  -2.140  0.00  0.00    -0.056 A 
HETATM   24  C           1     -22.617 -10.137  -1.302  0.00  0.00     0.007 A 
HETATM   25  C           1     -23.088  -9.649  -0.083  0.00  0.00     0.001 A 
HETATM   26  C           1     -22.809  -8.336   0.297  0.00  0.00     0.000 A 
HETATM   27  C           1     -22.059  -7.512  -0.543  0.00  0.00     0.001 A 
HETATM   28  C           1     -21.588  -8.001  -1.761  0.00  0.00     0.007 A 
ENDBRANCH  22  23
ENDBRANCH  18  22
ENDBRANCH   1  18
TORSDOF 8
ENDMDL
MODEL 6
REMARK VINA RESULT:      -6.7     16.452     18.709
REMARK  8 active torsions:
REMARK  status: ('A' for Active; 'I' for Inactive)
REMARK    1  A    between atoms: C_1  and  C_19 
REMARK    2  A    between atoms: N_2  and  C_19 
REMARK       I    between atoms: N_2  and  C_13 
REMARK    3  A    between atoms: N_3  and  C_24 
REMARK    4  A    between atoms: C_9  and  C_20 
REMARK    5  A    between atoms: C_12  and  C_24 
REMARK    6  A    between atoms: C_12  and  C_28 
REMARK    7  A    between atoms: C_13  and  C_24 
REMARK    8  A    between atoms: C_19  and  C_20 
ROOT
HETATM    1  N           1     -21.104  -7.589  -1.473  0.00  0.00    -0.344 N 
HETATM    2  O           1     -22.307  -5.950  -2.397  0.00  0.00    -0.271 OA
HETATM    3  C           1     -21.631  -6.938  -2.556  0.00  0.00     0.249 C 
HETATM    4  H           1     -20.191  -7.330  -1.122  0.00  0.00     0.163 HD
ENDROOT
BRANCH   3   5
HETATM    5  C           1     -21.367  -7.456  -3.948  0.00  0.00     0.280 C 
BRANCH   5   6
HETATM    6  N           1     -21.828  -8.880  -4.048  0.00  0.00    -0.066 N 
HETATM    7  H           1     -22.259  -9.172  -3.142  0.00  0.00     0.275 HD
HETATM    8  H           1     -22.534  -8.963  -4.812  0.00  0.00     0.275 HD
HETATM    9  H           1     -21.011  -9.496  -4.258  0.00  0.00     0.275 HD
ENDBRANCH   5   6
BRANCH   5  10
HETATM   10  C           1     -22.126  -6.606  -4.959  0.00  0.00     0.101 C 
BRANCH  10  11
HETATM   11  C           1     -21.155  -5.956  -5.895  0.00  0.00     0.028 A 
HETATM   12  N           1     -20.966  -6.326  -7.202  0.00  0.00    -0.355 N 
HETATM   13  C           1     -20.041  -5.514  -7.660  0.00  0.00     0.180 A 
ATOM     14  HN          1     -21.442  -7.071  -7.709  1.00  0.00     0.166 HD
HETATM   15  N           1     -19.626  -4.635  -6.701  0.00  0.00    -0.360 N 
HETATM   16  H           1     -18.897  -3.887  -6.817  0.00  0.00     0.166 HD
HETATM   17  C           1     -20.332  -4.906  -5.562  0.00  0.00     0.114 A 
ENDBRANCH  10  11
ENDBRANCH   5  10
ENDBRANCH   3   5
BRANCH   1  18
HETATM   18  C           1     -21.855  -8.649  -0.828  0.00  0.00     0.189 C 
BRANCH  18  19
HETATM   19  C           1     -22.285  -8.196   0.546  0.00  0.00     0.197 C 
HETATM   20  O           1     -21.448  -8.126   1.471  0.00  0.00    -0.646 OA
HETATM   21  O           1     -23.479  -7.893   0.758  0.00  0.00    -0.646 OA
ENDBRANCH  18  19
BRANCH  18  22
HETATM   22  C           1     -20.978  -9.888  -0.704  0.00  0.00     0.074 C 
BRANCH  22  23
HETATM   23  C           1     -21.811 -11.047  -0.254  0.00  0.00    -0.056 A 
HETATM   24  C           1     -23.059 -11.274  -0.834  0.00  0.00     0.007 A 
HETATM   25  C           1     -23.837 -12.354  -0.416  0.00  0.00     0.001 A 
HETATM   26  C           1     -23.366 -13.206   0.583  0.00  0.00     0.000 A 
HETATM   27  C           1     -22.118 -12.978   1.163  0.00  0.00     0.001 A 
HETATM   28  C           1     -21.341 -11.899   0.744  0.00  0.00     0.007 A 
ENDBRANCH  22  23
ENDBRANCH  18  22
ENDBRANCH   1  18
TORSDOF 8
ENDMDL
MODEL 7
REMARK VINA RESULT:      -6.7      1.520      2.503
REMARK  8 active torsions:
REMARK  status: ('A' for Active; 'I' for Inactive)
REMARK    1  A    between atoms: C_1  and  C_19 
REMARK    2  A    between atoms: N_2  and  C_19 
REMARK       I    between atoms: N_2  and  C_13 
REMARK    3  A    between atoms: N_3  and  C_24 
REMARK    4  A    between atoms: C_9  and  C_20 
REMARK    5  A    between atoms: C_12  and  C_24 
REMARK    6  A    between atoms: C_12  and  C_28 
REMARK    7  A    between atoms: C_13  and  C_24 
REMARK    8  A    between atoms: C_19  and  C_20 
ROOT
HETATM    1  N           1     -34.784  -1.408 -14.559  0.00  0.00    -0.344 N 
HETATM    2  O           1     -35.842  -2.048 -16.418  0.00  0.00    -0.271 OA
HETATM    3  C           1     -34.948  -2.244 -15.631  0.00  0.00     0.249 C 
HETATM    4  H           1     -34.191  -0.591 -14.641  0.00  0.00     0.163 HD
ENDROOT
BRANCH   3   5
HETATM    5  C           1     -34.011  -3.410 -15.827  0.00  0.00     0.280 C 
BRANCH   5   6
HETATM    6  N           1     -34.743  -4.691 -15.555  0.00  0.00    -0.066 N 
HETATM    7  H           1     -34.079  -5.494 -15.622  0.00  0.00     0.275 HD
HETATM    8  H           1     -35.154  -4.658 -14.595  0.00  0.00     0.275 HD
HETATM    9  H           1     -35.507  -4.811 -16.258  0.00  0.00     0.275 HD
ENDBRANCH   5   6
BRANCH   5  10
HETATM   10  C           1     -33.500  -3.415 -17.262  0.00  0.00     0.101 C 
BRANCH  10  11
HETATM   11  C           1     -32.047  -3.775 -17.274  0.00  0.00     0.028 A 
HETATM   12  N           1     -31.045  -2.961 -17.735  0.00  0.00    -0.355 N 
HETATM   13  C           1     -29.937  -3.645 -17.568  0.00  0.00     0.180 A 
ATOM     14  HN          1     -31.141  -2.023 -18.125  1.00  0.00     0.166 HD
HETATM   15  N           1     -30.184  -4.870 -17.015  0.00  0.00    -0.360 N 
HETATM   16  H           1     -29.468  -5.602 -16.782  0.00  0.00     0.166 HD
HETATM   17  C           1     -31.534  -4.968 -16.820  0.00  0.00     0.114 A 
ENDBRANCH  10  11
ENDBRANCH   5  10
ENDBRANCH   3   5
BRANCH   1  18
HETATM   18  C           1     -35.458  -1.691 -13.308  0.00  0.00     0.189 C 
BRANCH  18  19
HETATM   19  C           1     -36.493  -0.626 -13.041  0.00  0.00     0.197 C 
HETATM   20  O           1     -36.238   0.309 -12.252  0.00  0.00    -0.646 OA
HETATM   21  O           1     -37.605  -0.679 -13.610  0.00  0.00    -0.646 OA
ENDBRANCH  18  19
BRANCH  18  22
HETATM   22  C           1     -34.440  -1.707 -12.175  0.00  0.00     0.074 C 
BRANCH  22  23
HETATM   23  C           1     -34.194  -3.119 -11.744  0.00  0.00    -0.056 A 
HETATM   24  C           1     -32.974  -3.732 -12.032  0.00  0.00     0.007 A 
HETATM   25  C           1     -32.743  -5.048 -11.631  0.00  0.00     0.001 A 
HETATM   26  C           1     -33.732  -5.750 -10.942  0.00  0.00     0.000 A 
HETATM   27  C           1     -34.951  -5.137 -10.655  0.00  0.00     0.001 A 
HETATM   28  C           1     -35.181  -3.821 -11.056  0.00  0.00     0.007 A 
ENDBRANCH  22  23
ENDBRANCH  18  22
ENDBRANCH   1  18
TORSDOF 8
ENDMDL
MODEL 8
REMARK VINA RESULT:      -6.7     15.361     17.616
REMARK  8 active torsions:
REMARK  status: ('A' for Active; 'I' for Inactive)
REMARK    1  A    between atoms: C_1  and  C_19 
REMARK    2  A    between atoms: N_2  and  C_19 
REMARK       I    between atoms: N_2  and  C_13 
REMARK    3  A    between atoms: N_3  and  C_24 
REMARK    4  A    between atoms: C_9  and  C_20 
REMARK    5  A    between atoms: C_12  and  C_24 
REMARK    6  A    between atoms: C_12  and  C_28 
REMARK    7  A    between atoms: C_13  and  C_24 
REMARK    8  A    between atoms: C_19  and  C_20 
ROOT
HETATM    1  N           1     -21.489  -6.412  -3.124  0.00  0.00    -0.344 N 
HETATM    2  O           1     -22.846  -6.085  -4.867  0.00  0.00    -0.271 OA
HETATM    3  C           1     -21.717  -6.213  -4.459  0.00  0.00     0.249 C 
HETATM    4  H           1     -21.351  -5.619  -2.510  0.00  0.00     0.163 HD
ENDROOT
BRANCH   3   5
HETATM    5  C           1     -20.556  -6.152  -5.421  0.00  0.00     0.280 C 
BRANCH   5   6
HETATM    6  N           1     -20.891  -6.928  -6.660  0.00  0.00    -0.066 N 
HETATM    7  H           1     -21.108  -6.266  -7.439  0.00  0.00     0.275 HD
HETATM    8  H           1     -20.077  -7.526  -6.926  0.00  0.00     0.275 HD
HETATM    9  H           1     -21.723  -7.533  -6.476  0.00  0.00     0.275 HD
ENDBRANCH   5   6
BRANCH   5  10
HETATM   10  C           1     -20.279  -4.701  -5.792  0.00  0.00     0.101 C 
BRANCH  10  11
HETATM   11  C           1     -20.945  -4.382  -7.095  0.00  0.00     0.028 A 
HETATM   12  N           1     -22.274  -4.076  -7.236  0.00  0.00    -0.355 N 
HETATM   13  C           1     -22.446  -3.865  -8.520  0.00  0.00     0.180 A 
ATOM     14  HN          1     -22.978  -4.022  -6.499  1.00  0.00     0.166 HD
HETATM   15  N           1     -21.280  -4.024  -9.214  0.00  0.00    -0.360 N 
HETATM   16  H           1     -21.154  -3.911 -10.251  0.00  0.00     0.166 HD
HETATM   17  C           1     -20.307  -4.355  -8.313  0.00  0.00     0.114 A 
ENDBRANCH  10  11
ENDBRANCH   5  10
ENDBRANCH   3   5
BRANCH   1  18
HETATM   18  C           1     -21.447  -7.758  -2.589  0.00  0.00     0.189 C 
BRANCH  18  19
HETATM   19  C           1     -22.154  -7.792  -1.256  0.00  0.00     0.197 C 
HETATM   20  O           1     -22.700  -6.759  -0.812  0.00  0.00    -0.646 OA
HETATM   21  O           1     -22.193  -8.853  -0.596  0.00  0.00    -0.646 OA
ENDBRANCH  18  19
BRANCH  18  22
HETATM   22  C           1     -19.996  -8.186  -2.406  0.00  0.00     0.074 C 
BRANCH  22  23
HETATM   23  C           1     -19.603  -9.106  -3.520  0.00  0.00    -0.056 A 
HETATM   24  C           1     -18.254  -9.317  -3.806  0.00  0.00     0.007 A 
HETATM   25  C           1     -17.887 -10.174  -4.843  0.00  0.00     0.001 A 
HETATM   26  C           1     -18.869 -10.821  -5.594  0.00  0.00     0.000 A 
HETATM   27  C           1     -20.218 -10.610  -5.307  0.00  0.00     0.001 A 
HETATM   28  C           1     -20.584  -9.752  -4.270  0.00  0.00     0.007 A 
ENDBRANCH  22  23
ENDBRANCH  18  22
ENDBRANCH   1  18
TORSDOF 8
ENDMDL
MODEL 9
REMARK VINA RESULT:      -6.6     17.492     19.587
REMARK  8 active torsions:
REMARK  status: ('A' for Active; 'I' for Inactive)
REMARK    1  A    between atoms: C_1  and  C_19 
REMARK    2  A    between atoms: N_2  and  C_19 
REMARK       I    between atoms: N_2  and  C_13 
REMARK    3  A    between atoms: N_3  and  C_24 
REMARK    4  A    between atoms: C_9  and  C_20 
REMARK    5  A    between atoms: C_12  and  C_24 
REMARK    6  A    between atoms: C_12  and  C_28 
REMARK    7  A    between atoms: C_13  and  C_24 
REMARK    8  A    between atoms: C_19  and  C_20 
ROOT
HETATM    1  N           1     -20.001  -7.786  -3.725  0.00  0.00    -0.344 N 
HETATM    2  O           1     -19.887  -7.740  -5.954  0.00  0.00    -0.271 OA
HETATM    3  C           1     -19.728  -8.367  -4.934  0.00  0.00     0.249 C 
HETATM    4  H           1     -19.276  -7.283  -3.230  0.00  0.00     0.163 HD
ENDROOT
BRANCH   3   5
HETATM    5  C           1     -19.227  -9.788  -4.992  0.00  0.00     0.280 C 
BRANCH   5   6
HETATM    6  N           1     -20.092 -10.585  -5.923  0.00  0.00    -0.066 N 
HETATM    7  H           1     -21.074 -10.232  -5.877  0.00  0.00     0.275 HD
HETATM    8  H           1     -19.732 -10.488  -6.899  0.00  0.00     0.275 HD
HETATM    9  H           1     -20.071 -11.591  -5.642  0.00  0.00     0.275 HD
ENDBRANCH   5   6
BRANCH   5  10
HETATM   10  C           1     -17.791  -9.801  -5.499  0.00  0.00     0.101 C 
BRANCH  10  11
HETATM   11  C           1     -16.869 -10.178  -4.381  0.00  0.00     0.028 A 
HETATM   12  N           1     -16.782  -9.513  -3.186  0.00  0.00    -0.355 N 
HETATM   13  C           1     -15.869 -10.158  -2.497  0.00  0.00     0.180 A 
ATOM     14  HN          1     -17.314  -8.694  -2.893  1.00  0.00     0.166 HD
HETATM   15  N           1     -15.363 -11.213  -3.201  0.00  0.00    -0.360 N 
HETATM   16  H           1     -14.623 -11.882  -2.872  0.00  0.00     0.166 HD
HETATM   17  C           1     -15.995 -11.239  -4.413  0.00  0.00     0.114 A 
ENDBRANCH  10  11
ENDBRANCH   5  10
ENDBRANCH   3   5
BRANCH   1  18
HETATM   18  C           1     -21.329  -7.892  -3.153  0.00  0.00     0.189 C 
BRANCH  18  19
HETATM   19  C           1     -22.020  -6.553  -3.233  0.00  0.00     0.197 C 
HETATM   20  O           1     -22.254  -5.908  -2.189  0.00  0.00    -0.646 OA
HETATM   21  O           1     -22.357  -6.090  -4.344  0.00  0.00    -0.646 OA
ENDBRANCH  18  19
BRANCH  18  22
HETATM   22  C           1     -21.220  -8.322  -1.696  0.00  0.00     0.074 C 
BRANCH  22  23
HETATM   23  C           1     -22.169  -9.451  -1.436  0.00  0.00    -0.056 A 
HETATM   24  C           1     -22.932  -9.464  -0.268  0.00  0.00     0.007 A 
HETATM   25  C           1     -23.816 -10.516  -0.025  0.00  0.00     0.001 A 
HETATM   26  C           1     -23.938 -11.552  -0.951  0.00  0.00     0.000 A 
HETATM   27  C           1     -23.174 -11.538  -2.118  0.00  0.00     0.001 A 
HETATM   28  C           1     -22.291 -10.487  -2.360  0.00  0.00     0.007 A 
ENDBRANCH  22  23
ENDBRANCH  18  22
ENDBRANCH   1  18
TORSDOF 8
ENDMDL
