MODEL 1
REMARK VINA RESULT:      -6.4      0.000      0.000
REMARK  7 active torsions:
REMARK  status: ('A' for Active; 'I' for Inactive)
REMARK       I    between atoms: C_1  and  N_4 
REMARK    1  A    between atoms: C_1  and  C_5 
REMARK    2  A    between atoms: C_2  and  C_10 
REMARK    3  A    between atoms: C_2  and  N_12 
REMARK    4  A    between atoms: N_3  and  C_7 
REMARK       I    between atoms: N_3  and  C_10 
REMARK    5  A    between atoms: C_5  and  C_6 
REMARK    6  A    between atoms: C_6  and  C_7 
REMARK    7  A    between atoms: C_7  and  C_11 
ROOT
HETATM    1  C           1     -27.768  -5.845 -16.650  0.00  0.00     0.186 C 
ENDROOT
BRANCH   1   2
HETATM    2  N           1     -26.692  -6.687 -17.138  0.00  0.00    -0.345 N 
HETATM    3  C           1     -25.419  -6.513 -16.666  0.00  0.00     0.243 C 
HETATM    4  O           1     -25.191  -5.657 -15.845  0.00  0.00    -0.272 OA
HETATM    5  H           1     -26.883  -7.404 -17.826  0.00  0.00     0.163 HD
BRANCH   3   6
HETATM    6  C           1     -24.300  -7.388 -17.174  0.00  0.00     0.332 C 
BRANCH   6   7
HETATM    7  N           1     -24.339  -7.432 -18.673  0.00  0.00    -0.071 N 
HETATM    8  H           1     -24.349  -8.427 -18.993  0.00  0.00     0.274 HD
HETATM    9  H           1     -25.201  -6.949 -19.013  0.00  0.00     0.274 HD
HETATM   10  H           1     -23.494  -6.951 -19.057  0.00  0.00     0.274 HD
ENDBRANCH   6   7
ENDBRANCH   3   6
ENDBRANCH   1   2
BRANCH   1  11
HETATM   11  C           1     -28.846  -5.731 -17.719  0.00  0.00     0.045 C 
BRANCH  11  12
HETATM   12  C           1     -29.255  -4.272 -17.875  0.00  0.00     0.105 C 
BRANCH  12  13
HETATM   13  C           1     -30.678  -4.094 -17.406  0.00  0.00     0.215 C 
HETATM   14  O           1     -31.236  -3.034 -17.560  0.00  0.00    -0.274 OA
HETATM   15  N           1     -31.337  -5.133 -16.806  0.00  0.00    -0.370 N 
HETATM   16  H           1     -30.870  -6.021 -16.677  0.00  0.00     0.159 HD
HETATM   17  H           1     -32.291  -5.013 -16.492  0.00  0.00     0.159 HD
ENDBRANCH  12  13
ENDBRANCH  11  12
ENDBRANCH   1  11
BRANCH   1  18
HETATM   18  C           1     -28.358  -6.457 -15.403  0.00  0.00     0.196 C 
HETATM   19  O           1     -29.225  -5.835 -14.751  0.00  0.00    -0.646 OA
HETATM   20  O           1     -27.980  -7.585 -15.021  0.00  0.00    -0.646 OA
ENDBRANCH   1  18
TORSDOF 7
ENDMDL
MODEL 2
REMARK VINA RESULT:      -6.1      2.067      2.600
REMARK  7 active torsions:
REMARK  status: ('A' for Active; 'I' for Inactive)
REMARK       I    between atoms: C_1  and  N_4 
REMARK    1  A    between atoms: C_1  and  C_5 
REMARK    2  A    between atoms: C_2  and  C_10 
REMARK    3  A    between atoms: C_2  and  N_12 
REMARK    4  A    between atoms: N_3  and  C_7 
REMARK       I    between atoms: N_3  and  C_10 
REMARK    5  A    between atoms: C_5  and  C_6 
REMARK    6  A    between atoms: C_6  and  C_7 
REMARK    7  A    between atoms: C_7  and  C_11 
ROOT
HETATM    1  C           1     -26.219  -6.088 -17.029  0.00  0.00     0.186 C 
ENDROOT
BRANCH   1   2
HETATM    2  N           1     -26.144  -6.755 -18.315  0.00  0.00    -0.345 N 
HETATM    3  C           1     -24.933  -6.918 -18.931  0.00  0.00     0.243 C 
HETATM    4  O           1     -23.927  -6.505 -18.406  0.00  0.00    -0.272 OA
HETATM    5  H           1     -26.987  -7.101 -18.755  0.00  0.00     0.163 HD
BRANCH   3   6
HETATM    6  C           1     -24.855  -7.611 -20.269  0.00  0.00     0.332 C 
BRANCH   6   7
HETATM    7  N           1     -26.238  -7.961 -20.734  0.00  0.00    -0.071 N 
HETATM    8  H           1     -26.223  -8.896 -21.199  0.00  0.00     0.274 HD
HETATM    9  H           1     -26.883  -7.991 -19.912  0.00  0.00     0.274 HD
HETATM   10  H           1     -26.569  -7.239 -21.412  0.00  0.00     0.274 HD
ENDBRANCH   6   7
ENDBRANCH   3   6
ENDBRANCH   1   2
BRANCH   1  11
HETATM   11  C           1     -27.549  -5.355 -16.915  0.00  0.00     0.045 C 
BRANCH  11  12
HETATM   12  C           1     -28.455  -5.763 -18.069  0.00  0.00     0.105 C 
BRANCH  12  13
HETATM   13  C           1     -29.578  -6.626 -17.549  0.00  0.00     0.215 C 
HETATM   14  O           1     -30.621  -6.119 -17.211  0.00  0.00    -0.274 OA
HETATM   15  N           1     -29.415  -7.982 -17.458  0.00  0.00    -0.370 N 
HETATM   16  H           1     -28.541  -8.407 -17.740  0.00  0.00     0.159 HD
HETATM   17  H           1     -30.169  -8.560 -17.109  0.00  0.00     0.159 HD
ENDBRANCH  12  13
ENDBRANCH  11  12
ENDBRANCH   1  11
BRANCH   1  18
HETATM   18  C           1     -26.112  -7.111 -15.925  0.00  0.00     0.196 C 
HETATM   19  O           1     -27.145  -7.532 -15.360  0.00  0.00    -0.646 OA
HETATM   20  O           1     -24.990  -7.537 -15.575  0.00  0.00    -0.646 OA
ENDBRANCH   1  18
TORSDOF 7
ENDMDL
MODEL 3
REMARK VINA RESULT:      -5.5      1.783      2.378
REMARK  7 active torsions:
REMARK  status: ('A' for Active; 'I' for Inactive)
REMARK       I    between atoms: C_1  and  N_4 
REMARK    1  A    between atoms: C_1  and  C_5 
REMARK    2  A    between atoms: C_2  and  C_10 
REMARK    3  A    between atoms: C_2  and  N_12 
REMARK    4  A    between atoms: N_3  and  C_7 
REMARK       I    between atoms: N_3  and  C_10 
REMARK    5  A    between atoms: C_5  and  C_6 
REMARK    6  A    between atoms: C_6  and  C_7 
REMARK    7  A    between atoms: C_7  and  C_11 
ROOT
HETATM    1  C           1     -27.580  -5.474 -17.078  0.00  0.00     0.186 C 
ENDROOT
BRANCH   1   2
HETATM    2  N           1     -26.555  -6.367 -17.587  0.00  0.00    -0.345 N 
HETATM    3  C           1     -25.328  -6.415 -16.982  0.00  0.00     0.243 C 
HETATM    4  O           1     -25.098  -5.713 -16.026  0.00  0.00    -0.272 OA
HETATM    5  H           1     -26.749  -6.955 -18.387  0.00  0.00     0.163 HD
BRANCH   3   6
HETATM    6  C           1     -24.263  -7.343 -17.510  0.00  0.00     0.332 C 
BRANCH   6   7
HETATM    7  N           1     -23.710  -8.165 -16.384  0.00  0.00    -0.071 N 
HETATM    8  H           1     -23.976  -9.166 -16.519  0.00  0.00     0.274 HD
HETATM    9  H           1     -22.668  -8.081 -16.371  0.00  0.00     0.274 HD
HETATM   10  H           1     -24.100  -7.819 -15.478  0.00  0.00     0.274 HD
ENDBRANCH   6   7
ENDBRANCH   3   6
ENDBRANCH   1   2
BRANCH   1  11
HETATM   11  C           1     -28.752  -5.443 -18.050  0.00  0.00     0.045 C 
BRANCH  11  12
HETATM   12  C           1     -28.729  -6.697 -18.914  0.00  0.00     0.105 C 
BRANCH  12  13
HETATM   13  C           1     -29.887  -7.589 -18.538  0.00  0.00     0.215 C 
HETATM   14  O           1     -30.055  -8.636 -19.117  0.00  0.00    -0.274 OA
HETATM   15  N           1     -30.747  -7.213 -17.542  0.00  0.00    -0.370 N 
HETATM   16  H           1     -30.606  -6.336 -17.057  0.00  0.00     0.159 HD
HETATM   17  H           1     -31.523  -7.812 -17.290  0.00  0.00     0.159 HD
ENDBRANCH  12  13
ENDBRANCH  11  12
ENDBRANCH   1  11
BRANCH   1  18
HETATM   18  C           1     -28.054  -5.968 -15.733  0.00  0.00     0.196 C 
HETATM   19  O           1     -28.182  -7.194 -15.527  0.00  0.00    -0.646 OA
HETATM   20  O           1     -28.317  -5.151 -14.825  0.00  0.00    -0.646 OA
ENDBRANCH   1  18
TORSDOF 7
ENDMDL
MODEL 4
REMARK VINA RESULT:      -5.5      9.716     11.048
REMARK  7 active torsions:
REMARK  status: ('A' for Active; 'I' for Inactive)
REMARK       I    between atoms: C_1  and  N_4 
REMARK    1  A    between atoms: C_1  and  C_5 
REMARK    2  A    between atoms: C_2  and  C_10 
REMARK    3  A    between atoms: C_2  and  N_12 
REMARK    4  A    between atoms: N_3  and  C_7 
REMARK       I    between atoms: N_3  and  C_10 
REMARK    5  A    between atoms: C_5  and  C_6 
REMARK    6  A    between atoms: C_6  and  C_7 
REMARK    7  A    between atoms: C_7  and  C_11 
ROOT
HETATM    1  C           1     -21.673  -4.706  -8.238  0.00  0.00     0.186 C 
ENDROOT
BRANCH   1   2
HETATM    2  N           1     -21.437  -4.689  -6.807  0.00  0.00    -0.345 N 
HETATM    3  C           1     -21.207  -5.861  -6.138  0.00  0.00     0.243 C 
HETATM    4  O           1     -21.202  -6.909  -6.738  0.00  0.00    -0.272 OA
HETATM    5  H           1     -21.441  -3.811  -6.304  0.00  0.00     0.163 HD
BRANCH   3   6
HETATM    6  C           1     -20.962  -5.843  -4.649  0.00  0.00     0.332 C 
BRANCH   6   7
HETATM    7  N           1     -22.219  -6.232  -3.929  0.00  0.00    -0.071 N 
HETATM    8  H           1     -22.040  -7.083  -3.349  0.00  0.00     0.274 HD
HETATM    9  H           1     -22.522  -5.447  -3.310  0.00  0.00     0.274 HD
HETATM   10  H           1     -22.969  -6.437  -4.627  0.00  0.00     0.274 HD
ENDBRANCH   6   7
ENDBRANCH   3   6
ENDBRANCH   1   2
BRANCH   1  11
HETATM   11  C           1     -22.676  -3.619  -8.599  0.00  0.00     0.045 C 
BRANCH  11  12
HETATM   12  C           1     -23.976  -4.260  -9.065  0.00  0.00     0.105 C 
BRANCH  12  13
HETATM   13  C           1     -24.140  -4.048 -10.550  0.00  0.00     0.215 C 
HETATM   14  O           1     -24.963  -3.265 -10.960  0.00  0.00    -0.274 OA
HETATM   15  N           1     -23.357  -4.742 -11.432  0.00  0.00    -0.370 N 
HETATM   16  H           1     -22.667  -5.399 -11.088  0.00  0.00     0.159 HD
HETATM   17  H           1     -23.467  -4.600 -12.427  0.00  0.00     0.159 HD
ENDBRANCH  12  13
ENDBRANCH  11  12
ENDBRANCH   1  11
BRANCH   1  18
HETATM   18  C           1     -20.375  -4.455  -8.965  0.00  0.00     0.196 C 
HETATM   19  O           1     -19.362  -4.092  -8.328  0.00  0.00    -0.646 OA
HETATM   20  O           1     -20.311  -4.611 -10.203  0.00  0.00    -0.646 OA
ENDBRANCH   1  18
TORSDOF 7
ENDMDL
MODEL 5
REMARK VINA RESULT:      -5.3      2.087      3.077
REMARK  7 active torsions:
REMARK  status: ('A' for Active; 'I' for Inactive)
REMARK       I    between atoms: C_1  and  N_4 
REMARK    1  A    between atoms: C_1  and  C_5 
REMARK    2  A    between atoms: C_2  and  C_10 
REMARK    3  A    between atoms: C_2  and  N_12 
REMARK    4  A    between atoms: N_3  and  C_7 
REMARK       I    between atoms: N_3  and  C_10 
REMARK    5  A    between atoms: C_5  and  C_6 
REMARK    6  A    between atoms: C_6  and  C_7 
REMARK    7  A    between atoms: C_7  and  C_11 
ROOT
HETATM    1  C           1     -27.408  -5.726 -16.848  0.00  0.00     0.186 C 
ENDROOT
BRANCH   1   2
HETATM    2  N           1     -28.139  -6.760 -17.557  0.00  0.00    -0.345 N 
HETATM    3  C           1     -28.102  -6.809 -18.924  0.00  0.00     0.243 C 
HETATM    4  O           1     -27.463  -5.990 -19.541  0.00  0.00    -0.272 OA
HETATM    5  H           1     -28.674  -7.446 -17.040  0.00  0.00     0.163 HD
BRANCH   3   6
HETATM    6  C           1     -28.862  -7.884 -19.661  0.00  0.00     0.332 C 
BRANCH   6   7
HETATM    7  N           1     -29.800  -8.573 -18.715  0.00  0.00    -0.071 N 
HETATM    8  H           1     -29.254  -9.016 -17.943  0.00  0.00     0.274 HD
HETATM    9  H           1     -30.465  -7.873 -18.314  0.00  0.00     0.274 HD
HETATM   10  H           1     -30.335  -9.307 -19.231  0.00  0.00     0.274 HD
ENDBRANCH   6   7
ENDBRANCH   3   6
ENDBRANCH   1   2
BRANCH   1  11
HETATM   11  C           1     -28.363  -4.962 -15.941  0.00  0.00     0.045 C 
BRANCH  11  12
HETATM   12  C           1     -29.726  -5.642 -15.950  0.00  0.00     0.105 C 
BRANCH  12  13
HETATM   13  C           1     -30.705  -4.799 -16.731  0.00  0.00     0.215 C 
HETATM   14  O           1     -30.369  -4.299 -17.778  0.00  0.00    -0.274 OA
HETATM   15  N           1     -31.972  -4.601 -16.253  0.00  0.00    -0.370 N 
HETATM   16  H           1     -32.253  -5.020 -15.376  0.00  0.00     0.159 HD
HETATM   17  H           1     -32.628  -4.036 -16.777  0.00  0.00     0.159 HD
ENDBRANCH  12  13
ENDBRANCH  11  12
ENDBRANCH   1  11
BRANCH   1  18
HETATM   18  C           1     -26.321  -6.360 -16.015  0.00  0.00     0.196 C 
HETATM   19  O           1     -26.553  -7.413 -15.382  0.00  0.00    -0.646 OA
HETATM   20  O           1     -25.190  -5.833 -15.957  0.00  0.00    -0.646 OA
ENDBRANCH   1  18
TORSDOF 7
ENDMDL
MODEL 6
REMARK VINA RESULT:      -5.2      2.425      5.201
REMARK  7 active torsions:
REMARK  status: ('A' for Active; 'I' for Inactive)
REMARK       I    between atoms: C_1  and  N_4 
REMARK    1  A    between atoms: C_1  and  C_5 
REMARK    2  A    between atoms: C_2  and  C_10 
REMARK    3  A    between atoms: C_2  and  N_12 
REMARK    4  A    between atoms: N_3  and  C_7 
REMARK       I    between atoms: N_3  and  C_10 
REMARK    5  A    between atoms: C_5  and  C_6 
REMARK    6  A    between atoms: C_6  and  C_7 
REMARK    7  A    between atoms: C_7  and  C_11 
ROOT
HETATM    1  C           1     -28.121  -6.408 -17.144  0.00  0.00     0.186 C 
ENDROOT
BRANCH   1   2
HETATM    2  N           1     -29.130  -5.400 -16.879  0.00  0.00    -0.345 N 
HETATM    3  C           1     -30.458  -5.718 -16.982  0.00  0.00     0.243 C 
HETATM    4  O           1     -30.789  -6.837 -17.295  0.00  0.00    -0.272 OA
HETATM    5  H           1     -28.853  -4.463 -16.618  0.00  0.00     0.163 HD
BRANCH   3   6
HETATM    6  C           1     -31.508  -4.670 -16.707  0.00  0.00     0.332 C 
BRANCH   6   7
HETATM    7  N           1     -32.870  -5.292 -16.786  0.00  0.00    -0.071 N 
HETATM    8  H           1     -33.594  -4.581 -16.536  0.00  0.00     0.274 HD
HETATM    9  H           1     -33.041  -5.634 -17.759  0.00  0.00     0.274 HD
HETATM   10  H           1     -32.924  -6.095 -16.119  0.00  0.00     0.274 HD
ENDBRANCH   6   7
ENDBRANCH   3   6
ENDBRANCH   1   2
BRANCH   1  11
HETATM   11  C           1     -27.140  -5.882 -18.183  0.00  0.00     0.045 C 
BRANCH  11  12
HETATM   12  C           1     -27.521  -6.417 -19.558  0.00  0.00     0.105 C 
BRANCH  12  13
HETATM   13  C           1     -26.371  -7.211 -20.126  0.00  0.00     0.215 C 
HETATM   14  O           1     -26.551  -7.943 -21.070  0.00  0.00    -0.274 OA
HETATM   15  N           1     -25.123  -7.104 -19.572  0.00  0.00    -0.370 N 
HETATM   16  H           1     -24.972  -6.491 -18.781  0.00  0.00     0.159 HD
HETATM   17  H           1     -24.353  -7.637 -19.953  0.00  0.00     0.159 HD
ENDBRANCH  12  13
ENDBRANCH  11  12
ENDBRANCH   1  11
BRANCH   1  18
HETATM   18  C           1     -27.381  -6.725 -15.868  0.00  0.00     0.196 C 
HETATM   19  O           1     -27.878  -7.515 -15.036  0.00  0.00    -0.646 OA
HETATM   20  O           1     -26.271  -6.198 -15.642  0.00  0.00    -0.646 OA
ENDBRANCH   1  18
TORSDOF 7
ENDMDL
MODEL 7
REMARK VINA RESULT:      -5.1     19.354     21.438
REMARK  7 active torsions:
REMARK  status: ('A' for Active; 'I' for Inactive)
REMARK       I    between atoms: C_1  and  N_4 
REMARK    1  A    between atoms: C_1  and  C_5 
REMARK    2  A    between atoms: C_2  and  C_10 
REMARK    3  A    between atoms: C_2  and  N_12 
REMARK    4  A    between atoms: N_3  and  C_7 
REMARK       I    between atoms: N_3  and  C_10 
REMARK    5  A    between atoms: C_5  and  C_6 
REMARK    6  A    between atoms: C_6  and  C_7 
REMARK    7  A    between atoms: C_7  and  C_11 
ROOT
HETATM    1  C           1     -10.194   5.328 -20.646  0.00  0.00     0.186 C 
ENDROOT
BRANCH   1   2
HETATM    2  N           1     -11.352   5.275 -21.518  0.00  0.00    -0.345 N 
HETATM    3  C           1     -11.799   4.071 -21.991  0.00  0.00     0.243 C 
HETATM    4  O           1     -11.228   3.052 -21.683  0.00  0.00    -0.272 OA
HETATM    5  H           1     -11.830   6.129 -21.775  0.00  0.00     0.163 HD
BRANCH   3   6
HETATM    6  C           1     -13.004   4.016 -22.897  0.00  0.00     0.332 C 
BRANCH   6   7
HETATM    7  N           1     -14.011   3.056 -22.336  0.00  0.00    -0.071 N 
HETATM    8  H           1     -14.179   3.276 -21.329  0.00  0.00     0.274 HD
HETATM    9  H           1     -14.907   3.144 -22.866  0.00  0.00     0.274 HD
HETATM   10  H           1     -13.646   2.081 -22.424  0.00  0.00     0.274 HD
ENDBRANCH   6   7
ENDBRANCH   3   6
ENDBRANCH   1   2
BRANCH   1  11
HETATM   11  C           1      -9.331   6.524 -21.022  0.00  0.00     0.045 C 
BRANCH  11  12
HETATM   12  C           1     -10.219   7.738 -21.259  0.00  0.00     0.105 C 
BRANCH  12  13
HETATM   13  C           1      -9.726   8.894 -20.425  0.00  0.00     0.215 C 
HETATM   14  O           1      -9.131   9.806 -20.949  0.00  0.00    -0.274 OA
HETATM   15  N           1      -9.952   8.911 -19.074  0.00  0.00    -0.370 N 
HETATM   16  H           1     -10.450   8.148 -18.635  0.00  0.00     0.159 HD
HETATM   17  H           1      -9.621   9.687 -18.516  0.00  0.00     0.159 HD
ENDBRANCH  12  13
ENDBRANCH  11  12
ENDBRANCH   1  11
BRANCH   1  18
HETATM   18  C           1     -10.649   5.466 -19.214  0.00  0.00     0.196 C 
HETATM   19  O           1      -9.837   5.816 -18.331  0.00  0.00    -0.646 OA
HETATM   20  O           1     -11.838   5.229 -18.910  0.00  0.00    -0.646 OA
ENDBRANCH   1  18
TORSDOF 7
ENDMDL
MODEL 8
REMARK VINA RESULT:      -5.1      9.940     11.615
REMARK  7 active torsions:
REMARK  status: ('A' for Active; 'I' for Inactive)
REMARK       I    between atoms: C_1  and  N_4 
REMARK    1  A    between atoms: C_1  and  C_5 
REMARK    2  A    between atoms: C_2  and  C_10 
REMARK    3  A    between atoms: C_2  and  N_12 
REMARK    4  A    between atoms: N_3  and  C_7 
REMARK       I    between atoms: N_3  and  C_10 
REMARK    5  A    between atoms: C_5  and  C_6 
REMARK    6  A    between atoms: C_6  and  C_7 
REMARK    7  A    between atoms: C_7  and  C_11 
ROOT
HETATM    1  C           1     -21.719  -4.461  -8.069  0.00  0.00     0.186 C 
ENDROOT
BRANCH   1   2
HETATM    2  N           1     -21.561  -3.731  -9.313  0.00  0.00    -0.345 N 
HETATM    3  C           1     -20.624  -4.133 -10.227  0.00  0.00     0.243 C 
HETATM    4  O           1     -19.928  -5.094  -9.997  0.00  0.00    -0.272 OA
HETATM    5  H           1     -22.143  -2.927  -9.505  0.00  0.00     0.163 HD
BRANCH   3   6
HETATM    6  C           1     -20.459  -3.374 -11.520  0.00  0.00     0.332 C 
BRANCH   6   7
HETATM    7  N           1     -21.481  -3.845 -12.512  0.00  0.00    -0.071 N 
HETATM    8  H           1     -20.998  -4.260 -13.340  0.00  0.00     0.274 HD
HETATM    9  H           1     -22.090  -4.568 -12.066  0.00  0.00     0.274 HD
HETATM   10  H           1     -22.066  -3.035 -12.819  0.00  0.00     0.274 HD
ENDBRANCH   6   7
ENDBRANCH   3   6
ENDBRANCH   1   2
BRANCH   1  11
HETATM   11  C           1     -20.870  -3.807  -6.987  0.00  0.00     0.045 C 
BRANCH  11  12
HETATM   12  C           1     -19.734  -4.744  -6.598  0.00  0.00     0.105 C 
BRANCH  12  13
HETATM   13  C           1     -20.297  -5.954  -5.894  0.00  0.00     0.215 C 
HETATM   14  O           1     -20.066  -7.061  -6.318  0.00  0.00    -0.274 OA
HETATM   15  N           1     -21.069  -5.798  -4.774  0.00  0.00    -0.370 N 
HETATM   16  H           1     -21.263  -4.871  -4.419  0.00  0.00     0.159 HD
HETATM   17  H           1     -21.446  -6.610  -4.303  0.00  0.00     0.159 HD
ENDBRANCH  12  13
ENDBRANCH  11  12
ENDBRANCH   1  11
BRANCH   1  18
HETATM   18  C           1     -23.170  -4.437  -7.654  0.00  0.00     0.196 C 
HETATM   19  O           1     -23.494  -4.776  -6.495  0.00  0.00    -0.646 OA
HETATM   20  O           1     -24.047  -4.078  -8.468  0.00  0.00    -0.646 OA
ENDBRANCH   1  18
TORSDOF 7
ENDMDL
MODEL 9
REMARK VINA RESULT:      -4.9     13.217     14.687
REMARK  7 active torsions:
REMARK  status: ('A' for Active; 'I' for Inactive)
REMARK       I    between atoms: C_1  and  N_4 
REMARK    1  A    between atoms: C_1  and  C_5 
REMARK    2  A    between atoms: C_2  and  C_10 
REMARK    3  A    between atoms: C_2  and  N_12 
REMARK    4  A    between atoms: N_3  and  C_7 
REMARK       I    between atoms: N_3  and  C_10 
REMARK    5  A    between atoms: C_5  and  C_6 
REMARK    6  A    between atoms: C_6  and  C_7 
REMARK    7  A    between atoms: C_7  and  C_11 
ROOT
HETATM    1  C           1     -21.183  -6.446  -4.477  0.00  0.00     0.186 C 
ENDROOT
BRANCH   1   2
HETATM    2  N           1     -21.612  -5.743  -5.671  0.00  0.00    -0.345 N 
HETATM    3  C           1     -20.821  -4.765  -6.211  0.00  0.00     0.243 C 
HETATM    4  O           1     -19.766  -4.487  -5.693  0.00  0.00    -0.272 OA
HETATM    5  H           1     -22.496  -5.976  -6.104  0.00  0.00     0.163 HD
BRANCH   3   6
HETATM    6  C           1     -21.268  -4.033  -7.452  0.00  0.00     0.332 C 
BRANCH   6   7
HETATM    7  N           1     -22.767  -4.004  -7.505  0.00  0.00    -0.071 N 
HETATM    8  H           1     -23.076  -3.492  -8.361  0.00  0.00     0.274 HD
HETATM    9  H           1     -23.133  -4.983  -7.534  0.00  0.00     0.274 HD
HETATM   10  H           1     -23.135  -3.519  -6.656  0.00  0.00     0.274 HD
ENDBRANCH   6   7
ENDBRANCH   3   6
ENDBRANCH   1   2
BRANCH   1  11
HETATM   11  C           1     -22.355  -6.571  -3.513  0.00  0.00     0.045 C 
BRANCH  11  12
HETATM   12  C           1     -21.943  -6.052  -2.142  0.00  0.00     0.105 C 
BRANCH  12  13
HETATM   13  C           1     -22.045  -7.166  -1.129  0.00  0.00     0.215 C 
HETATM   14  O           1     -22.964  -7.187  -0.346  0.00  0.00    -0.274 OA
HETATM   15  N           1     -21.096  -8.152  -1.098  0.00  0.00    -0.370 N 
HETATM   16  H           1     -20.326  -8.134  -1.755  0.00  0.00     0.159 HD
HETATM   17  H           1     -21.164  -8.899  -0.419  0.00  0.00     0.159 HD
ENDBRANCH  12  13
ENDBRANCH  11  12
ENDBRANCH   1  11
BRANCH   1  18
HETATM   18  C           1     -20.692  -7.823  -4.854  0.00  0.00     0.196 C 
HETATM   19  O           1     -21.025  -8.327  -5.948  0.00  0.00    -0.646 OA
HETATM   20  O           1     -19.952  -8.458  -4.073  0.00  0.00    -0.646 OA
ENDBRANCH   1  18
TORSDOF 7
ENDMDL
