MODEL 1
REMARK VINA RESULT:      -8.8      0.000      0.000
REMARK  12 active torsions:
REMARK  status: ('A' for Active; 'I' for Inactive)
REMARK    1  A    between atoms: C_1  and  C_19 
REMARK    2  A    between atoms: C_1  and  C_2 
REMARK    3  A    between atoms: C_1  and  N_14 
REMARK    4  A    between atoms: C_2  and  C_3 
REMARK    5  A    between atoms: C_6  and  O_7 
REMARK    6  A    between atoms: O_7  and  P_8 
REMARK    7  A    between atoms: P_8  and  O_9 
REMARK       I    between atoms: C_19  and  N_20 
REMARK    8  A    between atoms: N_20  and  C_24 
REMARK    9  A    between atoms: C_23  and  C_24 
REMARK   10  A    between atoms: C_24  and  C_25 
REMARK   11  A    between atoms: C_25  and  C_28 
REMARK   12  A    between atoms: C_31  and  O_32 
ROOT
HETATM    1  C           1     -21.344  -6.274  -4.922  0.00  0.00     0.278 C 
ENDROOT
BRANCH   1   2
HETATM    2  C           1     -20.585  -7.576  -5.010  0.00  0.00     0.249 C 
HETATM    3  O           1     -19.692  -7.702  -5.813  0.00  0.00    -0.271 OA
HETATM    4  N           1     -20.909  -8.615  -4.179  0.00  0.00    -0.344 N 
HETATM    5  H           1     -21.657  -8.510  -3.506  0.00  0.00     0.163 HD
BRANCH   4   6
HETATM    6  C           1     -20.181  -9.865  -4.264  0.00  0.00     0.189 C 
BRANCH   6   7
HETATM    7  C           1     -20.984 -10.862  -5.063  0.00  0.00     0.197 C 
HETATM    8  O           1     -21.464 -11.872  -4.503  0.00  0.00    -0.646 OA
HETATM    9  O           1     -21.170 -10.678  -6.285  0.00  0.00    -0.646 OA
ENDBRANCH   6   7
BRANCH   6  10
HETATM   10  C           1     -19.946 -10.411  -2.861  0.00  0.00     0.074 C 
BRANCH  10  11
HETATM   11  C           1     -20.909  -9.772  -1.909  0.00  0.00    -0.056 A 
HETATM   12  C           1     -20.608  -8.537  -1.337  0.00  0.00     0.010 A 
HETATM   13  C           1     -21.505  -7.941  -0.450  0.00  0.00     0.037 A 
HETATM   14  C           1     -22.703  -8.582  -0.136  0.00  0.00     0.065 A 
HETATM   15  C           1     -23.005  -9.818  -0.708  0.00  0.00     0.037 A 
HETATM   16  C           1     -22.108 -10.413  -1.595  0.00  0.00     0.010 A 
BRANCH  14  17
HETATM   17  O           1     -23.575  -8.004   0.725  0.00  0.00    -0.361 OA
HETATM   18  H           1     -24.441  -7.953   0.287  0.00  0.00     0.217 HD
ENDBRANCH  14  17
ENDBRANCH  10  11
ENDBRANCH   6  10
ENDBRANCH   4   6
ENDBRANCH   1   2
BRANCH   1  19
HETATM   19  C           1     -20.479  -5.145  -5.466  0.00  0.00     0.081 C 
BRANCH  19  20
HETATM   20  C           1     -20.977  -4.743  -6.819  0.00  0.00    -0.056 A 
HETATM   21  C           1     -20.102  -4.721  -7.906  0.00  0.00     0.010 A 
HETATM   22  C           1     -20.566  -4.347  -9.167  0.00  0.00     0.038 A 
HETATM   23  C           1     -21.904  -3.995  -9.341  0.00  0.00     0.081 A 
HETATM   24  C           1     -22.779  -4.017  -8.256  0.00  0.00     0.038 A 
HETATM   25  C           1     -22.315  -4.391  -6.994  0.00  0.00     0.010 A 
BRANCH  23  26
HETATM   26  O           1     -22.355  -3.631 -10.567  0.00  0.00    -0.247 OA
BRANCH  26  27
HETATM   27  P           1     -23.711  -4.319 -11.110  0.00  0.00     0.411 P 
HETATM   28  O           1     -23.985  -5.548 -10.332  0.00  0.00    -0.624 OA
HETATM   29  O           1     -24.840  -3.375 -10.955  0.00  0.00    -0.624 OA
BRANCH  27  30
HETATM   30  O           1     -23.537  -4.698 -12.670  0.00  0.00    -0.300 OA
HETATM   31  H           1     -23.022  -4.000 -13.035  0.00  0.00     0.223 HD
ENDBRANCH  27  30
ENDBRANCH  26  27
ENDBRANCH  23  26
ENDBRANCH  19  20
ENDBRANCH   1  19
BRANCH   1  32
HETATM   32  N           1     -21.687  -5.993  -3.489  0.00  0.00    -0.066 N 
HETATM   33  H           1     -22.423  -5.252  -3.445  0.00  0.00     0.275 HD
HETATM   34  H           1     -22.046  -6.866  -3.040  0.00  0.00     0.275 HD
HETATM   35  H           1     -20.833  -5.667  -2.983  0.00  0.00     0.275 HD
ENDBRANCH   1  32
TORSDOF 12
ENDMDL
MODEL 2
REMARK VINA RESULT:      -8.7      2.382      4.211
REMARK  12 active torsions:
REMARK  status: ('A' for Active; 'I' for Inactive)
REMARK    1  A    between atoms: C_1  and  C_19 
REMARK    2  A    between atoms: C_1  and  C_2 
REMARK    3  A    between atoms: C_1  and  N_14 
REMARK    4  A    between atoms: C_2  and  C_3 
REMARK    5  A    between atoms: C_6  and  O_7 
REMARK    6  A    between atoms: O_7  and  P_8 
REMARK    7  A    between atoms: P_8  and  O_9 
REMARK       I    between atoms: C_19  and  N_20 
REMARK    8  A    between atoms: N_20  and  C_24 
REMARK    9  A    between atoms: C_23  and  C_24 
REMARK   10  A    between atoms: C_24  and  C_25 
REMARK   11  A    between atoms: C_25  and  C_28 
REMARK   12  A    between atoms: C_31  and  O_32 
ROOT
HETATM    1  C           1     -21.461  -6.430  -4.867  0.00  0.00     0.278 C 
ENDROOT
BRANCH   1   2
HETATM    2  C           1     -20.811  -7.788  -4.771  0.00  0.00     0.249 C 
HETATM    3  O           1     -20.728  -8.489  -5.751  0.00  0.00    -0.271 OA
HETATM    4  N           1     -20.314  -8.227  -3.572  0.00  0.00    -0.344 N 
HETATM    5  H           1     -20.383  -7.640  -2.751  0.00  0.00     0.163 HD
BRANCH   4   6
HETATM    6  C           1     -19.690  -9.531  -3.480  0.00  0.00     0.189 C 
BRANCH   6   7
HETATM    7  C           1     -20.380 -10.344  -2.413  0.00  0.00     0.197 C 
HETATM    8  O           1     -19.887 -11.431  -2.037  0.00  0.00    -0.646 OA
HETATM    9  O           1     -21.444  -9.933  -1.904  0.00  0.00    -0.646 OA
ENDBRANCH   6   7
BRANCH   6  10
HETATM   10  C           1     -18.219  -9.365  -3.120  0.00  0.00     0.074 C 
BRANCH  10  11
HETATM   11  C           1     -17.372 -10.026  -4.164  0.00  0.00    -0.056 A 
HETATM   12  C           1     -17.966 -10.576  -5.298  0.00  0.00     0.010 A 
HETATM   13  C           1     -17.178 -11.192  -6.271  0.00  0.00     0.037 A 
HETATM   14  C           1     -15.794 -11.257  -6.106  0.00  0.00     0.065 A 
HETATM   15  C           1     -15.199 -10.706  -4.972  0.00  0.00     0.037 A 
HETATM   16  C           1     -15.988 -10.090  -3.999  0.00  0.00     0.010 A 
BRANCH  14  17
HETATM   17  O           1     -15.028 -11.854  -7.051  0.00  0.00    -0.361 OA
HETATM   18  H           1     -14.226 -12.191  -6.618  0.00  0.00     0.217 HD
ENDBRANCH  14  17
ENDBRANCH  10  11
ENDBRANCH   6  10
ENDBRANCH   4   6
ENDBRANCH   1   2
BRANCH   1  19
HETATM   19  C           1     -20.470  -5.433  -5.456  0.00  0.00     0.081 C 
BRANCH  19  20
HETATM   20  C           1     -20.968  -4.963  -6.786  0.00  0.00    -0.056 A 
HETATM   21  C           1     -20.142  -5.043  -7.908  0.00  0.00     0.010 A 
HETATM   22  C           1     -20.606  -4.605  -9.148  0.00  0.00     0.038 A 
HETATM   23  C           1     -21.895  -4.085  -9.267  0.00  0.00     0.081 A 
HETATM   24  C           1     -22.720  -4.004  -8.146  0.00  0.00     0.038 A 
HETATM   25  C           1     -22.257  -4.443  -6.905  0.00  0.00     0.010 A 
BRANCH  23  26
HETATM   26  O           1     -22.345  -3.659 -10.472  0.00  0.00    -0.247 OA
BRANCH  26  27
HETATM   27  P           1     -23.701  -4.319 -11.051  0.00  0.00     0.411 P 
HETATM   28  O           1     -24.013  -5.548 -10.288  0.00  0.00    -0.624 OA
HETATM   29  O           1     -24.816  -3.356 -10.915  0.00  0.00    -0.624 OA
BRANCH  27  30
HETATM   30  O           1     -23.498  -4.691 -12.610  0.00  0.00    -0.300 OA
HETATM   31  H           1     -22.675  -4.300 -12.848  0.00  0.00     0.223 HD
ENDBRANCH  27  30
ENDBRANCH  26  27
ENDBRANCH  23  26
ENDBRANCH  19  20
ENDBRANCH   1  19
BRANCH   1  32
HETATM   32  N           1     -21.871  -5.975  -3.498  0.00  0.00    -0.066 N 
HETATM   33  H           1     -22.825  -6.342  -3.279  0.00  0.00     0.275 HD
HETATM   34  H           1     -21.190  -6.338  -2.793  0.00  0.00     0.275 HD
HETATM   35  H           1     -21.883  -4.931  -3.465  0.00  0.00     0.275 HD
ENDBRANCH   1  32
TORSDOF 12
ENDMDL
MODEL 3
REMARK VINA RESULT:      -8.2      2.598      4.776
REMARK  12 active torsions:
REMARK  status: ('A' for Active; 'I' for Inactive)
REMARK    1  A    between atoms: C_1  and  C_19 
REMARK    2  A    between atoms: C_1  and  C_2 
REMARK    3  A    between atoms: C_1  and  N_14 
REMARK    4  A    between atoms: C_2  and  C_3 
REMARK    5  A    between atoms: C_6  and  O_7 
REMARK    6  A    between atoms: O_7  and  P_8 
REMARK    7  A    between atoms: P_8  and  O_9 
REMARK       I    between atoms: C_19  and  N_20 
REMARK    8  A    between atoms: N_20  and  C_24 
REMARK    9  A    between atoms: C_23  and  C_24 
REMARK   10  A    between atoms: C_24  and  C_25 
REMARK   11  A    between atoms: C_25  and  C_28 
REMARK   12  A    between atoms: C_31  and  O_32 
ROOT
HETATM    1  C           1     -21.544  -6.558  -4.903  0.00  0.00     0.278 C 
ENDROOT
BRANCH   1   2
HETATM    2  C           1     -20.972  -7.954  -4.858  0.00  0.00     0.249 C 
HETATM    3  O           1     -21.692  -8.895  -4.630  0.00  0.00    -0.271 OA
HETATM    4  N           1     -19.635  -8.153  -5.077  0.00  0.00    -0.344 N 
HETATM    5  H           1     -19.030  -7.364  -5.269  0.00  0.00     0.163 HD
BRANCH   4   6
HETATM    6  C           1     -19.085  -9.493  -5.034  0.00  0.00     0.189 C 
BRANCH   6   7
HETATM    7  C           1     -18.707  -9.836  -3.614  0.00  0.00     0.197 C 
HETATM    8  O           1     -19.218 -10.831  -3.054  0.00  0.00    -0.646 OA
HETATM    9  O           1     -17.884  -9.126  -2.998  0.00  0.00    -0.646 OA
ENDBRANCH   6   7
BRANCH   6  10
HETATM   10  C           1     -17.847  -9.562  -5.920  0.00  0.00     0.074 C 
BRANCH  10  11
HETATM   11  C           1     -17.627 -10.976  -6.361  0.00  0.00    -0.056 A 
HETATM   12  C           1     -18.685 -11.715  -6.887  0.00  0.00     0.010 A 
HETATM   13  C           1     -18.481 -13.032  -7.299  0.00  0.00     0.037 A 
HETATM   14  C           1     -17.216 -13.610  -7.182  0.00  0.00     0.065 A 
HETATM   15  C           1     -16.157 -12.870  -6.656  0.00  0.00     0.037 A 
HETATM   16  C           1     -16.362 -11.553  -6.245  0.00  0.00     0.010 A 
BRANCH  14  17
HETATM   17  O           1     -17.017 -14.889  -7.582  0.00  0.00    -0.361 OA
HETATM   18  H           1     -16.091 -15.120  -7.397  0.00  0.00     0.217 HD
ENDBRANCH  14  17
ENDBRANCH  10  11
ENDBRANCH   6  10
ENDBRANCH   4   6
ENDBRANCH   1   2
BRANCH   1  19
HETATM   19  C           1     -20.511  -5.604  -5.488  0.00  0.00     0.081 C 
BRANCH  19  20
HETATM   20  C           1     -21.000  -5.083  -6.803  0.00  0.00    -0.056 A 
HETATM   21  C           1     -22.276  -4.526  -6.901  0.00  0.00     0.010 A 
HETATM   22  C           1     -22.732  -4.041  -8.126  0.00  0.00     0.038 A 
HETATM   23  C           1     -21.914  -4.113  -9.253  0.00  0.00     0.081 A 
HETATM   24  C           1     -20.640  -4.670  -9.156  0.00  0.00     0.038 A 
HETATM   25  C           1     -20.183  -5.156  -7.930  0.00  0.00     0.010 A 
BRANCH  23  26
HETATM   26  O           1     -22.358  -3.642 -10.444  0.00  0.00    -0.247 OA
BRANCH  26  27
HETATM   27  P           1     -23.693  -4.301 -11.071  0.00  0.00     0.411 P 
HETATM   28  O           1     -24.023  -5.540 -10.331  0.00  0.00    -0.624 OA
HETATM   29  O           1     -24.815  -3.344 -10.957  0.00  0.00    -0.624 OA
BRANCH  27  30
HETATM   30  O           1     -23.441  -4.654 -12.626  0.00  0.00    -0.300 OA
HETATM   31  H           1     -23.593  -3.848 -13.087  0.00  0.00     0.223 HD
ENDBRANCH  27  30
ENDBRANCH  26  27
ENDBRANCH  23  26
ENDBRANCH  19  20
ENDBRANCH   1  19
BRANCH   1  32
HETATM   32  N           1     -21.898  -6.119  -3.513  0.00  0.00    -0.066 N 
HETATM   33  H           1     -21.915  -5.075  -3.471  0.00  0.00     0.275 HD
HETATM   34  H           1     -22.842  -6.492  -3.261  0.00  0.00     0.275 HD
HETATM   35  H           1     -21.188  -6.484  -2.840  0.00  0.00     0.275 HD
ENDBRANCH   1  32
TORSDOF 12
ENDMDL
MODEL 4
REMARK VINA RESULT:      -8.0      1.800      2.266
REMARK  12 active torsions:
REMARK  status: ('A' for Active; 'I' for Inactive)
REMARK    1  A    between atoms: C_1  and  C_19 
REMARK    2  A    between atoms: C_1  and  C_2 
REMARK    3  A    between atoms: C_1  and  N_14 
REMARK    4  A    between atoms: C_2  and  C_3 
REMARK    5  A    between atoms: C_6  and  O_7 
REMARK    6  A    between atoms: O_7  and  P_8 
REMARK    7  A    between atoms: P_8  and  O_9 
REMARK       I    between atoms: C_19  and  N_20 
REMARK    8  A    between atoms: N_20  and  C_24 
REMARK    9  A    between atoms: C_23  and  C_24 
REMARK   10  A    between atoms: C_24  and  C_25 
REMARK   11  A    between atoms: C_25  and  C_28 
REMARK   12  A    between atoms: C_31  and  O_32 
ROOT
HETATM    1  C           1     -21.550  -6.689  -4.781  0.00  0.00     0.278 C 
ENDROOT
BRANCH   1   2
HETATM    2  C           1     -21.098  -8.079  -4.404  0.00  0.00     0.249 C 
HETATM    3  O           1     -20.009  -8.246  -3.910  0.00  0.00    -0.271 OA
HETATM    4  N           1     -21.922  -9.150  -4.622  0.00  0.00    -0.344 N 
HETATM    5  H           1     -22.835  -9.010  -5.035  0.00  0.00     0.163 HD
BRANCH   4   6
HETATM    6  C           1     -21.488 -10.484  -4.259  0.00  0.00     0.189 C 
BRANCH   6   7
HETATM    7  C           1     -20.747 -11.104  -5.419  0.00  0.00     0.197 C 
HETATM    8  O           1     -19.701 -11.758  -5.215  0.00  0.00    -0.646 OA
HETATM    9  O           1     -21.179 -10.963  -6.582  0.00  0.00    -0.646 OA
ENDBRANCH   6   7
BRANCH   6  10
HETATM   10  C           1     -22.703 -11.338  -3.918  0.00  0.00     0.074 C 
BRANCH  10  11
HETATM   11  C           1     -22.633 -11.754  -2.481  0.00  0.00    -0.056 A 
HETATM   12  C           1     -23.599 -11.310  -1.579  0.00  0.00     0.010 A 
HETATM   13  C           1     -23.535 -11.698  -0.241  0.00  0.00     0.037 A 
HETATM   14  C           1     -22.504 -12.530   0.195  0.00  0.00     0.065 A 
HETATM   15  C           1     -21.538 -12.975  -0.707  0.00  0.00     0.037 A 
HETATM   16  C           1     -21.602 -12.587  -2.046  0.00  0.00     0.010 A 
BRANCH  14  17
HETATM   17  O           1     -22.442 -12.907   1.495  0.00  0.00    -0.361 OA
HETATM   18  H           1     -23.073 -12.364   1.996  0.00  0.00     0.217 HD
ENDBRANCH  14  17
ENDBRANCH  10  11
ENDBRANCH   6  10
ENDBRANCH   4   6
ENDBRANCH   1   2
BRANCH   1  19
HETATM   19  C           1     -20.421  -5.966  -5.504  0.00  0.00     0.081 C 
BRANCH  19  20
HETATM   20  C           1     -20.955  -5.327  -6.748  0.00  0.00    -0.056 A 
HETATM   21  C           1     -22.227  -4.754  -6.747  0.00  0.00     0.010 A 
HETATM   22  C           1     -22.724  -4.159  -7.906  0.00  0.00     0.038 A 
HETATM   23  C           1     -21.950  -4.136  -9.066  0.00  0.00     0.081 A 
HETATM   24  C           1     -20.679  -4.709  -9.067  0.00  0.00     0.038 A 
HETATM   25  C           1     -20.181  -5.305  -7.908  0.00  0.00     0.010 A 
BRANCH  23  26
HETATM   26  O           1     -22.434  -3.557 -10.192  0.00  0.00    -0.247 OA
BRANCH  26  27
HETATM   27  P           1     -23.704  -4.246 -10.913  0.00  0.00     0.411 P 
HETATM   28  O           1     -24.042  -5.507 -10.215  0.00  0.00    -0.624 OA
HETATM   29  O           1     -24.862  -3.325 -10.858  0.00  0.00    -0.624 OA
BRANCH  27  30
HETATM   30  O           1     -23.343  -4.566 -12.454  0.00  0.00    -0.300 OA
HETATM   31  H           1     -23.346  -5.505 -12.516  0.00  0.00     0.223 HD
ENDBRANCH  27  30
ENDBRANCH  26  27
ENDBRANCH  23  26
ENDBRANCH  19  20
ENDBRANCH   1  19
BRANCH   1  32
HETATM   32  N           1     -21.915  -5.929  -3.540  0.00  0.00    -0.066 N 
HETATM   33  H           1     -22.296  -4.992  -3.804  0.00  0.00     0.275 HD
HETATM   34  H           1     -22.640  -6.461  -3.008  0.00  0.00     0.275 HD
HETATM   35  H           1     -21.066  -5.806  -2.945  0.00  0.00     0.275 HD
ENDBRANCH   1  32
TORSDOF 12
ENDMDL
MODEL 5
REMARK VINA RESULT:      -7.8      5.507      9.228
REMARK  12 active torsions:
REMARK  status: ('A' for Active; 'I' for Inactive)
REMARK    1  A    between atoms: C_1  and  C_19 
REMARK    2  A    between atoms: C_1  and  C_2 
REMARK    3  A    between atoms: C_1  and  N_14 
REMARK    4  A    between atoms: C_2  and  C_3 
REMARK    5  A    between atoms: C_6  and  O_7 
REMARK    6  A    between atoms: O_7  and  P_8 
REMARK    7  A    between atoms: P_8  and  O_9 
REMARK       I    between atoms: C_19  and  N_20 
REMARK    8  A    between atoms: N_20  and  C_24 
REMARK    9  A    between atoms: C_23  and  C_24 
REMARK   10  A    between atoms: C_24  and  C_25 
REMARK   11  A    between atoms: C_25  and  C_28 
REMARK   12  A    between atoms: C_31  and  O_32 
ROOT
HETATM    1  C           1     -19.462  -9.854  -4.222  0.00  0.00     0.278 C 
ENDROOT
BRANCH   1   2
HETATM    2  C           1     -20.735  -9.305  -3.625  0.00  0.00     0.249 C 
HETATM    3  O           1     -21.806  -9.666  -4.049  0.00  0.00    -0.271 OA
HETATM    4  N           1     -20.675  -8.396  -2.602  0.00  0.00    -0.344 N 
HETATM    5  H           1     -19.778  -8.093  -2.246  0.00  0.00     0.163 HD
BRANCH   4   6
HETATM    6  C           1     -21.898  -7.870  -2.029  0.00  0.00     0.189 C 
BRANCH   6   7
HETATM    7  C           1     -22.031  -6.409  -2.385  0.00  0.00     0.197 C 
HETATM    8  O           1     -21.821  -6.030  -3.558  0.00  0.00    -0.646 OA
HETATM    9  O           1     -22.349  -5.579  -1.507  0.00  0.00    -0.646 OA
ENDBRANCH   6   7
BRANCH   6  10
HETATM   10  C           1     -21.853  -8.021  -0.514  0.00  0.00     0.074 C 
BRANCH  10  11
HETATM   11  C           1     -22.074  -9.457  -0.149  0.00  0.00    -0.056 A 
HETATM   12  C           1     -21.032 -10.204   0.401  0.00  0.00     0.010 A 
HETATM   13  C           1     -21.237 -11.541   0.741  0.00  0.00     0.037 A 
HETATM   14  C           1     -22.484 -12.131   0.531  0.00  0.00     0.065 A 
HETATM   15  C           1     -23.525 -11.383  -0.018  0.00  0.00     0.037 A 
HETATM   16  C           1     -23.321 -10.046  -0.359  0.00  0.00     0.010 A 
BRANCH  14  17
HETATM   17  O           1     -22.683 -13.429   0.862  0.00  0.00    -0.361 OA
HETATM   18  H           1     -23.585 -13.673   0.594  0.00  0.00     0.217 HD
ENDBRANCH  14  17
ENDBRANCH  10  11
ENDBRANCH   6  10
ENDBRANCH   4   6
ENDBRANCH   1   2
BRANCH   1  19
HETATM   19  C           1     -18.264  -9.299  -3.462  0.00  0.00     0.081 C 
BRANCH  19  20
HETATM   20  C           1     -17.635 -10.392  -2.657  0.00  0.00    -0.056 A 
HETATM   21  C           1     -18.436 -11.361  -2.051  0.00  0.00     0.010 A 
HETATM   22  C           1     -17.849 -12.380  -1.301  0.00  0.00     0.038 A 
HETATM   23  C           1     -16.463 -12.431  -1.156  0.00  0.00     0.081 A 
HETATM   24  C           1     -15.663 -11.463  -1.761  0.00  0.00     0.038 A 
HETATM   25  C           1     -16.249 -10.443  -2.511  0.00  0.00     0.010 A 
BRANCH  23  26
HETATM   26  O           1     -15.893 -13.421  -0.427  0.00  0.00    -0.247 OA
BRANCH  26  27
HETATM   27  P           1     -15.671 -13.168   1.153  0.00  0.00     0.411 P 
HETATM   28  O           1     -16.534 -14.090   1.925  0.00  0.00    -0.624 OA
HETATM   29  O           1     -14.253 -13.414   1.497  0.00  0.00    -0.624 OA
BRANCH  27  30
HETATM   30  O           1     -16.056 -11.642   1.515  0.00  0.00    -0.300 OA
HETATM   31  H           1     -15.270 -11.148   1.358  0.00  0.00     0.223 HD
ENDBRANCH  27  30
ENDBRANCH  26  27
ENDBRANCH  23  26
ENDBRANCH  19  20
ENDBRANCH   1  19
BRANCH   1  32
HETATM   32  N           1     -19.370  -9.446  -5.663  0.00  0.00    -0.066 N 
HETATM   33  H           1     -20.276  -9.020  -5.964  0.00  0.00     0.275 HD
HETATM   34  H           1     -18.603  -8.746  -5.777  0.00  0.00     0.275 HD
HETATM   35  H           1     -19.168 -10.286  -6.251  0.00  0.00     0.275 HD
ENDBRANCH   1  32
TORSDOF 12
ENDMDL
MODEL 6
REMARK VINA RESULT:      -7.5      5.317      7.969
REMARK  12 active torsions:
REMARK  status: ('A' for Active; 'I' for Inactive)
REMARK    1  A    between atoms: C_1  and  C_19 
REMARK    2  A    between atoms: C_1  and  C_2 
REMARK    3  A    between atoms: C_1  and  N_14 
REMARK    4  A    between atoms: C_2  and  C_3 
REMARK    5  A    between atoms: C_6  and  O_7 
REMARK    6  A    between atoms: O_7  and  P_8 
REMARK    7  A    between atoms: P_8  and  O_9 
REMARK       I    between atoms: C_19  and  N_20 
REMARK    8  A    between atoms: N_20  and  C_24 
REMARK    9  A    between atoms: C_23  and  C_24 
REMARK   10  A    between atoms: C_24  and  C_25 
REMARK   11  A    between atoms: C_25  and  C_28 
REMARK   12  A    between atoms: C_31  and  O_32 
ROOT
HETATM    1  C           1     -20.202 -10.112  -4.715  0.00  0.00     0.278 C 
ENDROOT
BRANCH   1   2
HETATM    2  C           1     -21.231  -9.620  -3.726  0.00  0.00     0.249 C 
HETATM    3  O           1     -22.328 -10.123  -3.696  0.00  0.00    -0.271 OA
HETATM    4  N           1     -20.919  -8.604  -2.863  0.00  0.00    -0.344 N 
HETATM    5  H           1     -19.999  -8.183  -2.887  0.00  0.00     0.163 HD
BRANCH   4   6
HETATM    6  C           1     -21.907  -8.133  -1.913  0.00  0.00     0.189 C 
BRANCH   6   7
HETATM    7  C           1     -22.047  -6.635  -2.036  0.00  0.00     0.197 C 
HETATM    8  O           1     -21.860  -6.078  -3.140  0.00  0.00    -0.646 OA
HETATM    9  O           1     -22.349  -5.952  -1.035  0.00  0.00    -0.646 OA
ENDBRANCH   6   7
BRANCH   6  10
HETATM   10  C           1     -21.461  -8.487  -0.500  0.00  0.00     0.074 C 
BRANCH  10  11
HETATM   11  C           1     -21.993  -9.837  -0.132  0.00  0.00    -0.056 A 
HETATM   12  C           1     -21.138 -10.800   0.404  0.00  0.00     0.010 A 
HETATM   13  C           1     -21.633 -12.059   0.747  0.00  0.00     0.037 A 
HETATM   14  C           1     -22.983 -12.353   0.554  0.00  0.00     0.065 A 
HETATM   15  C           1     -23.838 -11.389   0.019  0.00  0.00     0.037 A 
HETATM   16  C           1     -23.343 -10.131  -0.324  0.00  0.00     0.010 A 
BRANCH  14  17
HETATM   17  O           1     -23.465 -13.575   0.888  0.00  0.00    -0.361 OA
HETATM   18  H           1     -22.945 -14.243   0.411  0.00  0.00     0.217 HD
ENDBRANCH  14  17
ENDBRANCH  10  11
ENDBRANCH   6  10
ENDBRANCH   4   6
ENDBRANCH   1   2
BRANCH   1  19
HETATM   19  C           1     -19.099  -9.072  -4.859  0.00  0.00     0.081 C 
BRANCH  19  20
HETATM   20  C           1     -17.766  -9.752  -4.831  0.00  0.00    -0.056 A 
HETATM   21  C           1     -17.113  -9.956  -3.615  0.00  0.00     0.010 A 
HETATM   22  C           1     -15.871 -10.590  -3.589  0.00  0.00     0.038 A 
HETATM   23  C           1     -15.281 -11.020  -4.777  0.00  0.00     0.081 A 
HETATM   24  C           1     -15.934 -10.816  -5.993  0.00  0.00     0.038 A 
HETATM   25  C           1     -17.176 -10.182  -6.020  0.00  0.00     0.010 A 
BRANCH  23  26
HETATM   26  O           1     -14.074 -11.636  -4.751  0.00  0.00    -0.247 OA
BRANCH  26  27
HETATM   27  P           1     -14.039 -13.241  -4.925  0.00  0.00     0.411 P 
HETATM   28  O           1     -13.643 -13.577  -6.311  0.00  0.00    -0.624 OA
HETATM   29  O           1     -13.059 -13.818  -3.978  0.00  0.00    -0.624 OA
BRANCH  27  30
HETATM   30  O           1     -15.504 -13.850  -4.622  0.00  0.00    -0.300 OA
HETATM   31  H           1     -15.963 -13.165  -4.167  0.00  0.00     0.223 HD
ENDBRANCH  27  30
ENDBRANCH  26  27
ENDBRANCH  23  26
ENDBRANCH  19  20
ENDBRANCH   1  19
BRANCH   1  32
HETATM   32  N           1     -20.856 -10.333  -6.047  0.00  0.00    -0.066 N 
HETATM   33  H           1     -21.753 -10.853  -5.913  0.00  0.00     0.275 HD
HETATM   34  H           1     -21.055  -9.409  -6.494  0.00  0.00     0.275 HD
HETATM   35  H           1     -20.219 -10.888  -6.661  0.00  0.00     0.275 HD
ENDBRANCH   1  32
TORSDOF 12
ENDMDL
MODEL 7
REMARK VINA RESULT:      -7.4      2.295      3.210
REMARK  12 active torsions:
REMARK  status: ('A' for Active; 'I' for Inactive)
REMARK    1  A    between atoms: C_1  and  C_19 
REMARK    2  A    between atoms: C_1  and  C_2 
REMARK    3  A    between atoms: C_1  and  N_14 
REMARK    4  A    between atoms: C_2  and  C_3 
REMARK    5  A    between atoms: C_6  and  O_7 
REMARK    6  A    between atoms: O_7  and  P_8 
REMARK    7  A    between atoms: P_8  and  O_9 
REMARK       I    between atoms: C_19  and  N_20 
REMARK    8  A    between atoms: N_20  and  C_24 
REMARK    9  A    between atoms: C_23  and  C_24 
REMARK   10  A    between atoms: C_24  and  C_25 
REMARK   11  A    between atoms: C_25  and  C_28 
REMARK   12  A    between atoms: C_31  and  O_32 
ROOT
HETATM    1  C           1     -21.269  -6.745  -4.953  0.00  0.00     0.278 C 
ENDROOT
BRANCH   1   2
HETATM    2  C           1     -20.743  -8.104  -4.560  0.00  0.00     0.249 C 
HETATM    3  O           1     -21.472  -8.901  -4.020  0.00  0.00    -0.271 OA
HETATM    4  N           1     -19.439  -8.434  -4.818  0.00  0.00    -0.344 N 
HETATM    5  H           1     -18.829  -7.767  -5.272  0.00  0.00     0.163 HD
BRANCH   4   6
HETATM    6  C           1     -18.935  -9.740  -4.442  0.00  0.00     0.189 C 
BRANCH   6   7
HETATM    7  C           1     -19.382 -10.763  -5.456  0.00  0.00     0.197 C 
HETATM    8  O           1     -20.184 -11.664  -5.124  0.00  0.00    -0.646 OA
HETATM    9  O           1     -18.952 -10.711  -6.628  0.00  0.00    -0.646 OA
ENDBRANCH   6   7
BRANCH   6  10
HETATM   10  C           1     -19.476 -10.116  -3.068  0.00  0.00     0.074 C 
BRANCH  10  11
HETATM   11  C           1     -18.369 -10.680  -2.232  0.00  0.00    -0.056 A 
HETATM   12  C           1     -17.044 -10.364  -2.527  0.00  0.00     0.010 A 
HETATM   13  C           1     -16.012 -10.890  -1.748  0.00  0.00     0.037 A 
HETATM   14  C           1     -16.307 -11.731  -0.676  0.00  0.00     0.065 A 
HETATM   15  C           1     -17.633 -12.046  -0.381  0.00  0.00     0.037 A 
HETATM   16  C           1     -18.665 -11.521  -1.159  0.00  0.00     0.010 A 
BRANCH  14  17
HETATM   17  O           1     -15.306 -12.241   0.081  0.00  0.00    -0.361 OA
HETATM   18  H           1     -14.914 -12.988  -0.402  0.00  0.00     0.217 HD
ENDBRANCH  14  17
ENDBRANCH  10  11
ENDBRANCH   6  10
ENDBRANCH   4   6
ENDBRANCH   1   2
BRANCH   1  19
HETATM   19  C           1     -20.194  -5.987  -5.721  0.00  0.00     0.081 C 
BRANCH  19  20
HETATM   20  C           1     -20.813  -5.297  -6.896  0.00  0.00    -0.056 A 
HETATM   21  C           1     -22.093  -4.753  -6.790  0.00  0.00     0.010 A 
HETATM   22  C           1     -22.670  -4.110  -7.885  0.00  0.00     0.038 A 
HETATM   23  C           1     -21.968  -4.013  -9.086  0.00  0.00     0.081 A 
HETATM   24  C           1     -20.689  -4.557  -9.193  0.00  0.00     0.038 A 
HETATM   25  C           1     -20.111  -5.200  -8.097  0.00  0.00     0.010 A 
BRANCH  23  26
HETATM   26  O           1     -22.529  -3.388 -10.150  0.00  0.00    -0.247 OA
BRANCH  26  27
HETATM   27  P           1     -23.685  -4.168 -10.964  0.00  0.00     0.411 P 
HETATM   28  O           1     -24.022  -5.424 -10.257  0.00  0.00    -0.624 OA
HETATM   29  O           1     -24.889  -3.313 -11.053  0.00  0.00    -0.624 OA
BRANCH  27  30
HETATM   30  O           1     -23.159  -4.513 -12.452  0.00  0.00    -0.300 OA
HETATM   31  H           1     -23.886  -4.933 -12.877  0.00  0.00     0.223 HD
ENDBRANCH  27  30
ENDBRANCH  26  27
ENDBRANCH  23  26
ENDBRANCH  19  20
ENDBRANCH   1  19
BRANCH   1  32
HETATM   32  N           1     -21.636  -5.976  -3.718  0.00  0.00    -0.066 N 
HETATM   33  H           1     -21.206  -5.024  -3.760  0.00  0.00     0.275 HD
HETATM   34  H           1     -22.675  -5.886  -3.662  0.00  0.00     0.275 HD
HETATM   35  H           1     -21.283  -6.481  -2.875  0.00  0.00     0.275 HD
ENDBRANCH   1  32
TORSDOF 12
ENDMDL
MODEL 8
REMARK VINA RESULT:      -7.3     16.384     19.244
REMARK  12 active torsions:
REMARK  status: ('A' for Active; 'I' for Inactive)
REMARK    1  A    between atoms: C_1  and  C_19 
REMARK    2  A    between atoms: C_1  and  C_2 
REMARK    3  A    between atoms: C_1  and  N_14 
REMARK    4  A    between atoms: C_2  and  C_3 
REMARK    5  A    between atoms: C_6  and  O_7 
REMARK    6  A    between atoms: O_7  and  P_8 
REMARK    7  A    between atoms: P_8  and  O_9 
REMARK       I    between atoms: C_19  and  N_20 
REMARK    8  A    between atoms: N_20  and  C_24 
REMARK    9  A    between atoms: C_23  and  C_24 
REMARK   10  A    between atoms: C_24  and  C_25 
REMARK   11  A    between atoms: C_25  and  C_28 
REMARK   12  A    between atoms: C_31  and  O_32 
ROOT
HETATM    1  C           1     -21.330   9.766   2.637  0.00  0.00     0.278 C 
ENDROOT
BRANCH   1   2
HETATM    2  C           1     -22.008   9.710   1.289  0.00  0.00     0.249 C 
HETATM    3  O           1     -21.871  10.618   0.506  0.00  0.00    -0.271 OA
HETATM    4  N           1     -22.779   8.629   0.956  0.00  0.00    -0.344 N 
HETATM    5  H           1     -22.894   7.867   1.612  0.00  0.00     0.163 HD
BRANCH   4   6
HETATM    6  C           1     -23.430   8.575  -0.338  0.00  0.00     0.189 C 
BRANCH   6   7
HETATM    7  C           1     -24.902   8.862  -0.172  0.00  0.00     0.197 C 
HETATM    8  O           1     -25.436   9.786  -0.825  0.00  0.00    -0.646 OA
HETATM    9  O           1     -25.587   8.178   0.618  0.00  0.00    -0.646 OA
ENDBRANCH   6   7
BRANCH   6  10
HETATM   10  C           1     -23.248   7.187  -0.940  0.00  0.00     0.074 C 
BRANCH  10  11
HETATM   11  C           1     -23.886   7.142  -2.294  0.00  0.00    -0.056 A 
HETATM   12  C           1     -24.904   6.225  -2.554  0.00  0.00     0.010 A 
HETATM   13  C           1     -25.499   6.183  -3.816  0.00  0.00     0.037 A 
HETATM   14  C           1     -25.075   7.058  -4.815  0.00  0.00     0.065 A 
HETATM   15  C           1     -24.058   7.976  -4.554  0.00  0.00     0.037 A 
HETATM   16  C           1     -23.463   8.019  -3.293  0.00  0.00     0.010 A 
BRANCH  14  17
HETATM   17  O           1     -25.653   7.018  -6.040  0.00  0.00    -0.361 OA
HETATM   18  H           1     -24.946   7.037  -6.707  0.00  0.00     0.217 HD
ENDBRANCH  14  17
ENDBRANCH  10  11
ENDBRANCH   6  10
ENDBRANCH   4   6
ENDBRANCH   1   2
BRANCH   1  19
HETATM   19  C           1     -20.477   8.518   2.828  0.00  0.00     0.081 C 
BRANCH  19  20
HETATM   20  C           1     -19.151   8.904   3.404  0.00  0.00    -0.056 A 
HETATM   21  C           1     -18.973   8.931   4.787  0.00  0.00     0.010 A 
HETATM   22  C           1     -17.736   9.291   5.324  0.00  0.00     0.038 A 
HETATM   23  C           1     -16.679   9.623   4.478  0.00  0.00     0.081 A 
HETATM   24  C           1     -16.857   9.596   3.095  0.00  0.00     0.038 A 
HETATM   25  C           1     -18.093   9.237   2.558  0.00  0.00     0.010 A 
BRANCH  23  26
HETATM   26  O           1     -15.478   9.973   4.999  0.00  0.00    -0.247 OA
BRANCH  26  27
HETATM   27  P           1     -14.581   8.814   5.679  0.00  0.00     0.411 P 
HETATM   28  O           1     -13.151   9.184   5.590  0.00  0.00    -0.624 OA
HETATM   29  O           1     -14.965   8.664   7.101  0.00  0.00    -0.624 OA
BRANCH  27  30
HETATM   30  O           1     -14.825   7.418   4.905  0.00  0.00    -0.300 OA
HETATM   31  H           1     -14.895   7.652   3.996  0.00  0.00     0.223 HD
ENDBRANCH  27  30
ENDBRANCH  26  27
ENDBRANCH  23  26
ENDBRANCH  19  20
ENDBRANCH   1  19
BRANCH   1  32
HETATM   32  N           1     -22.369   9.831   3.716  0.00  0.00    -0.066 N 
HETATM   33  H           1     -23.318   9.906   3.284  0.00  0.00     0.275 HD
HETATM   34  H           1     -22.321   8.963   4.297  0.00  0.00     0.275 HD
HETATM   35  H           1     -22.194  10.665   4.320  0.00  0.00     0.275 HD
ENDBRANCH   1  32
TORSDOF 12
ENDMDL
MODEL 9
REMARK VINA RESULT:      -7.2      2.305      3.474
REMARK  12 active torsions:
REMARK  status: ('A' for Active; 'I' for Inactive)
REMARK    1  A    between atoms: C_1  and  C_19 
REMARK    2  A    between atoms: C_1  and  C_2 
REMARK    3  A    between atoms: C_1  and  N_14 
REMARK    4  A    between atoms: C_2  and  C_3 
REMARK    5  A    between atoms: C_6  and  O_7 
REMARK    6  A    between atoms: O_7  and  P_8 
REMARK    7  A    between atoms: P_8  and  O_9 
REMARK       I    between atoms: C_19  and  N_20 
REMARK    8  A    between atoms: N_20  and  C_24 
REMARK    9  A    between atoms: C_23  and  C_24 
REMARK   10  A    between atoms: C_24  and  C_25 
REMARK   11  A    between atoms: C_25  and  C_28 
REMARK   12  A    between atoms: C_31  and  O_32 
ROOT
HETATM    1  C           1     -21.686  -6.499  -4.314  0.00  0.00     0.278 C 
ENDROOT
BRANCH   1   2
HETATM    2  C           1     -21.143  -7.896  -4.138  0.00  0.00     0.249 C 
HETATM    3  O           1     -21.014  -8.359  -3.030  0.00  0.00    -0.271 OA
HETATM    4  N           1     -20.797  -8.640  -5.234  0.00  0.00    -0.344 N 
HETATM    5  H           1     -20.906  -8.253  -6.163  0.00  0.00     0.163 HD
BRANCH   4   6
HETATM    6  C           1     -20.277  -9.982  -5.065  0.00  0.00     0.189 C 
BRANCH   6   7
HETATM    7  C           1     -18.833 -10.020  -5.505  0.00  0.00     0.197 C 
HETATM    8  O           1     -17.948  -9.498  -4.792  0.00  0.00    -0.646 OA
HETATM    9  O           1     -18.524 -10.572  -6.582  0.00  0.00    -0.646 OA
ENDBRANCH   6   7
BRANCH   6  10
HETATM   10  C           1     -21.091 -10.952  -5.911  0.00  0.00     0.074 C 
BRANCH  10  11
HETATM   11  C           1     -21.688 -12.005  -5.028  0.00  0.00    -0.056 A 
HETATM   12  C           1     -22.031 -11.698  -3.712  0.00  0.00     0.010 A 
HETATM   13  C           1     -22.587 -12.678  -2.889  0.00  0.00     0.037 A 
HETATM   14  C           1     -22.798 -13.965  -3.384  0.00  0.00     0.065 A 
HETATM   15  C           1     -22.455 -14.272  -4.701  0.00  0.00     0.037 A 
HETATM   16  C           1     -21.899 -13.292  -5.523  0.00  0.00     0.010 A 
BRANCH  14  17
HETATM   17  O           1     -23.338 -14.917  -2.586  0.00  0.00    -0.361 OA
HETATM   18  H           1     -22.612 -15.450  -2.220  0.00  0.00     0.217 HD
ENDBRANCH  14  17
ENDBRANCH  10  11
ENDBRANCH   6  10
ENDBRANCH   4   6
ENDBRANCH   1   2
BRANCH   1  19
HETATM   19  C           1     -20.541  -5.546  -4.633  0.00  0.00     0.081 C 
BRANCH  19  20
HETATM   20  C           1     -20.554  -5.222  -6.094  0.00  0.00    -0.056 A 
HETATM   21  C           1     -21.674  -5.531  -6.866  0.00  0.00     0.010 A 
HETATM   22  C           1     -21.686  -5.229  -8.228  0.00  0.00     0.038 A 
HETATM   23  C           1     -20.580  -4.618  -8.817  0.00  0.00     0.081 A 
HETATM   24  C           1     -19.460  -4.309  -8.045  0.00  0.00     0.038 A 
HETATM   25  C           1     -19.447  -4.611  -6.683  0.00  0.00     0.010 A 
BRANCH  23  26
HETATM   26  O           1     -20.592  -4.324 -10.140  0.00  0.00    -0.247 OA
BRANCH  26  27
HETATM   27  P           1     -21.953  -3.726 -10.771  0.00  0.00     0.411 P 
HETATM   28  O           1     -21.624  -2.599 -11.672  0.00  0.00    -0.624 OA
HETATM   29  O           1     -22.649  -4.784 -11.536  0.00  0.00    -0.624 OA
BRANCH  27  30
HETATM   30  O           1     -22.914  -3.201  -9.583  0.00  0.00    -0.300 OA
HETATM   31  H           1     -22.983  -3.925  -8.987  0.00  0.00     0.223 HD
ENDBRANCH  27  30
ENDBRANCH  26  27
ENDBRANCH  23  26
ENDBRANCH  19  20
ENDBRANCH   1  19
BRANCH   1  32
HETATM   32  N           1     -22.360  -6.062  -3.047  0.00  0.00    -0.066 N 
HETATM   33  H           1     -22.825  -5.139  -3.200  0.00  0.00     0.275 HD
HETATM   34  H           1     -23.078  -6.771  -2.774  0.00  0.00     0.275 HD
HETATM   35  H           1     -21.650  -5.973  -2.287  0.00  0.00     0.275 HD
ENDBRANCH   1  32
TORSDOF 12
ENDMDL
