MODEL 1
REMARK VINA RESULT:      -6.4      0.000      0.000
REMARK  11 active torsions:
REMARK  status: ('A' for Active; 'I' for Inactive)
REMARK       I    between atoms: C_1  and  N_10 
REMARK    1  A    between atoms: C_1  and  C_8 
REMARK    2  A    between atoms: C_2  and  C_15 
REMARK    3  A    between atoms: N_5  and  C_6 
REMARK    4  A    between atoms: C_6  and  C_7 
REMARK    5  A    between atoms: C_7  and  C_14 
REMARK    6  A    between atoms: C_8  and  C_9 
REMARK    7  A    between atoms: C_8  and  N_13 
REMARK    8  A    between atoms: C_9  and  C_25 
REMARK    9  A    between atoms: N_10  and  C_15 
REMARK   10  A    between atoms: C_14  and  C_15 
REMARK       I    between atoms: N_16  and  C_17 
REMARK   11  A    between atoms: C_17  and  C_25 
ROOT
HETATM    1  C           1     -25.641  -6.477 -18.073  0.00  0.00     0.249 C 
HETATM    2  N           1     -26.941  -6.139 -17.806  0.00  0.00    -0.345 N 
HETATM    3  O           1     -24.862  -6.644 -17.165  0.00  0.00    -0.271 OA
HETATM    4  H           1     -27.594  -6.000 -18.567  0.00  0.00     0.163 HD
ENDROOT
BRANCH   1   5
HETATM    5  C           1     -25.181  -6.642 -19.501  0.00  0.00     0.275 C 
BRANCH   5   6
HETATM    6  C           1     -26.393  -6.758 -20.416  0.00  0.00     0.052 C 
BRANCH   6   7
HETATM    7  C           1     -26.413  -8.138 -21.060  0.00  0.00     0.105 C 
BRANCH   7   8
HETATM    8  C           1     -27.779  -8.755 -20.886  0.00  0.00     0.215 C 
HETATM    9  N           1     -28.614  -8.304 -19.899  0.00  0.00    -0.370 N 
HETATM   10  H           1     -29.529  -8.718 -19.783  0.00  0.00     0.159 HD
HETATM   11  H           1     -28.315  -7.558 -19.285  0.00  0.00     0.159 HD
HETATM   12  O           1     -28.137  -9.646 -21.620  0.00  0.00    -0.274 OA
ENDBRANCH   7   8
ENDBRANCH   6   7
ENDBRANCH   5   6
BRANCH   5  13
HETATM   13  N           1     -24.348  -7.884 -19.615  0.00  0.00    -0.066 N 
HETATM   14  H           1     -23.457  -7.755 -19.083  0.00  0.00     0.275 HD
HETATM   15  H           1     -24.875  -8.695 -19.220  0.00  0.00     0.275 HD
HETATM   16  H           1     -24.129  -8.065 -20.621  0.00  0.00     0.275 HD
ENDBRANCH   5  13
ENDBRANCH   1   5
BRANCH   2  17
HETATM   17  C           1     -27.383  -5.981 -16.434  0.00  0.00     0.185 C 
BRANCH  17  18
HETATM   18  C           1     -28.198  -7.184 -16.027  0.00  0.00     0.196 C 
HETATM   19  O           1     -28.028  -7.703 -14.901  0.00  0.00    -0.646 OA
HETATM   20  O           1     -29.041  -7.664 -16.814  0.00  0.00    -0.646 OA
ENDBRANCH  17  18
BRANCH  17  21
HETATM   21  C           1     -28.237  -4.726 -16.318  0.00  0.00     0.038 C 
BRANCH  21  22
HETATM   22  C           1     -28.896  -4.434 -17.659  0.00  0.00     0.030 C 
BRANCH  22  23
HETATM   23  C           1     -30.407  -4.366 -17.479  0.00  0.00     0.230 C 
BRANCH  23  24
HETATM   24  N           1     -30.877  -2.960 -17.707  0.00  0.00    -0.079 N 
HETATM   25  H           1     -30.914  -2.768 -18.734  0.00  0.00     0.274 HD
HETATM   26  H           1     -31.830  -2.842 -17.296  0.00  0.00     0.274 HD
HETATM   27  H           1     -30.214  -2.294 -17.252  0.00  0.00     0.274 HD
ENDBRANCH  23  24
ENDBRANCH  22  23
ENDBRANCH  21  22
ENDBRANCH  17  21
ENDBRANCH   2  17
TORSDOF 11
ENDMDL
MODEL 2
REMARK VINA RESULT:      -6.2      2.003      2.562
REMARK  11 active torsions:
REMARK  status: ('A' for Active; 'I' for Inactive)
REMARK       I    between atoms: C_1  and  N_10 
REMARK    1  A    between atoms: C_1  and  C_8 
REMARK    2  A    between atoms: C_2  and  C_15 
REMARK    3  A    between atoms: N_5  and  C_6 
REMARK    4  A    between atoms: C_6  and  C_7 
REMARK    5  A    between atoms: C_7  and  C_14 
REMARK    6  A    between atoms: C_8  and  C_9 
REMARK    7  A    between atoms: C_8  and  N_13 
REMARK    8  A    between atoms: C_9  and  C_25 
REMARK    9  A    between atoms: N_10  and  C_15 
REMARK   10  A    between atoms: C_14  and  C_15 
REMARK       I    between atoms: N_16  and  C_17 
REMARK   11  A    between atoms: C_17  and  C_25 
ROOT
HETATM    1  C           1     -26.127  -6.857 -16.420  0.00  0.00     0.249 C 
HETATM    2  N           1     -27.268  -6.390 -17.017  0.00  0.00    -0.345 N 
HETATM    3  O           1     -26.170  -7.291 -15.293  0.00  0.00    -0.271 OA
HETATM    4  H           1     -27.232  -6.028 -17.961  0.00  0.00     0.163 HD
ENDROOT
BRANCH   1   5
HETATM    5  C           1     -24.818  -6.832 -17.169  0.00  0.00     0.275 C 
BRANCH   5   6
HETATM    6  C           1     -25.087  -6.841 -18.667  0.00  0.00     0.052 C 
BRANCH   6   7
HETATM    7  C           1     -23.860  -7.365 -19.401  0.00  0.00     0.105 C 
BRANCH   7   8
HETATM    8  C           1     -24.287  -8.026 -20.689  0.00  0.00     0.215 C 
HETATM    9  N           1     -23.353  -8.613 -21.500  0.00  0.00    -0.370 N 
HETATM   10  H           1     -23.640  -9.055 -22.363  0.00  0.00     0.159 HD
HETATM   11  H           1     -22.376  -8.603 -21.237  0.00  0.00     0.159 HD
HETATM   12  O           1     -25.453  -8.039 -21.004  0.00  0.00    -0.274 OA
ENDBRANCH   7   8
ENDBRANCH   6   7
ENDBRANCH   5   6
BRANCH   5  13
HETATM   13  N           1     -24.008  -8.040 -16.799  0.00  0.00    -0.066 N 
HETATM   14  H           1     -24.618  -8.728 -16.301  0.00  0.00     0.275 HD
HETATM   15  H           1     -23.623  -8.479 -17.665  0.00  0.00     0.275 HD
HETATM   16  H           1     -23.223  -7.754 -16.172  0.00  0.00     0.275 HD
ENDBRANCH   5  13
ENDBRANCH   1   5
BRANCH   2  17
HETATM   17  C           1     -28.526  -6.415 -16.297  0.00  0.00     0.185 C 
BRANCH  17  18
HETATM   18  C           1     -29.575  -7.096 -17.142  0.00  0.00     0.196 C 
HETATM   19  O           1     -30.486  -6.422 -17.671  0.00  0.00    -0.646 OA
HETATM   20  O           1     -29.534  -8.333 -17.313  0.00  0.00    -0.646 OA
ENDBRANCH  17  18
BRANCH  17  21
HETATM   21  C           1     -28.965  -4.990 -15.993  0.00  0.00     0.038 C 
BRANCH  21  22
HETATM   22  C           1     -28.271  -4.029 -16.950  0.00  0.00     0.030 C 
BRANCH  22  23
HETATM   23  C           1     -29.177  -2.835 -17.217  0.00  0.00     0.230 C 
BRANCH  23  24
HETATM   24  N           1     -30.418  -3.295 -17.922  0.00  0.00    -0.079 N 
HETATM   25  H           1     -30.840  -2.493 -18.442  0.00  0.00     0.274 HD
HETATM   26  H           1     -30.173  -4.055 -18.595  0.00  0.00     0.274 HD
HETATM   27  H           1     -31.103  -3.655 -17.222  0.00  0.00     0.274 HD
ENDBRANCH  23  24
ENDBRANCH  22  23
ENDBRANCH  21  22
ENDBRANCH  17  21
ENDBRANCH   2  17
TORSDOF 11
ENDMDL
MODEL 3
REMARK VINA RESULT:      -6.0      2.287      2.972
REMARK  11 active torsions:
REMARK  status: ('A' for Active; 'I' for Inactive)
REMARK       I    between atoms: C_1  and  N_10 
REMARK    1  A    between atoms: C_1  and  C_8 
REMARK    2  A    between atoms: C_2  and  C_15 
REMARK    3  A    between atoms: N_5  and  C_6 
REMARK    4  A    between atoms: C_6  and  C_7 
REMARK    5  A    between atoms: C_7  and  C_14 
REMARK    6  A    between atoms: C_8  and  C_9 
REMARK    7  A    between atoms: C_8  and  N_13 
REMARK    8  A    between atoms: C_9  and  C_25 
REMARK    9  A    between atoms: N_10  and  C_15 
REMARK   10  A    between atoms: C_14  and  C_15 
REMARK       I    between atoms: N_16  and  C_17 
REMARK   11  A    between atoms: C_17  and  C_25 
ROOT
HETATM    1  C           1     -25.409  -6.928 -18.848  0.00  0.00     0.249 C 
HETATM    2  N           1     -26.587  -6.632 -18.216  0.00  0.00    -0.345 N 
HETATM    3  O           1     -24.358  -6.602 -18.350  0.00  0.00    -0.271 OA
HETATM    4  H           1     -27.467  -6.906 -18.633  0.00  0.00     0.163 HD
ENDROOT
BRANCH   1   5
HETATM    5  C           1     -25.422  -7.662 -20.166  0.00  0.00     0.275 C 
BRANCH   5   6
HETATM    6  C           1     -24.574  -6.905 -21.179  0.00  0.00     0.052 C 
BRANCH   6   7
HETATM    7  C           1     -24.249  -7.819 -22.354  0.00  0.00     0.105 C 
BRANCH   7   8
HETATM    8  C           1     -22.975  -8.574 -22.067  0.00  0.00     0.215 C 
HETATM    9  N           1     -22.578  -9.589 -22.897  0.00  0.00    -0.370 N 
HETATM   10  H           1     -21.724 -10.095 -22.705  0.00  0.00     0.159 HD
HETATM   11  H           1     -23.141  -9.833 -23.702  0.00  0.00     0.159 HD
HETATM   12  O           1     -22.302  -8.282 -21.107  0.00  0.00    -0.274 OA
ENDBRANCH   7   8
ENDBRANCH   6   7
ENDBRANCH   5   6
BRANCH   5  13
HETATM   13  N           1     -26.833  -7.758 -20.668  0.00  0.00    -0.066 N 
HETATM   14  H           1     -26.970  -8.677 -21.148  0.00  0.00     0.275 HD
HETATM   15  H           1     -27.495  -7.685 -19.863  0.00  0.00     0.275 HD
HETATM   16  H           1     -27.015  -6.983 -21.344  0.00  0.00     0.275 HD
ENDBRANCH   5  13
ENDBRANCH   1   5
BRANCH   2  17
HETATM   17  C           1     -26.573  -5.926 -16.949  0.00  0.00     0.185 C 
BRANCH  17  18
HETATM   18  C           1     -26.563  -6.926 -15.818  0.00  0.00     0.196 C 
HETATM   19  O           1     -25.477  -7.376 -15.390  0.00  0.00    -0.646 OA
HETATM   20  O           1     -27.639  -7.305 -15.309  0.00  0.00    -0.646 OA
ENDBRANCH  17  18
BRANCH  17  21
HETATM   21  C           1     -27.815  -5.052 -16.842  0.00  0.00     0.038 C 
BRANCH  21  22
HETATM   22  C           1     -28.731  -5.322 -18.028  0.00  0.00     0.030 C 
BRANCH  22  23
HETATM   23  C           1     -30.092  -5.782 -17.524  0.00  0.00     0.230 C 
BRANCH  23  24
HETATM   24  N           1     -30.153  -5.628 -16.034  0.00  0.00    -0.079 N 
HETATM   25  H           1     -29.261  -5.206 -15.691  0.00  0.00     0.274 HD
HETATM   26  H           1     -30.953  -5.004 -15.782  0.00  0.00     0.274 HD
HETATM   27  H           1     -30.287  -6.565 -15.592  0.00  0.00     0.274 HD
ENDBRANCH  23  24
ENDBRANCH  22  23
ENDBRANCH  21  22
ENDBRANCH  17  21
ENDBRANCH   2  17
TORSDOF 11
ENDMDL
MODEL 4
REMARK VINA RESULT:      -5.6     12.899     14.806
REMARK  11 active torsions:
REMARK  status: ('A' for Active; 'I' for Inactive)
REMARK       I    between atoms: C_1  and  N_10 
REMARK    1  A    between atoms: C_1  and  C_8 
REMARK    2  A    between atoms: C_2  and  C_15 
REMARK    3  A    between atoms: N_5  and  C_6 
REMARK    4  A    between atoms: C_6  and  C_7 
REMARK    5  A    between atoms: C_7  and  C_14 
REMARK    6  A    between atoms: C_8  and  C_9 
REMARK    7  A    between atoms: C_8  and  N_13 
REMARK    8  A    between atoms: C_9  and  C_25 
REMARK    9  A    between atoms: N_10  and  C_15 
REMARK   10  A    between atoms: C_14  and  C_15 
REMARK       I    between atoms: N_16  and  C_17 
REMARK   11  A    between atoms: C_17  and  C_25 
ROOT
HETATM    1  C           1     -21.382  -5.507  -5.731  0.00  0.00     0.249 C 
HETATM    2  N           1     -20.785  -6.402  -4.883  0.00  0.00    -0.345 N 
HETATM    3  O           1     -22.587  -5.476  -5.825  0.00  0.00    -0.271 OA
HETATM    4  H           1     -19.777  -6.427  -4.804  0.00  0.00     0.163 HD
ENDROOT
BRANCH   1   5
HETATM    5  C           1     -20.538  -4.559  -6.546  0.00  0.00     0.275 C 
BRANCH   5   6
HETATM    6  C           1     -21.441  -3.605  -7.315  0.00  0.00     0.052 C 
BRANCH   6   7
HETATM    7  C           1     -21.540  -4.056  -8.767  0.00  0.00     0.105 C 
BRANCH   7   8
HETATM    8  C           1     -22.987  -4.286  -9.126  0.00  0.00     0.215 C 
HETATM    9  N           1     -23.970  -4.029  -8.207  0.00  0.00    -0.370 N 
HETATM   10  H           1     -24.940  -4.184  -8.448  0.00  0.00     0.159 HD
HETATM   11  H           1     -23.726  -3.687  -7.287  0.00  0.00     0.159 HD
HETATM   12  O           1     -23.280  -4.694 -10.224  0.00  0.00    -0.274 OA
ENDBRANCH   7   8
ENDBRANCH   6   7
ENDBRANCH   5   6
BRANCH   5  13
HETATM   13  N           1     -19.702  -5.344  -7.514  0.00  0.00    -0.066 N 
HETATM   14  H           1     -18.846  -5.697  -7.028  0.00  0.00     0.275 HD
HETATM   15  H           1     -20.255  -6.154  -7.876  0.00  0.00     0.275 HD
HETATM   16  H           1     -19.420  -4.729  -8.310  0.00  0.00     0.275 HD
ENDBRANCH   5  13
ENDBRANCH   1   5
BRANCH   2  17
HETATM   17  C           1     -21.597  -7.312  -4.099  0.00  0.00     0.185 C 
BRANCH  17  18
HETATM   18  C           1     -21.618  -6.854  -2.661  0.00  0.00     0.196 C 
HETATM   19  O           1     -22.373  -5.920  -2.313  0.00  0.00    -0.646 OA
HETATM   20  O           1     -20.881  -7.409  -1.818  0.00  0.00    -0.646 OA
ENDBRANCH  17  18
BRANCH  17  21
HETATM   21  C           1     -21.008  -8.713  -4.178  0.00  0.00     0.038 C 
BRANCH  21  22
HETATM   22  C           1     -19.659  -8.659  -4.883  0.00  0.00     0.030 C 
BRANCH  22  23
HETATM   23  C           1     -18.675  -9.575  -4.169  0.00  0.00     0.230 C 
BRANCH  23  24
HETATM   24  N           1     -18.582  -9.181  -2.725  0.00  0.00    -0.079 N 
HETATM   25  H           1     -17.723  -8.605  -2.576  0.00  0.00     0.274 HD
HETATM   26  H           1     -19.425  -8.624  -2.461  0.00  0.00     0.274 HD
HETATM   27  H           1     -18.531 -10.040  -2.132  0.00  0.00     0.274 HD
ENDBRANCH  23  24
ENDBRANCH  22  23
ENDBRANCH  21  22
ENDBRANCH  17  21
ENDBRANCH   2  17
TORSDOF 11
ENDMDL
MODEL 5
REMARK VINA RESULT:      -5.6     12.400     14.136
REMARK  11 active torsions:
REMARK  status: ('A' for Active; 'I' for Inactive)
REMARK       I    between atoms: C_1  and  N_10 
REMARK    1  A    between atoms: C_1  and  C_8 
REMARK    2  A    between atoms: C_2  and  C_15 
REMARK    3  A    between atoms: N_5  and  C_6 
REMARK    4  A    between atoms: C_6  and  C_7 
REMARK    5  A    between atoms: C_7  and  C_14 
REMARK    6  A    between atoms: C_8  and  C_9 
REMARK    7  A    between atoms: C_8  and  N_13 
REMARK    8  A    between atoms: C_9  and  C_25 
REMARK    9  A    between atoms: N_10  and  C_15 
REMARK   10  A    between atoms: C_14  and  C_15 
REMARK       I    between atoms: N_16  and  C_17 
REMARK   11  A    between atoms: C_17  and  C_25 
ROOT
HETATM    1  C           1     -20.788  -4.827  -6.070  0.00  0.00     0.249 C 
HETATM    2  N           1     -21.513  -5.962  -5.822  0.00  0.00    -0.345 N 
HETATM    3  O           1     -19.958  -4.456  -5.275  0.00  0.00    -0.271 OA
HETATM    4  H           1     -22.208  -6.273  -6.489  0.00  0.00     0.163 HD
ENDROOT
BRANCH   1   5
HETATM    5  C           1     -21.025  -4.040  -7.336  0.00  0.00     0.275 C 
BRANCH   5   6
HETATM    6  C           1     -22.464  -4.232  -7.793  0.00  0.00     0.052 C 
BRANCH   6   7
HETATM    7  C           1     -22.500  -4.395  -9.307  0.00  0.00     0.105 C 
BRANCH   7   8
HETATM    8  C           1     -23.756  -3.764  -9.852  0.00  0.00     0.215 C 
HETATM    9  N           1     -24.710  -3.283  -8.994  0.00  0.00    -0.370 N 
HETATM   10  H           1     -25.552  -2.860  -9.361  0.00  0.00     0.159 HD
HETATM   11  H           1     -24.571  -3.352  -7.994  0.00  0.00     0.159 HD
HETATM   12  O           1     -23.922  -3.681 -11.046  0.00  0.00    -0.274 OA
ENDBRANCH   7   8
ENDBRANCH   6   7
ENDBRANCH   5   6
BRANCH   5  13
HETATM   13  N           1     -20.092  -4.525  -8.406  0.00  0.00    -0.066 N 
HETATM   14  H           1     -19.308  -5.060  -7.968  0.00  0.00     0.275 HD
HETATM   15  H           1     -20.611  -5.148  -9.065  0.00  0.00     0.275 HD
HETATM   16  H           1     -19.705  -3.707  -8.927  0.00  0.00     0.275 HD
ENDBRANCH   5  13
ENDBRANCH   1   5
BRANCH   2  17
HETATM   17  C           1     -21.285  -6.718  -4.606  0.00  0.00     0.185 C 
BRANCH  17  18
HETATM   18  C           1     -21.310  -8.194  -4.919  0.00  0.00     0.196 C 
HETATM   19  O           1     -21.162  -8.585  -6.098  0.00  0.00    -0.646 OA
HETATM   20  O           1     -21.479  -9.025  -4.002  0.00  0.00    -0.646 OA
ENDBRANCH  17  18
BRANCH  17  21
HETATM   21  C           1     -22.378  -6.394  -3.596  0.00  0.00     0.038 C 
BRANCH  21  22
HETATM   22  C           1     -21.743  -6.016  -2.264  0.00  0.00     0.030 C 
BRANCH  22  23
HETATM   23  C           1     -22.269  -6.936  -1.171  0.00  0.00     0.230 C 
BRANCH  23  24
HETATM   24  N           1     -21.388  -8.146  -1.067  0.00  0.00    -0.079 N 
HETATM   25  H           1     -21.073  -8.430  -2.022  0.00  0.00     0.274 HD
HETATM   26  H           1     -20.555  -7.919  -0.479  0.00  0.00     0.274 HD
HETATM   27  H           1     -21.922  -8.929  -0.629  0.00  0.00     0.274 HD
ENDBRANCH  23  24
ENDBRANCH  22  23
ENDBRANCH  21  22
ENDBRANCH  17  21
ENDBRANCH   2  17
TORSDOF 11
ENDMDL
MODEL 6
REMARK VINA RESULT:      -5.6     12.181     13.914
REMARK  11 active torsions:
REMARK  status: ('A' for Active; 'I' for Inactive)
REMARK       I    between atoms: C_1  and  N_10 
REMARK    1  A    between atoms: C_1  and  C_8 
REMARK    2  A    between atoms: C_2  and  C_15 
REMARK    3  A    between atoms: N_5  and  C_6 
REMARK    4  A    between atoms: C_6  and  C_7 
REMARK    5  A    between atoms: C_7  and  C_14 
REMARK    6  A    between atoms: C_8  and  C_9 
REMARK    7  A    between atoms: C_8  and  N_13 
REMARK    8  A    between atoms: C_9  and  C_25 
REMARK    9  A    between atoms: N_10  and  C_15 
REMARK   10  A    between atoms: C_14  and  C_15 
REMARK       I    between atoms: N_16  and  C_17 
REMARK   11  A    between atoms: C_17  and  C_25 
ROOT
HETATM    1  C           1     -21.249  -5.143  -6.795  0.00  0.00     0.249 C 
HETATM    2  N           1     -21.494  -6.379  -6.259  0.00  0.00    -0.345 N 
HETATM    3  O           1     -20.580  -4.343  -6.185  0.00  0.00    -0.271 OA
HETATM    4  H           1     -22.053  -7.050  -6.771  0.00  0.00     0.163 HD
ENDROOT
BRANCH   1   5
HETATM    5  C           1     -21.813  -4.779  -8.146  0.00  0.00     0.275 C 
BRANCH   5   6
HETATM    6  C           1     -20.798  -3.944  -8.914  0.00  0.00     0.052 C 
BRANCH   6   7
HETATM    7  C           1     -20.646  -4.498 -10.324  0.00  0.00     0.105 C 
BRANCH   7   8
HETATM    8  C           1     -21.539  -3.730 -11.266  0.00  0.00     0.215 C 
HETATM    9  N           1     -21.368  -3.846 -12.620  0.00  0.00    -0.370 N 
HETATM   10  H           1     -21.967  -3.330 -13.251  0.00  0.00     0.159 HD
HETATM   11  H           1     -20.641  -4.446 -12.989  0.00  0.00     0.159 HD
HETATM   12  O           1     -22.408  -3.014 -10.827  0.00  0.00    -0.274 OA
ENDBRANCH   7   8
ENDBRANCH   6   7
ENDBRANCH   5   6
BRANCH   5  13
HETATM   13  N           1     -23.074  -3.988  -7.962  0.00  0.00    -0.066 N 
HETATM   14  H           1     -23.128  -3.642  -6.977  0.00  0.00     0.275 HD
HETATM   15  H           1     -23.073  -3.174  -8.617  0.00  0.00     0.275 HD
HETATM   16  H           1     -23.899  -4.597  -8.162  0.00  0.00     0.275 HD
ENDBRANCH   5  13
ENDBRANCH   1   5
BRANCH   2  17
HETATM   17  C           1     -20.951  -6.728  -4.961  0.00  0.00     0.185 C 
BRANCH  17  18
HETATM   18  C           1     -20.404  -8.135  -5.006  0.00  0.00     0.196 C 
HETATM   19  O           1     -20.980  -9.050  -4.379  0.00  0.00    -0.646 OA
HETATM   20  O           1     -19.376  -8.384  -5.670  0.00  0.00    -0.646 OA
ENDBRANCH  17  18
BRANCH  17  21
HETATM   21  C           1     -22.052  -6.645  -3.912  0.00  0.00     0.038 C 
BRANCH  21  22
HETATM   22  C           1     -21.470  -6.123  -2.605  0.00  0.00     0.030 C 
BRANCH  22  23
HETATM   23  C           1     -22.146  -6.822  -1.433  0.00  0.00     0.230 C 
BRANCH  23  24
HETATM   24  N           1     -21.798  -8.281  -1.451  0.00  0.00    -0.079 N 
HETATM   25  H           1     -22.278  -8.744  -2.255  0.00  0.00     0.274 HD
HETATM   26  H           1     -20.764  -8.390  -1.553  0.00  0.00     0.274 HD
HETATM   27  H           1     -22.110  -8.724  -0.558  0.00  0.00     0.274 HD
ENDBRANCH  23  24
ENDBRANCH  22  23
ENDBRANCH  21  22
ENDBRANCH  17  21
ENDBRANCH   2  17
TORSDOF 11
ENDMDL
MODEL 7
REMARK VINA RESULT:      -5.3      2.272      3.154
REMARK  11 active torsions:
REMARK  status: ('A' for Active; 'I' for Inactive)
REMARK       I    between atoms: C_1  and  N_10 
REMARK    1  A    between atoms: C_1  and  C_8 
REMARK    2  A    between atoms: C_2  and  C_15 
REMARK    3  A    between atoms: N_5  and  C_6 
REMARK    4  A    between atoms: C_6  and  C_7 
REMARK    5  A    between atoms: C_7  and  C_14 
REMARK    6  A    between atoms: C_8  and  C_9 
REMARK    7  A    between atoms: C_8  and  N_13 
REMARK    8  A    between atoms: C_9  and  C_25 
REMARK    9  A    between atoms: N_10  and  C_15 
REMARK   10  A    between atoms: C_14  and  C_15 
REMARK       I    between atoms: N_16  and  C_17 
REMARK   11  A    between atoms: C_17  and  C_25 
ROOT
HETATM    1  C           1     -27.212  -6.088 -19.339  0.00  0.00     0.249 C 
HETATM    2  N           1     -26.502  -6.526 -18.253  0.00  0.00    -0.345 N 
HETATM    3  O           1     -28.189  -5.394 -19.182  0.00  0.00    -0.271 OA
HETATM    4  H           1     -25.683  -7.105 -18.385  0.00  0.00     0.163 HD
ENDROOT
BRANCH   1   5
HETATM    5  C           1     -26.775  -6.470 -20.732  0.00  0.00     0.275 C 
BRANCH   5   6
HETATM    6  C           1     -26.282  -7.910 -20.733  0.00  0.00     0.052 C 
BRANCH   6   7
HETATM    7  C           1     -25.000  -8.007 -21.551  0.00  0.00     0.105 C 
BRANCH   7   8
HETATM    8  C           1     -23.817  -8.123 -20.622  0.00  0.00     0.215 C 
HETATM    9  N           1     -22.750  -8.910 -20.966  0.00  0.00    -0.370 N 
HETATM   10  H           1     -21.958  -8.988 -20.343  0.00  0.00     0.159 HD
HETATM   11  H           1     -22.756  -9.416 -21.843  0.00  0.00     0.159 HD
HETATM   12  O           1     -23.809  -7.519 -19.576  0.00  0.00    -0.274 OA
ENDBRANCH   7   8
ENDBRANCH   6   7
ENDBRANCH   5   6
BRANCH   5  13
HETATM   13  N           1     -25.667  -5.561 -21.173  0.00  0.00    -0.066 N 
HETATM   14  H           1     -25.825  -4.604 -20.784  0.00  0.00     0.275 HD
HETATM   15  H           1     -24.753  -5.930 -20.825  0.00  0.00     0.275 HD
HETATM   16  H           1     -25.650  -5.513 -22.217  0.00  0.00     0.275 HD
ENDBRANCH   5  13
ENDBRANCH   1   5
BRANCH   2  17
HETATM   17  C           1     -26.922  -6.158 -16.915  0.00  0.00     0.185 C 
BRANCH  17  18
HETATM   18  C           1     -25.814  -6.467 -15.938  0.00  0.00     0.196 C 
HETATM   19  O           1     -24.898  -5.637 -15.747  0.00  0.00    -0.646 OA
HETATM   20  O           1     -25.810  -7.553 -15.320  0.00  0.00    -0.646 OA
ENDBRANCH  17  18
BRANCH  17  21
HETATM   21  C           1     -28.167  -6.949 -16.539  0.00  0.00     0.038 C 
BRANCH  21  22
HETATM   22  C           1     -29.014  -6.134 -15.571  0.00  0.00     0.030 C 
BRANCH  22  23
HETATM   23  C           1     -30.075  -5.366 -16.348  0.00  0.00     0.230 C 
BRANCH  23  24
HETATM   24  N           1     -31.063  -6.330 -16.935  0.00  0.00    -0.079 N 
HETATM   25  H           1     -30.789  -7.306 -16.682  0.00  0.00     0.274 HD
HETATM   26  H           1     -32.015  -6.126 -16.555  0.00  0.00     0.274 HD
HETATM   27  H           1     -31.072  -6.230 -17.974  0.00  0.00     0.274 HD
ENDBRANCH  23  24
ENDBRANCH  22  23
ENDBRANCH  21  22
ENDBRANCH  17  21
ENDBRANCH   2  17
TORSDOF 11
ENDMDL
MODEL 8
REMARK VINA RESULT:      -5.0     13.694     15.545
REMARK  11 active torsions:
REMARK  status: ('A' for Active; 'I' for Inactive)
REMARK       I    between atoms: C_1  and  N_10 
REMARK    1  A    between atoms: C_1  and  C_8 
REMARK    2  A    between atoms: C_2  and  C_15 
REMARK    3  A    between atoms: N_5  and  C_6 
REMARK    4  A    between atoms: C_6  and  C_7 
REMARK    5  A    between atoms: C_7  and  C_14 
REMARK    6  A    between atoms: C_8  and  C_9 
REMARK    7  A    between atoms: C_8  and  N_13 
REMARK    8  A    between atoms: C_9  and  C_25 
REMARK    9  A    between atoms: N_10  and  C_15 
REMARK   10  A    between atoms: C_14  and  C_15 
REMARK       I    between atoms: N_16  and  C_17 
REMARK   11  A    between atoms: C_17  and  C_25 
ROOT
HETATM    1  C           1     -21.077  -6.827  -5.104  0.00  0.00     0.249 C 
HETATM    2  N           1     -20.902  -6.616  -3.762  0.00  0.00    -0.345 N 
HETATM    3  O           1     -21.590  -7.849  -5.493  0.00  0.00    -0.271 OA
HETATM    4  H           1     -20.473  -5.759  -3.437  0.00  0.00     0.163 HD
ENDROOT
BRANCH   1   5
HETATM    5  C           1     -20.631  -5.783  -6.098  0.00  0.00     0.275 C 
BRANCH   5   6
HETATM    6  C           1     -21.846  -5.046  -6.642  0.00  0.00     0.052 C 
BRANCH   6   7
HETATM    7  C           1     -21.499  -4.414  -7.984  0.00  0.00     0.105 C 
BRANCH   7   8
HETATM    8  C           1     -22.740  -4.329  -8.838  0.00  0.00     0.215 C 
HETATM    9  N           1     -23.928  -3.932  -8.282  0.00  0.00    -0.370 N 
HETATM   10  H           1     -24.759  -3.875  -8.855  0.00  0.00     0.159 HD
HETATM   11  H           1     -23.973  -3.696  -7.299  0.00  0.00     0.159 HD
HETATM   12  O           1     -22.687  -4.610 -10.011  0.00  0.00    -0.274 OA
ENDBRANCH   7   8
ENDBRANCH   6   7
ENDBRANCH   5   6
BRANCH   5  13
HETATM   13  N           1     -19.903  -6.449  -7.227  0.00  0.00    -0.066 N 
HETATM   14  H           1     -20.095  -5.935  -8.117  0.00  0.00     0.275 HD
HETATM   15  H           1     -18.876  -6.439  -7.035  0.00  0.00     0.275 HD
HETATM   16  H           1     -20.232  -7.437  -7.319  0.00  0.00     0.275 HD
ENDBRANCH   5  13
ENDBRANCH   1   5
BRANCH   2  17
HETATM   17  C           1     -21.331  -7.620  -2.808  0.00  0.00     0.185 C 
BRANCH  17  18
HETATM   18  C           1     -22.089  -6.954  -1.685  0.00  0.00     0.196 C 
HETATM   19  O           1     -22.247  -7.550  -0.597  0.00  0.00    -0.646 OA
HETATM   20  O           1     -22.560  -5.807  -1.843  0.00  0.00    -0.646 OA
ENDBRANCH  17  18
BRANCH  17  21
HETATM   21  C           1     -20.113  -8.337  -2.243  0.00  0.00     0.038 C 
BRANCH  21  22
HETATM   22  C           1     -20.001  -9.720  -2.870  0.00  0.00     0.030 C 
BRANCH  22  23
HETATM   23  C           1     -20.211 -10.782  -1.799  0.00  0.00     0.230 C 
BRANCH  23  24
HETATM   24  N           1     -20.547 -10.119  -0.495  0.00  0.00    -0.079 N 
HETATM   25  H           1     -21.500  -9.696  -0.555  0.00  0.00     0.274 HD
HETATM   26  H           1     -20.530 -10.830   0.270  0.00  0.00     0.274 HD
HETATM   27  H           1     -19.846  -9.372  -0.294  0.00  0.00     0.274 HD
ENDBRANCH  23  24
ENDBRANCH  22  23
ENDBRANCH  21  22
ENDBRANCH  17  21
ENDBRANCH   2  17
TORSDOF 11
ENDMDL
MODEL 9
REMARK VINA RESULT:      -4.9     10.947     13.020
REMARK  11 active torsions:
REMARK  status: ('A' for Active; 'I' for Inactive)
REMARK       I    between atoms: C_1  and  N_10 
REMARK    1  A    between atoms: C_1  and  C_8 
REMARK    2  A    between atoms: C_2  and  C_15 
REMARK    3  A    between atoms: N_5  and  C_6 
REMARK    4  A    between atoms: C_6  and  C_7 
REMARK    5  A    between atoms: C_7  and  C_14 
REMARK    6  A    between atoms: C_8  and  C_9 
REMARK    7  A    between atoms: C_8  and  N_13 
REMARK    8  A    between atoms: C_9  and  C_25 
REMARK    9  A    between atoms: N_10  and  C_15 
REMARK   10  A    between atoms: C_14  and  C_15 
REMARK       I    between atoms: N_16  and  C_17 
REMARK   11  A    between atoms: C_17  and  C_25 
ROOT
HETATM    1  C           1     -23.189  -4.587  -7.750  0.00  0.00     0.249 C 
HETATM    2  N           1     -21.910  -5.074  -7.800  0.00  0.00    -0.345 N 
HETATM    3  O           1     -23.694  -4.326  -6.684  0.00  0.00    -0.271 OA
HETATM    4  H           1     -21.487  -5.293  -8.693  0.00  0.00     0.163 HD
ENDROOT
BRANCH   1   5
HETATM    5  C           1     -23.968  -4.377  -9.025  0.00  0.00     0.275 C 
BRANCH   5   6
HETATM    6  C           1     -23.132  -4.832 -10.213  0.00  0.00     0.052 C 
BRANCH   6   7
HETATM    7  C           1     -22.543  -3.616 -10.916  0.00  0.00     0.105 C 
BRANCH   7   8
HETATM    8  C           1     -21.039  -3.724 -10.936  0.00  0.00     0.215 C 
HETATM    9  N           1     -20.288  -2.740 -11.524  0.00  0.00    -0.370 N 
HETATM   10  H           1     -19.280  -2.814 -11.537  0.00  0.00     0.159 HD
HETATM   11  H           1     -20.744  -1.941 -11.946  0.00  0.00     0.159 HD
HETATM   12  O           1     -20.495  -4.677 -10.432  0.00  0.00    -0.274 OA
ENDBRANCH   7   8
ENDBRANCH   6   7
ENDBRANCH   5   6
BRANCH   5  13
HETATM   13  N           1     -24.296  -2.920  -9.173  0.00  0.00    -0.066 N 
HETATM   14  H           1     -23.495  -2.346  -8.825  0.00  0.00     0.275 HD
HETATM   15  H           1     -24.468  -2.702 -10.181  0.00  0.00     0.275 HD
HETATM   16  H           1     -25.151  -2.698  -8.616  0.00  0.00     0.275 HD
ENDBRANCH   5  13
ENDBRANCH   1   5
BRANCH   2  17
HETATM   17  C           1     -21.162  -5.277  -6.574  0.00  0.00     0.185 C 
BRANCH  17  18
HETATM   18  C           1     -19.721  -5.578  -6.909  0.00  0.00     0.196 C 
HETATM   19  O           1     -18.916  -4.642  -7.107  0.00  0.00    -0.646 OA
HETATM   20  O           1     -19.333  -6.763  -6.988  0.00  0.00    -0.646 OA
ENDBRANCH  17  18
BRANCH  17  21
HETATM   21  C           1     -21.759  -6.445  -5.802  0.00  0.00     0.038 C 
BRANCH  21  22
HETATM   22  C           1     -21.557  -6.224  -4.309  0.00  0.00     0.030 C 
BRANCH  22  23
HETATM   23  C           1     -21.191  -7.544  -3.645  0.00  0.00     0.230 C 
BRANCH  23  24
HETATM   24  N           1     -20.072  -8.194  -4.404  0.00  0.00    -0.079 N 
HETATM   25  H           1     -19.622  -7.490  -5.031  0.00  0.00     0.274 HD
HETATM   26  H           1     -19.365  -8.564  -3.730  0.00  0.00     0.274 HD
HETATM   27  H           1     -20.452  -8.979  -4.979  0.00  0.00     0.274 HD
ENDBRANCH  23  24
ENDBRANCH  22  23
ENDBRANCH  21  22
ENDBRANCH  17  21
ENDBRANCH   2  17
TORSDOF 11
ENDMDL
