MODEL 1
REMARK VINA RESULT:      -6.1      0.000      0.000
REMARK  7 active torsions:
REMARK  status: ('A' for Active; 'I' for Inactive)
REMARK       I    between atoms: C_4  and  N_20 
REMARK    1  A    between atoms: C_4  and  C_17 
REMARK    2  A    between atoms: C_5  and  C_6 
REMARK       I    between atoms: C_5  and  N_12 
REMARK    3  A    between atoms: C_6  and  C_7 
REMARK    4  A    between atoms: C_7  and  C_17 
REMARK    5  A    between atoms: N_8  and  C_17 
REMARK    6  A    between atoms: C_14  and  C_19 
REMARK    7  A    between atoms: C_14  and  N_20 
ROOT
HETATM    1  C           1     -34.208  -1.746 -11.838  0.00  0.00     0.275 C 
ENDROOT
BRANCH   1   2
HETATM    2  C           1     -35.301  -1.293 -12.774  0.00  0.00     0.248 C 
HETATM    3  N           1     -34.980  -0.748 -13.988  0.00  0.00    -0.349 N 
HETATM    4  H           1     -34.010  -0.648 -14.257  0.00  0.00     0.163 HD
HETATM    5  O           1     -36.460  -1.412 -12.452  0.00  0.00    -0.271 OA
BRANCH   3   6
HETATM    6  C           1     -36.031  -0.313 -14.888  0.00  0.00     0.235 C 
BRANCH   6   7
HETATM    7  C           1     -35.820  -0.936 -16.246  0.00  0.00     0.191 C 
HETATM    8  O           1     -36.689  -0.806 -17.135  0.00  0.00    -0.647 OA
HETATM    9  O           1     -34.776  -1.582 -16.482  0.00  0.00    -0.647 OA
ENDBRANCH   6   7
ENDBRANCH   3   6
ENDBRANCH   1   2
BRANCH   1  10
HETATM   10  C           1     -33.866  -3.203 -12.123  0.00  0.00     0.052 C 
BRANCH  10  11
HETATM   11  C           1     -33.869  -3.990 -10.820  0.00  0.00     0.105 C 
BRANCH  11  12
HETATM   12  C           1     -34.311  -5.407 -11.087  0.00  0.00     0.215 C 
HETATM   13  N           1     -34.694  -5.780 -12.347  0.00  0.00    -0.370 N 
HETATM   14  H           1     -34.991  -6.731 -12.526  0.00  0.00     0.159 HD
HETATM   15  H           1     -34.680  -5.104 -13.101  0.00  0.00     0.159 HD
HETATM   16  O           1     -34.328  -6.214 -10.188  0.00  0.00    -0.274 OA
ENDBRANCH  11  12
ENDBRANCH  10  11
ENDBRANCH   1  10
BRANCH   1  17
HETATM   17  N           1     -34.678  -1.611 -10.420  0.00  0.00    -0.066 N 
HETATM   18  H           1     -34.357  -2.438  -9.866  0.00  0.00     0.275 HD
HETATM   19  H           1     -34.281  -0.739 -10.003  0.00  0.00     0.275 HD
HETATM   20  H           1     -35.721  -1.564 -10.401  0.00  0.00     0.275 HD
ENDBRANCH   1  17
TORSDOF 7
ENDMDL
MODEL 2
REMARK VINA RESULT:      -5.8      1.960      2.203
REMARK  7 active torsions:
REMARK  status: ('A' for Active; 'I' for Inactive)
REMARK       I    between atoms: C_4  and  N_20 
REMARK    1  A    between atoms: C_4  and  C_17 
REMARK    2  A    between atoms: C_5  and  C_6 
REMARK       I    between atoms: C_5  and  N_12 
REMARK    3  A    between atoms: C_6  and  C_7 
REMARK    4  A    between atoms: C_7  and  C_17 
REMARK    5  A    between atoms: N_8  and  C_17 
REMARK    6  A    between atoms: C_14  and  C_19 
REMARK    7  A    between atoms: C_14  and  N_20 
ROOT
HETATM    1  C           1     -35.140  -1.405 -11.194  0.00  0.00     0.275 C 
ENDROOT
BRANCH   1   2
HETATM    2  C           1     -35.779  -1.130 -12.533  0.00  0.00     0.248 C 
HETATM    3  N           1     -34.994  -0.920 -13.636  0.00  0.00    -0.349 N 
HETATM    4  H           1     -33.986  -0.949 -13.552  0.00  0.00     0.163 HD
HETATM    5  O           1     -36.982  -1.094 -12.633  0.00  0.00    -0.271 OA
BRANCH   3   6
HETATM    6  C           1     -35.607  -0.655 -14.922  0.00  0.00     0.235 C 
BRANCH   6   7
HETATM    7  C           1     -35.645   0.834 -15.165  0.00  0.00     0.191 C 
HETATM    8  O           1     -35.007   1.606 -14.416  0.00  0.00    -0.647 OA
HETATM    9  O           1     -36.315   1.297 -16.114  0.00  0.00    -0.647 OA
ENDBRANCH   6   7
ENDBRANCH   3   6
ENDBRANCH   1   2
BRANCH   1  10
HETATM   10  C           1     -34.945  -2.906 -11.024  0.00  0.00     0.052 C 
BRANCH  10  11
HETATM   11  C           1     -33.457  -3.228 -11.022  0.00  0.00     0.105 C 
BRANCH  11  12
HETATM   12  C           1     -33.101  -3.984 -12.278  0.00  0.00     0.215 C 
HETATM   13  N           1     -32.094  -4.910 -12.259  0.00  0.00    -0.370 N 
HETATM   14  H           1     -31.855  -5.417 -13.102  0.00  0.00     0.159 HD
HETATM   15  H           1     -31.588  -5.089 -11.400  0.00  0.00     0.159 HD
HETATM   16  O           1     -33.705  -3.770 -13.303  0.00  0.00    -0.274 OA
ENDBRANCH  11  12
ENDBRANCH  10  11
ENDBRANCH   1  10
BRANCH   1  17
HETATM   17  N           1     -36.030  -0.891 -10.102  0.00  0.00    -0.066 N 
HETATM   18  H           1     -36.891  -1.480 -10.047  0.00  0.00     0.275 HD
HETATM   19  H           1     -35.521  -0.933  -9.190  0.00  0.00     0.275 HD
HETATM   20  H           1     -36.298   0.097 -10.307  0.00  0.00     0.275 HD
ENDBRANCH   1  17
TORSDOF 7
ENDMDL
MODEL 3
REMARK VINA RESULT:      -5.7     12.888     15.350
REMARK  7 active torsions:
REMARK  status: ('A' for Active; 'I' for Inactive)
REMARK       I    between atoms: C_4  and  N_20 
REMARK    1  A    between atoms: C_4  and  C_17 
REMARK    2  A    between atoms: C_5  and  C_6 
REMARK       I    between atoms: C_5  and  N_12 
REMARK    3  A    between atoms: C_6  and  C_7 
REMARK    4  A    between atoms: C_7  and  C_17 
REMARK    5  A    between atoms: N_8  and  C_17 
REMARK    6  A    between atoms: C_14  and  C_19 
REMARK    7  A    between atoms: C_14  and  N_20 
ROOT
HETATM    1  C           1     -21.287  -4.070  -8.475  0.00  0.00     0.275 C 
ENDROOT
BRANCH   1   2
HETATM    2  C           1     -21.654  -4.646  -7.130  0.00  0.00     0.248 C 
HETATM    3  N           1     -20.676  -5.124  -6.299  0.00  0.00    -0.349 N 
HETATM    4  H           1     -19.707  -5.090  -6.588  0.00  0.00     0.163 HD
HETATM    5  O           1     -22.812  -4.686  -6.786  0.00  0.00    -0.271 OA
BRANCH   3   6
HETATM    6  C           1     -21.029  -5.677  -5.007  0.00  0.00     0.235 C 
BRANCH   6   7
HETATM    7  C           1     -20.862  -7.177  -5.039  0.00  0.00     0.191 C 
HETATM    8  O           1     -20.505  -7.789  -4.009  0.00  0.00    -0.647 OA
HETATM    9  O           1     -21.080  -7.808  -6.097  0.00  0.00    -0.647 OA
ENDBRANCH   6   7
ENDBRANCH   3   6
ENDBRANCH   1   2
BRANCH   1  10
HETATM   10  C           1     -22.199  -4.656  -9.545  0.00  0.00     0.052 C 
BRANCH  10  11
HETATM   11  C           1     -22.793  -3.530 -10.380  0.00  0.00     0.105 C 
BRANCH  11  12
HETATM   12  C           1     -24.268  -3.406 -10.085  0.00  0.00     0.215 C 
HETATM   13  N           1     -24.725  -3.542  -8.802  0.00  0.00    -0.370 N 
HETATM   14  H           1     -25.714  -3.459  -8.605  0.00  0.00     0.159 HD
HETATM   15  H           1     -24.072  -3.725  -8.050  0.00  0.00     0.159 HD
HETATM   16  O           1     -25.046  -3.188 -10.983  0.00  0.00    -0.274 OA
ENDBRANCH  11  12
ENDBRANCH  10  11
ENDBRANCH   1  10
BRANCH   1  17
HETATM   17  N           1     -19.861  -4.412  -8.792  0.00  0.00    -0.066 N 
HETATM   18  H           1     -19.824  -4.964  -9.679  0.00  0.00     0.275 HD
HETATM   19  H           1     -19.310  -3.532  -8.907  0.00  0.00     0.275 HD
HETATM   20  H           1     -19.457  -4.978  -8.013  0.00  0.00     0.275 HD
ENDBRANCH   1  17
TORSDOF 7
ENDMDL
MODEL 4
REMARK VINA RESULT:      -5.7     13.709     15.871
REMARK  7 active torsions:
REMARK  status: ('A' for Active; 'I' for Inactive)
REMARK       I    between atoms: C_4  and  N_20 
REMARK    1  A    between atoms: C_4  and  C_17 
REMARK    2  A    between atoms: C_5  and  C_6 
REMARK       I    between atoms: C_5  and  N_12 
REMARK    3  A    between atoms: C_6  and  C_7 
REMARK    4  A    between atoms: C_7  and  C_17 
REMARK    5  A    between atoms: N_8  and  C_17 
REMARK    6  A    between atoms: C_14  and  C_19 
REMARK    7  A    between atoms: C_14  and  N_20 
ROOT
HETATM    1  C           1     -21.529  -4.725  -8.577  0.00  0.00     0.275 C 
ENDROOT
BRANCH   1   2
HETATM    2  C           1     -20.930  -5.404  -7.370  0.00  0.00     0.248 C 
HETATM    3  N           1     -21.313  -5.025  -6.111  0.00  0.00    -0.349 N 
HETATM    4  H           1     -21.998  -4.290  -5.991  0.00  0.00     0.163 HD
HETATM    5  O           1     -20.111  -6.281  -7.514  0.00  0.00    -0.271 OA
BRANCH   3   6
HETATM    6  C           1     -20.737  -5.677  -4.951  0.00  0.00     0.235 C 
BRANCH   6   7
HETATM    7  C           1     -21.789  -6.521  -4.274  0.00  0.00     0.191 C 
HETATM    8  O           1     -22.388  -6.085  -3.267  0.00  0.00    -0.647 OA
HETATM    9  O           1     -22.062  -7.657  -4.720  0.00  0.00    -0.647 OA
ENDBRANCH   6   7
ENDBRANCH   3   6
ENDBRANCH   1   2
BRANCH   1  10
HETATM   10  C           1     -20.438  -3.980  -9.335  0.00  0.00     0.052 C 
BRANCH  10  11
HETATM   11  C           1     -20.392  -4.473 -10.775  0.00  0.00     0.105 C 
BRANCH  11  12
HETATM   12  C           1     -21.557  -3.899 -11.543  0.00  0.00     0.215 C 
HETATM   13  N           1     -22.437  -4.732 -12.179  0.00  0.00    -0.370 N 
HETATM   14  H           1     -23.218  -4.347 -12.694  0.00  0.00     0.159 HD
HETATM   15  H           1     -22.307  -5.735 -12.132  0.00  0.00     0.159 HD
HETATM   16  O           1     -21.712  -2.702 -11.598  0.00  0.00    -0.274 OA
ENDBRANCH  11  12
ENDBRANCH  10  11
ENDBRANCH   1  10
BRANCH   1  17
HETATM   17  N           1     -22.581  -3.753  -8.132  0.00  0.00    -0.066 N 
HETATM   18  H           1     -23.515  -4.065  -8.481  0.00  0.00     0.275 HD
HETATM   19  H           1     -22.597  -3.712  -7.087  0.00  0.00     0.275 HD
HETATM   20  H           1     -22.365  -2.806  -8.515  0.00  0.00     0.275 HD
ENDBRANCH   1  17
TORSDOF 7
ENDMDL
MODEL 5
REMARK VINA RESULT:      -5.7     12.992     15.672
REMARK  7 active torsions:
REMARK  status: ('A' for Active; 'I' for Inactive)
REMARK       I    between atoms: C_4  and  N_20 
REMARK    1  A    between atoms: C_4  and  C_17 
REMARK    2  A    between atoms: C_5  and  C_6 
REMARK       I    between atoms: C_5  and  N_12 
REMARK    3  A    between atoms: C_6  and  C_7 
REMARK    4  A    between atoms: C_7  and  C_17 
REMARK    5  A    between atoms: N_8  and  C_17 
REMARK    6  A    between atoms: C_14  and  C_19 
REMARK    7  A    between atoms: C_14  and  N_20 
ROOT
HETATM    1  C           1     -21.498  -4.334  -7.299  0.00  0.00     0.275 C 
ENDROOT
BRANCH   1   2
HETATM    2  C           1     -21.407  -5.640  -6.549  0.00  0.00     0.248 C 
HETATM    3  N           1     -21.902  -5.734  -5.276  0.00  0.00    -0.349 N 
HETATM    4  H           1     -22.328  -4.927  -4.838  0.00  0.00     0.163 HD
HETATM    5  O           1     -20.898  -6.603  -7.072  0.00  0.00    -0.271 OA
BRANCH   3   6
HETATM    6  C           1     -21.815  -6.989  -4.555  0.00  0.00     0.235 C 
BRANCH   6   7
HETATM    7  C           1     -21.700  -6.713  -3.076  0.00  0.00     0.191 C 
HETATM    8  O           1     -20.844  -7.315  -2.392  0.00  0.00    -0.647 OA
HETATM    9  O           1     -22.460  -5.881  -2.534  0.00  0.00    -0.647 OA
ENDBRANCH   6   7
ENDBRANCH   3   6
ENDBRANCH   1   2
BRANCH   1  10
HETATM   10  C           1     -22.894  -4.183  -7.889  0.00  0.00     0.052 C 
BRANCH  10  11
HETATM   11  C           1     -22.786  -3.823  -9.364  0.00  0.00     0.105 C 
BRANCH  11  12
HETATM   12  C           1     -24.167  -3.737  -9.966  0.00  0.00     0.215 C 
HETATM   13  N           1     -25.153  -4.588  -9.544  0.00  0.00    -0.370 N 
HETATM   14  H           1     -26.079  -4.530  -9.948  0.00  0.00     0.159 HD
HETATM   15  H           1     -24.955  -5.275  -8.827  0.00  0.00     0.159 HD
HETATM   16  O           1     -24.404  -2.916 -10.821  0.00  0.00    -0.274 OA
ENDBRANCH  11  12
ENDBRANCH  10  11
ENDBRANCH   1  10
BRANCH   1  17
HETATM   17  N           1     -20.484  -4.322  -8.405  0.00  0.00    -0.066 N 
HETATM   18  H           1     -20.927  -4.662  -9.288  0.00  0.00     0.275 HD
HETATM   19  H           1     -20.134  -3.347  -8.544  0.00  0.00     0.275 HD
HETATM   20  H           1     -19.686  -4.947  -8.153  0.00  0.00     0.275 HD
ENDBRANCH   1  17
TORSDOF 7
ENDMDL
MODEL 6
REMARK VINA RESULT:      -5.6     12.875     14.306
REMARK  7 active torsions:
REMARK  status: ('A' for Active; 'I' for Inactive)
REMARK       I    between atoms: C_4  and  N_20 
REMARK    1  A    between atoms: C_4  and  C_17 
REMARK    2  A    between atoms: C_5  and  C_6 
REMARK       I    between atoms: C_5  and  N_12 
REMARK    3  A    between atoms: C_6  and  C_7 
REMARK    4  A    between atoms: C_7  and  C_17 
REMARK    5  A    between atoms: N_8  and  C_17 
REMARK    6  A    between atoms: C_14  and  C_19 
REMARK    7  A    between atoms: C_14  and  N_20 
ROOT
HETATM    1  C           1     -20.731  -5.315  -7.481  0.00  0.00     0.275 C 
ENDROOT
BRANCH   1   2
HETATM    2  C           1     -22.108  -4.722  -7.651  0.00  0.00     0.248 C 
HETATM    3  N           1     -22.531  -4.317  -8.889  0.00  0.00    -0.349 N 
HETATM    4  H           1     -21.919  -4.416  -9.689  0.00  0.00     0.163 HD
HETATM    5  O           1     -22.837  -4.605  -6.695  0.00  0.00    -0.271 OA
BRANCH   3   6
HETATM    6  C           1     -23.854  -3.747  -9.052  0.00  0.00     0.235 C 
BRANCH   6   7
HETATM    7  C           1     -24.241  -3.784 -10.511  0.00  0.00     0.191 C 
HETATM    8  O           1     -23.550  -4.434 -11.325  0.00  0.00    -0.647 OA
HETATM    9  O           1     -25.253  -3.164 -10.905  0.00  0.00    -0.647 OA
ENDBRANCH   6   7
ENDBRANCH   3   6
ENDBRANCH   1   2
BRANCH   1  10
HETATM   10  C           1     -20.394  -5.399  -5.998  0.00  0.00     0.052 C 
BRANCH  10  11
HETATM   11  C           1     -20.276  -6.860  -5.585  0.00  0.00     0.105 C 
BRANCH  11  12
HETATM   12  C           1     -21.481  -7.252  -4.766  0.00  0.00     0.215 C 
HETATM   13  N           1     -22.287  -6.286  -4.225  0.00  0.00    -0.370 N 
HETATM   14  H           1     -23.095  -6.550  -3.676  0.00  0.00     0.159 HD
HETATM   15  H           1     -22.074  -5.308  -4.376  0.00  0.00     0.159 HD
HETATM   16  O           1     -21.736  -8.419  -4.587  0.00  0.00    -0.274 OA
ENDBRANCH  11  12
ENDBRANCH  10  11
ENDBRANCH   1  10
BRANCH   1  17
HETATM   17  N           1     -19.724  -4.445  -8.173  0.00  0.00    -0.066 N 
HETATM   18  H           1     -20.181  -3.556  -8.478  0.00  0.00     0.275 HD
HETATM   19  H           1     -18.943  -4.226  -7.514  0.00  0.00     0.275 HD
HETATM   20  H           1     -19.346  -4.945  -9.008  0.00  0.00     0.275 HD
ENDBRANCH   1  17
TORSDOF 7
ENDMDL
MODEL 7
REMARK VINA RESULT:      -5.6     13.731     16.381
REMARK  7 active torsions:
REMARK  status: ('A' for Active; 'I' for Inactive)
REMARK       I    between atoms: C_4  and  N_20 
REMARK    1  A    between atoms: C_4  and  C_17 
REMARK    2  A    between atoms: C_5  and  C_6 
REMARK       I    between atoms: C_5  and  N_12 
REMARK    3  A    between atoms: C_6  and  C_7 
REMARK    4  A    between atoms: C_7  and  C_17 
REMARK    5  A    between atoms: N_8  and  C_17 
REMARK    6  A    between atoms: C_14  and  C_19 
REMARK    7  A    between atoms: C_14  and  N_20 
ROOT
HETATM    1  C           1     -20.459  -4.978  -6.598  0.00  0.00     0.275 C 
ENDROOT
BRANCH   1   2
HETATM    2  C           1     -21.365  -5.766  -5.684  0.00  0.00     0.248 C 
HETATM    3  N           1     -20.835  -6.699  -4.833  0.00  0.00    -0.349 N 
HETATM    4  H           1     -19.836  -6.860  -4.819  0.00  0.00     0.163 HD
HETATM    5  O           1     -22.558  -5.573  -5.702  0.00  0.00    -0.271 OA
BRANCH   3   6
HETATM    6  C           1     -21.705  -7.456  -3.955  0.00  0.00     0.235 C 
BRANCH   6   7
HETATM    7  C           1     -21.622  -6.892  -2.557  0.00  0.00     0.191 C 
HETATM    8  O           1     -22.326  -5.910  -2.236  0.00  0.00    -0.647 OA
HETATM    9  O           1     -20.850  -7.408  -1.720  0.00  0.00    -0.647 OA
ENDBRANCH   6   7
ENDBRANCH   3   6
ENDBRANCH   1   2
BRANCH   1  10
HETATM   10  C           1     -21.226  -3.797  -7.178  0.00  0.00     0.052 C 
BRANCH  10  11
HETATM   11  C           1     -21.463  -4.024  -8.665  0.00  0.00     0.105 C 
BRANCH  11  12
HETATM   12  C           1     -22.926  -3.833  -8.979  0.00  0.00     0.215 C 
HETATM   13  N           1     -23.871  -4.076  -8.019  0.00  0.00    -0.370 N 
HETATM   14  H           1     -24.852  -3.948  -8.229  0.00  0.00     0.159 HD
HETATM   15  H           1     -23.587  -4.384  -7.097  0.00  0.00     0.159 HD
HETATM   16  O           1     -23.265  -3.465 -10.078  0.00  0.00    -0.274 OA
ENDBRANCH  11  12
ENDBRANCH  10  11
ENDBRANCH   1  10
BRANCH   1  17
HETATM   17  N           1     -19.986  -5.862  -7.714  0.00  0.00    -0.066 N 
HETATM   18  H           1     -20.002  -6.858  -7.401  0.00  0.00     0.275 HD
HETATM   19  H           1     -20.617  -5.747  -8.539  0.00  0.00     0.275 HD
HETATM   20  H           1     -19.012  -5.596  -7.980  0.00  0.00     0.275 HD
ENDBRANCH   1  17
TORSDOF 7
ENDMDL
MODEL 8
REMARK VINA RESULT:      -5.6      3.357      6.291
REMARK  7 active torsions:
REMARK  status: ('A' for Active; 'I' for Inactive)
REMARK       I    between atoms: C_4  and  N_20 
REMARK    1  A    between atoms: C_4  and  C_17 
REMARK    2  A    between atoms: C_5  and  C_6 
REMARK       I    between atoms: C_5  and  N_12 
REMARK    3  A    between atoms: C_6  and  C_7 
REMARK    4  A    between atoms: C_7  and  C_17 
REMARK    5  A    between atoms: N_8  and  C_17 
REMARK    6  A    between atoms: C_14  and  C_19 
REMARK    7  A    between atoms: C_14  and  N_20 
ROOT
HETATM    1  C           1     -35.940  -0.155 -12.735  0.00  0.00     0.275 C 
ENDROOT
BRANCH   1   2
HETATM    2  C           1     -36.895  -0.087 -11.569  0.00  0.00     0.248 C 
HETATM    3  N           1     -36.636   0.755 -10.521  0.00  0.00    -0.349 N 
HETATM    4  H           1     -35.804   1.332 -10.529  0.00  0.00     0.163 HD
HETATM    5  O           1     -37.888  -0.776 -11.559  0.00  0.00    -0.271 OA
BRANCH   3   6
HETATM    6  C           1     -37.553   0.820  -9.400  0.00  0.00     0.235 C 
BRANCH   6   7
HETATM    7  C           1     -36.771   0.968  -8.117  0.00  0.00     0.191 C 
HETATM    8  O           1     -37.145   1.783  -7.247  0.00  0.00    -0.647 OA
HETATM    9  O           1     -35.748   0.274  -7.926  0.00  0.00    -0.647 OA
ENDBRANCH   6   7
ENDBRANCH   3   6
ENDBRANCH   1   2
BRANCH   1  10
HETATM   10  C           1     -36.725  -0.081 -14.039  0.00  0.00     0.052 C 
BRANCH  10  11
HETATM   11  C           1     -35.781   0.262 -15.182  0.00  0.00     0.105 C 
BRANCH  11  12
HETATM   12  C           1     -35.923  -0.764 -16.280  0.00  0.00     0.215 C 
HETATM   13  N           1     -35.001  -1.767 -16.405  0.00  0.00    -0.370 N 
HETATM   14  H           1     -35.097  -2.455 -17.141  0.00  0.00     0.159 HD
HETATM   15  H           1     -34.223  -1.822 -15.759  0.00  0.00     0.159 HD
HETATM   16  O           1     -36.852  -0.699 -17.050  0.00  0.00    -0.274 OA
ENDBRANCH  11  12
ENDBRANCH  10  11
ENDBRANCH   1  10
BRANCH   1  17
HETATM   17  N           1     -35.180  -1.447 -12.683  0.00  0.00    -0.066 N 
HETATM   18  H           1     -35.149  -1.872 -13.637  0.00  0.00     0.275 HD
HETATM   19  H           1     -34.206  -1.264 -12.352  0.00  0.00     0.275 HD
HETATM   20  H           1     -35.654  -2.105 -12.025  0.00  0.00     0.275 HD
ENDBRANCH   1  17
TORSDOF 7
ENDMDL
MODEL 9
REMARK VINA RESULT:      -5.1     12.626     14.045
REMARK  7 active torsions:
REMARK  status: ('A' for Active; 'I' for Inactive)
REMARK       I    between atoms: C_4  and  N_20 
REMARK    1  A    between atoms: C_4  and  C_17 
REMARK    2  A    between atoms: C_5  and  C_6 
REMARK       I    between atoms: C_5  and  N_12 
REMARK    3  A    between atoms: C_6  and  C_7 
REMARK    4  A    between atoms: C_7  and  C_17 
REMARK    5  A    between atoms: N_8  and  C_17 
REMARK    6  A    between atoms: C_14  and  C_19 
REMARK    7  A    between atoms: C_14  and  N_20 
ROOT
HETATM    1  C           1     -22.211  -4.861  -6.520  0.00  0.00     0.275 C 
ENDROOT
BRANCH   1   2
HETATM    2  C           1     -22.080  -4.507  -7.981  0.00  0.00     0.248 C 
HETATM    3  N           1     -22.982  -3.657  -8.563  0.00  0.00    -0.349 N 
HETATM    4  H           1     -23.736  -3.266  -8.013  0.00  0.00     0.163 HD
HETATM    5  O           1     -21.180  -4.974  -8.637  0.00  0.00    -0.271 OA
BRANCH   3   6
HETATM    6  C           1     -22.855  -3.317  -9.966  0.00  0.00     0.235 C 
BRANCH   6   7
HETATM    7  C           1     -24.000  -3.928 -10.737  0.00  0.00     0.191 C 
HETATM    8  O           1     -25.066  -3.291 -10.883  0.00  0.00    -0.647 OA
HETATM    9  O           1     -23.882  -5.071 -11.230  0.00  0.00    -0.647 OA
ENDBRANCH   6   7
ENDBRANCH   3   6
ENDBRANCH   1   2
BRANCH   1  10
HETATM   10  C           1     -21.408  -6.122  -6.229  0.00  0.00     0.052 C 
BRANCH  10  11
HETATM   11  C           1     -21.642  -6.553  -4.788  0.00  0.00     0.105 C 
BRANCH  11  12
HETATM   12  C           1     -21.450  -8.045  -4.669  0.00  0.00     0.215 C 
HETATM   13  N           1     -21.017  -8.769  -5.747  0.00  0.00    -0.370 N 
HETATM   14  H           1     -20.889  -9.769  -5.667  0.00  0.00     0.159 HD
HETATM   15  H           1     -20.825  -8.302  -6.625  0.00  0.00     0.159 HD
HETATM   16  O           1     -21.679  -8.601  -3.621  0.00  0.00    -0.274 OA
ENDBRANCH  11  12
ENDBRANCH  10  11
ENDBRANCH   1  10
BRANCH   1  17
HETATM   17  N           1     -23.655  -5.103  -6.193  0.00  0.00    -0.066 N 
HETATM   18  H           1     -23.725  -5.779  -5.400  0.00  0.00     0.275 HD
HETATM   19  H           1     -24.105  -4.199  -5.920  0.00  0.00     0.275 HD
HETATM   20  H           1     -24.141  -5.496  -7.029  0.00  0.00     0.275 HD
ENDBRANCH   1  17
TORSDOF 7
ENDMDL
