MODEL 1
REMARK VINA RESULT:      -5.9      0.000      0.000
REMARK  11 active torsions:
REMARK  status: ('A' for Active; 'I' for Inactive)
REMARK    1  A    between atoms: C_1  and  C_24 
REMARK    2  A    between atoms: C_1  and  C_3 
REMARK    3  A    between atoms: C_3  and  C_9 
REMARK    4  A    between atoms: C_7  and  C_12 
REMARK    5  A    between atoms: C_9  and  N_18 
REMARK    6  A    between atoms: N_10  and  C_24 
REMARK    7  A    between atoms: C_11  and  S_20 
REMARK    8  A    between atoms: C_11  and  C_21 
REMARK    9  A    between atoms: C_12  and  C_21 
REMARK   10  A    between atoms: C_12  and  N_17 
REMARK       I    between atoms: C_16  and  N_17 
REMARK   11  A    between atoms: C_16  and  C_24 
ROOT
HETATM    1  O           1     -24.296  -6.467 -18.547  0.00  0.00    -0.271 OA
HETATM    2  H           1     -27.391  -6.974 -18.623  0.00  0.00     0.163 HD
HETATM    3  C           1     -25.355  -6.859 -18.976  0.00  0.00     0.249 C 
HETATM    4  N           1     -26.504  -6.646 -18.263  0.00  0.00    -0.345 N 
ENDROOT
BRANCH   3   5
HETATM    5  C           1     -25.412  -7.584 -20.299  0.00  0.00     0.274 C 
BRANCH   5   6
HETATM    6  C           1     -24.776  -6.719 -21.380  0.00  0.00     0.044 C 
BRANCH   6   7
HETATM    7  C           1     -24.090  -7.612 -22.405  0.00  0.00     0.030 C 
BRANCH   7   8
HETATM    8  C           1     -22.972  -8.394 -21.731  0.00  0.00     0.230 C 
BRANCH   8   9
HETATM    9  N           1     -22.506  -9.490 -22.642  0.00  0.00    -0.079 N 
HETATM   10  H           1     -23.166 -10.299 -22.583  0.00  0.00     0.274 HD
HETATM   11  H           1     -21.550  -9.799 -22.354  0.00  0.00     0.274 HD
HETATM   12  H           1     -22.478  -9.137 -23.626  0.00  0.00     0.274 HD
ENDBRANCH   8   9
ENDBRANCH   7   8
ENDBRANCH   6   7
ENDBRANCH   5   6
BRANCH   5  13
HETATM   13  N           1     -26.842  -7.860 -20.655  0.00  0.00    -0.067 N 
HETATM   14  H           1     -27.468  -7.253 -20.079  0.00  0.00     0.275 HD
HETATM   15  H           1     -26.994  -7.655 -21.668  0.00  0.00     0.275 HD
HETATM   16  H           1     -27.060  -8.864 -20.465  0.00  0.00     0.275 HD
ENDBRANCH   5  13
ENDBRANCH   3   5
BRANCH   4  17
HETATM   17  C           1     -26.450  -5.949 -16.992  0.00  0.00     0.186 C 
BRANCH  17  18
HETATM   18  C           1     -26.405  -6.957 -15.869  0.00  0.00     0.196 C 
HETATM   19  O           1     -25.306  -7.357 -15.432  0.00  0.00    -0.646 OA
HETATM   20  O           1     -27.470  -7.389 -15.376  0.00  0.00    -0.646 OA
ENDBRANCH  17  18
BRANCH  17  21
HETATM   21  C           1     -27.687  -5.073 -16.840  0.00  0.00     0.046 C 
BRANCH  21  22
HETATM   22  C           1     -28.618  -5.298 -18.024  0.00  0.00     0.076 C 
BRANCH  22  23
HETATM   23  S           1     -30.187  -5.996 -17.437  0.00  0.00    -0.173 SA
HETATM   24  C           1     -30.014  -7.600 -18.269  0.00  0.00     0.089 C 
ENDBRANCH  22  23
ENDBRANCH  21  22
ENDBRANCH  17  21
ENDBRANCH   4  17
TORSDOF 11
ENDMDL
MODEL 2
REMARK VINA RESULT:      -5.8     11.049     12.830
REMARK  11 active torsions:
REMARK  status: ('A' for Active; 'I' for Inactive)
REMARK    1  A    between atoms: C_1  and  C_24 
REMARK    2  A    between atoms: C_1  and  C_3 
REMARK    3  A    between atoms: C_3  and  C_9 
REMARK    4  A    between atoms: C_7  and  C_12 
REMARK    5  A    between atoms: C_9  and  N_18 
REMARK    6  A    between atoms: N_10  and  C_24 
REMARK    7  A    between atoms: C_11  and  S_20 
REMARK    8  A    between atoms: C_11  and  C_21 
REMARK    9  A    between atoms: C_12  and  C_21 
REMARK   10  A    between atoms: C_12  and  N_17 
REMARK       I    between atoms: C_16  and  N_17 
REMARK   11  A    between atoms: C_16  and  C_24 
ROOT
HETATM    1  O           1     -33.610  -2.109 -11.265  0.00  0.00    -0.271 OA
HETATM    2  H           1     -36.132  -2.354 -13.115  0.00  0.00     0.163 HD
HETATM    3  C           1     -34.403  -2.632 -12.012  0.00  0.00     0.249 C 
HETATM    4  N           1     -35.468  -1.916 -12.490  0.00  0.00    -0.345 N 
ENDROOT
BRANCH   3   5
HETATM    5  C           1     -34.221  -4.074 -12.417  0.00  0.00     0.274 C 
BRANCH   5   6
HETATM    6  C           1     -33.382  -4.794 -11.370  0.00  0.00     0.044 C 
BRANCH   6   7
HETATM    7  C           1     -34.299  -5.443 -10.342  0.00  0.00     0.030 C 
BRANCH   7   8
HETATM    8  C           1     -34.509  -6.908 -10.700  0.00  0.00     0.230 C 
BRANCH   8   9
HETATM    9  N           1     -35.006  -7.652  -9.496  0.00  0.00    -0.079 N 
HETATM   10  H           1     -35.420  -8.564  -9.795  0.00  0.00     0.274 HD
HETATM   11  H           1     -35.735  -7.081  -9.011  0.00  0.00     0.274 HD
HETATM   12  H           1     -34.209  -7.829  -8.843  0.00  0.00     0.274 HD
ENDBRANCH   8   9
ENDBRANCH   7   8
ENDBRANCH   6   7
ENDBRANCH   5   6
BRANCH   5  13
HETATM   13  N           1     -33.526  -4.135 -13.745  0.00  0.00    -0.067 N 
HETATM   14  H           1     -32.670  -3.536 -13.717  0.00  0.00     0.275 HD
HETATM   15  H           1     -33.253  -5.122 -13.950  0.00  0.00     0.275 HD
HETATM   16  H           1     -34.169  -3.787 -14.491  0.00  0.00     0.275 HD
ENDBRANCH   5  13
ENDBRANCH   3   5
BRANCH   4  17
HETATM   17  C           1     -35.642  -0.530 -12.100  0.00  0.00     0.186 C 
BRANCH  17  18
HETATM   18  C           1     -36.643  -0.448 -10.973  0.00  0.00     0.196 C 
HETATM   19  O           1     -37.709  -1.097 -11.035  0.00  0.00    -0.646 OA
HETATM   20  O           1     -36.405   0.270  -9.977  0.00  0.00    -0.646 OA
ENDBRANCH  17  18
BRANCH  17  21
HETATM   21  C           1     -36.152   0.272 -13.291  0.00  0.00     0.046 C 
BRANCH  21  22
HETATM   22  C           1     -35.121   0.229 -14.411  0.00  0.00     0.076 C 
BRANCH  22  23
HETATM   23  S           1     -35.874  -0.484 -15.900  0.00  0.00    -0.173 SA
HETATM   24  C           1     -37.585  -0.034 -15.493  0.00  0.00     0.089 C 
ENDBRANCH  22  23
ENDBRANCH  21  22
ENDBRANCH  17  21
ENDBRANCH   4  17
TORSDOF 11
ENDMDL
MODEL 3
REMARK VINA RESULT:      -5.2     12.734     15.027
REMARK  11 active torsions:
REMARK  status: ('A' for Active; 'I' for Inactive)
REMARK    1  A    between atoms: C_1  and  C_24 
REMARK    2  A    between atoms: C_1  and  C_3 
REMARK    3  A    between atoms: C_3  and  C_9 
REMARK    4  A    between atoms: C_7  and  C_12 
REMARK    5  A    between atoms: C_9  and  N_18 
REMARK    6  A    between atoms: N_10  and  C_24 
REMARK    7  A    between atoms: C_11  and  S_20 
REMARK    8  A    between atoms: C_11  and  C_21 
REMARK    9  A    between atoms: C_12  and  C_21 
REMARK   10  A    between atoms: C_12  and  N_17 
REMARK       I    between atoms: C_16  and  N_17 
REMARK   11  A    between atoms: C_16  and  C_24 
ROOT
HETATM    1  O           1     -22.609  -5.607  -5.697  0.00  0.00    -0.271 OA
HETATM    2  H           1     -19.844  -6.814  -4.839  0.00  0.00     0.163 HD
HETATM    3  C           1     -21.411  -5.764  -5.689  0.00  0.00     0.249 C 
HETATM    4  N           1     -20.847  -6.683  -4.846  0.00  0.00    -0.345 N 
ENDROOT
BRANCH   3   5
HETATM    5  C           1     -20.537  -4.947  -6.609  0.00  0.00     0.274 C 
BRANCH   5   6
HETATM    6  C           1     -21.360  -3.825  -7.228  0.00  0.00     0.044 C 
BRANCH   6   7
HETATM    7  C           1     -21.477  -4.050  -8.730  0.00  0.00     0.030 C 
BRANCH   7   8
HETATM    8  C           1     -22.924  -3.858  -9.162  0.00  0.00     0.230 C 
BRANCH   8   9
HETATM    9  N           1     -23.831  -4.072  -7.987  0.00  0.00    -0.079 N 
HETATM   10  H           1     -24.807  -4.234  -8.323  0.00  0.00     0.274 HD
HETATM   11  H           1     -23.811  -3.226  -7.373  0.00  0.00     0.274 HD
HETATM   12  H           1     -23.508  -4.905  -7.444  0.00  0.00     0.274 HD
ENDBRANCH   8   9
ENDBRANCH   7   8
ENDBRANCH   6   7
ENDBRANCH   5   6
BRANCH   5  13
HETATM   13  N           1     -19.996  -5.829  -7.695  0.00  0.00    -0.067 N 
HETATM   14  H           1     -20.032  -6.826  -7.386  0.00  0.00     0.275 HD
HETATM   15  H           1     -20.572  -5.711  -8.559  0.00  0.00     0.275 HD
HETATM   16  H           1     -19.005  -5.564  -7.897  0.00  0.00     0.275 HD
ENDBRANCH   5  13
ENDBRANCH   3   5
BRANCH   4  17
HETATM   17  C           1     -21.687  -7.467  -3.962  0.00  0.00     0.186 C 
BRANCH  17  18
HETATM   18  C           1     -21.633  -6.886  -2.570  0.00  0.00     0.196 C 
HETATM   19  O           1     -20.863  -7.376  -1.718  0.00  0.00    -0.646 OA
HETATM   20  O           1     -22.359  -5.913  -2.272  0.00  0.00    -0.646 OA
ENDBRANCH  17  18
BRANCH  17  21
HETATM   21  C           1     -21.187  -8.906  -3.931  0.00  0.00     0.046 C 
BRANCH  21  22
HETATM   22  C           1     -19.890  -9.011  -4.723  0.00  0.00     0.076 C 
BRANCH  22  23
HETATM   23  S           1     -18.528  -9.432  -3.600  0.00  0.00    -0.173 SA
HETATM   24  C           1     -17.426 -10.113  -4.872  0.00  0.00     0.089 C 
ENDBRANCH  22  23
ENDBRANCH  21  22
ENDBRANCH  17  21
ENDBRANCH   4  17
TORSDOF 11
ENDMDL
MODEL 4
REMARK VINA RESULT:      -5.1      1.721      2.535
REMARK  11 active torsions:
REMARK  status: ('A' for Active; 'I' for Inactive)
REMARK    1  A    between atoms: C_1  and  C_24 
REMARK    2  A    between atoms: C_1  and  C_3 
REMARK    3  A    between atoms: C_3  and  C_9 
REMARK    4  A    between atoms: C_7  and  C_12 
REMARK    5  A    between atoms: C_9  and  N_18 
REMARK    6  A    between atoms: N_10  and  C_24 
REMARK    7  A    between atoms: C_11  and  S_20 
REMARK    8  A    between atoms: C_11  and  C_21 
REMARK    9  A    between atoms: C_12  and  C_21 
REMARK   10  A    between atoms: C_12  and  N_17 
REMARK       I    between atoms: C_16  and  N_17 
REMARK   11  A    between atoms: C_16  and  C_24 
ROOT
HETATM    1  O           1     -25.519  -5.840 -16.547  0.00  0.00    -0.271 OA
HETATM    2  H           1     -27.262  -6.999 -18.885  0.00  0.00     0.163 HD
HETATM    3  C           1     -25.763  -6.333 -17.624  0.00  0.00     0.249 C 
HETATM    4  N           1     -27.059  -6.586 -17.983  0.00  0.00    -0.345 N 
ENDROOT
BRANCH   3   5
HETATM    5  C           1     -24.637  -6.668 -18.571  0.00  0.00     0.274 C 
BRANCH   5   6
HETATM    6  C           1     -25.177  -7.498 -19.728  0.00  0.00     0.044 C 
BRANCH   6   7
HETATM    7  C           1     -24.827  -6.820 -21.046  0.00  0.00     0.030 C 
BRANCH   7   8
HETATM    8  C           1     -24.201  -7.836 -21.991  0.00  0.00     0.230 C 
BRANCH   8   9
HETATM    9  N           1     -23.362  -8.800 -21.206  0.00  0.00    -0.079 N 
HETATM   10  H           1     -23.962  -9.306 -20.517  0.00  0.00     0.274 HD
HETATM   11  H           1     -22.614  -8.276 -20.698  0.00  0.00     0.274 HD
HETATM   12  H           1     -22.923  -9.490 -21.858  0.00  0.00     0.274 HD
ENDBRANCH   8   9
ENDBRANCH   7   8
ENDBRANCH   6   7
ENDBRANCH   5   6
BRANCH   5  13
HETATM   13  N           1     -23.587  -7.451 -17.841  0.00  0.00    -0.067 N 
HETATM   14  H           1     -23.670  -8.463 -18.090  0.00  0.00     0.275 HD
HETATM   15  H           1     -22.640  -7.102 -18.113  0.00  0.00     0.275 HD
HETATM   16  H           1     -23.720  -7.335 -16.811  0.00  0.00     0.275 HD
ENDBRANCH   5  13
ENDBRANCH   3   5
BRANCH   4  17
HETATM   17  C           1     -28.140  -6.264 -17.072  0.00  0.00     0.186 C 
BRANCH  17  18
HETATM   18  C           1     -28.471  -7.477 -16.236  0.00  0.00     0.196 C 
HETATM   19  O           1     -29.225  -8.363 -16.691  0.00  0.00    -0.646 OA
HETATM   20  O           1     -27.989  -7.594 -15.088  0.00  0.00    -0.646 OA
ENDBRANCH  17  18
BRANCH  17  21
HETATM   21  C           1     -29.368  -5.847 -17.870  0.00  0.00     0.046 C 
BRANCH  21  22
HETATM   22  C           1     -30.381  -5.192 -16.940  0.00  0.00     0.076 C 
BRANCH  22  23
HETATM   23  S           1     -30.818  -3.551 -17.580  0.00  0.00    -0.173 SA
HETATM   24  C           1     -29.197  -2.787 -17.294  0.00  0.00     0.089 C 
ENDBRANCH  22  23
ENDBRANCH  21  22
ENDBRANCH  17  21
ENDBRANCH   4  17
TORSDOF 11
ENDMDL
MODEL 5
REMARK VINA RESULT:      -5.1     11.128     13.179
REMARK  11 active torsions:
REMARK  status: ('A' for Active; 'I' for Inactive)
REMARK    1  A    between atoms: C_1  and  C_24 
REMARK    2  A    between atoms: C_1  and  C_3 
REMARK    3  A    between atoms: C_3  and  C_9 
REMARK    4  A    between atoms: C_7  and  C_12 
REMARK    5  A    between atoms: C_9  and  N_18 
REMARK    6  A    between atoms: N_10  and  C_24 
REMARK    7  A    between atoms: C_11  and  S_20 
REMARK    8  A    between atoms: C_11  and  C_21 
REMARK    9  A    between atoms: C_12  and  C_21 
REMARK   10  A    between atoms: C_12  and  N_17 
REMARK       I    between atoms: C_16  and  N_17 
REMARK   11  A    between atoms: C_16  and  C_24 
ROOT
HETATM    1  O           1     -21.700  -3.338  -7.636  0.00  0.00    -0.271 OA
HETATM    2  H           1     -22.858  -6.246  -7.420  0.00  0.00     0.163 HD
HETATM    3  C           1     -22.375  -4.298  -7.925  0.00  0.00     0.249 C 
HETATM    4  N           1     -22.293  -5.442  -7.178  0.00  0.00    -0.345 N 
ENDROOT
BRANCH   3   5
HETATM    5  C           1     -23.308  -4.235  -9.109  0.00  0.00     0.274 C 
BRANCH   5   6
HETATM    6  C           1     -22.651  -3.443 -10.232  0.00  0.00     0.044 C 
BRANCH   6   7
HETATM    7  C           1     -21.922  -4.398 -11.168  0.00  0.00     0.030 C 
BRANCH   7   8
HETATM    8  C           1     -20.430  -4.095 -11.142  0.00  0.00     0.230 C 
BRANCH   8   9
HETATM    9  N           1     -19.811  -4.723  -9.928  0.00  0.00    -0.079 N 
HETATM   10  H           1     -19.714  -4.005  -9.175  0.00  0.00     0.274 HD
HETATM   11  H           1     -18.868  -5.099 -10.174  0.00  0.00     0.274 HD
HETATM   12  H           1     -20.421  -5.501  -9.590  0.00  0.00     0.274 HD
ENDBRANCH   8   9
ENDBRANCH   7   8
ENDBRANCH   6   7
ENDBRANCH   5   6
BRANCH   5  13
HETATM   13  N           1     -24.585  -3.562  -8.703  0.00  0.00    -0.067 N 
HETATM   14  H           1     -24.980  -4.043  -7.863  0.00  0.00     0.275 HD
HETATM   15  H           1     -24.394  -2.561  -8.472  0.00  0.00     0.275 HD
HETATM   16  H           1     -25.272  -3.615  -9.489  0.00  0.00     0.275 HD
ENDBRANCH   5  13
ENDBRANCH   3   5
BRANCH   4  17
HETATM   17  C           1     -21.396  -5.502  -6.040  0.00  0.00     0.186 C 
BRANCH  17  18
HETATM   18  C           1     -20.074  -6.087  -6.473  0.00  0.00     0.196 C 
HETATM   19  O           1     -19.853  -7.307  -6.328  0.00  0.00    -0.646 OA
HETATM   20  O           1     -19.200  -5.349  -6.977  0.00  0.00    -0.646 OA
ENDBRANCH  17  18
BRANCH  17  21
HETATM   21  C           1     -22.009  -6.379  -4.956  0.00  0.00     0.046 C 
BRANCH  21  22
HETATM   22  C           1     -21.388  -6.034  -3.610  0.00  0.00     0.076 C 
BRANCH  22  23
HETATM   23  S           1     -21.327  -7.521  -2.571  0.00  0.00    -0.173 SA
HETATM   24  C           1     -22.269  -6.831  -1.181  0.00  0.00     0.089 C 
ENDBRANCH  22  23
ENDBRANCH  21  22
ENDBRANCH  17  21
ENDBRANCH   4  17
TORSDOF 11
ENDMDL
MODEL 6
REMARK VINA RESULT:      -5.1     11.905     14.204
REMARK  11 active torsions:
REMARK  status: ('A' for Active; 'I' for Inactive)
REMARK    1  A    between atoms: C_1  and  C_24 
REMARK    2  A    between atoms: C_1  and  C_3 
REMARK    3  A    between atoms: C_3  and  C_9 
REMARK    4  A    between atoms: C_7  and  C_12 
REMARK    5  A    between atoms: C_9  and  N_18 
REMARK    6  A    between atoms: N_10  and  C_24 
REMARK    7  A    between atoms: C_11  and  S_20 
REMARK    8  A    between atoms: C_11  and  C_21 
REMARK    9  A    between atoms: C_12  and  C_21 
REMARK   10  A    between atoms: C_12  and  N_17 
REMARK       I    between atoms: C_16  and  N_17 
REMARK   11  A    between atoms: C_16  and  C_24 
ROOT
HETATM    1  O           1     -19.560  -4.521  -6.155  0.00  0.00    -0.271 OA
HETATM    2  H           1     -22.361  -5.882  -6.534  0.00  0.00     0.163 HD
HETATM    3  C           1     -20.649  -4.724  -6.638  0.00  0.00     0.249 C 
HETATM    4  N           1     -21.449  -5.711  -6.129  0.00  0.00    -0.345 N 
ENDROOT
BRANCH   3   5
HETATM    5  C           1     -21.126  -3.890  -7.801  0.00  0.00     0.274 C 
BRANCH   5   6
HETATM    6  C           1     -22.588  -4.208  -8.089  0.00  0.00     0.044 C 
BRANCH   6   7
HETATM    7  C           1     -22.897  -3.897  -9.547  0.00  0.00     0.030 C 
BRANCH   7   8
HETATM    8  C           1     -24.217  -4.547  -9.937  0.00  0.00     0.230 C 
BRANCH   8   9
HETATM    9  N           1     -25.346  -3.602  -9.648  0.00  0.00    -0.079 N 
HETATM   10  H           1     -25.026  -2.619  -9.798  0.00  0.00     0.274 HD
HETATM   11  H           1     -25.653  -3.721  -8.656  0.00  0.00     0.274 HD
HETATM   12  H           1     -26.145  -3.809 -10.289  0.00  0.00     0.274 HD
ENDBRANCH   8   9
ENDBRANCH   7   8
ENDBRANCH   6   7
ENDBRANCH   5   6
BRANCH   5  13
HETATM   13  N           1     -20.299  -4.203  -9.012  0.00  0.00    -0.067 N 
HETATM   14  H           1     -19.900  -5.164  -8.923  0.00  0.00     0.275 HD
HETATM   15  H           1     -20.898  -4.152  -9.866  0.00  0.00     0.275 HD
HETATM   16  H           1     -19.520  -3.510  -9.089  0.00  0.00     0.275 HD
ENDBRANCH   5  13
ENDBRANCH   3   5
BRANCH   4  17
HETATM   17  C           1     -20.990  -6.513  -5.012  0.00  0.00     0.186 C 
BRANCH  17  18
HETATM   18  C           1     -20.541  -7.864  -5.514  0.00  0.00     0.196 C 
HETATM   19  O           1     -21.357  -8.807  -5.587  0.00  0.00    -0.646 OA
HETATM   20  O           1     -19.351  -8.039  -5.856  0.00  0.00    -0.646 OA
ENDBRANCH  17  18
BRANCH  17  21
HETATM   21  C           1     -22.128  -6.694  -4.016  0.00  0.00     0.046 C 
BRANCH  21  22
HETATM   22  C           1     -21.661  -6.273  -2.629  0.00  0.00     0.076 C 
BRANCH  22  23
HETATM   23  S           1     -21.262  -7.748  -1.650  0.00  0.00    -0.173 SA
HETATM   24  C           1     -22.486  -7.456  -0.342  0.00  0.00     0.089 C 
ENDBRANCH  22  23
ENDBRANCH  21  22
ENDBRANCH  17  21
ENDBRANCH   4  17
TORSDOF 11
ENDMDL
MODEL 7
REMARK VINA RESULT:      -5.1      2.073      2.708
REMARK  11 active torsions:
REMARK  status: ('A' for Active; 'I' for Inactive)
REMARK    1  A    between atoms: C_1  and  C_24 
REMARK    2  A    between atoms: C_1  and  C_3 
REMARK    3  A    between atoms: C_3  and  C_9 
REMARK    4  A    between atoms: C_7  and  C_12 
REMARK    5  A    between atoms: C_9  and  N_18 
REMARK    6  A    between atoms: N_10  and  C_24 
REMARK    7  A    between atoms: C_11  and  S_20 
REMARK    8  A    between atoms: C_11  and  C_21 
REMARK    9  A    between atoms: C_12  and  C_21 
REMARK   10  A    between atoms: C_12  and  N_17 
REMARK       I    between atoms: C_16  and  N_17 
REMARK   11  A    between atoms: C_16  and  C_24 
ROOT
HETATM    1  O           1     -25.830  -6.444 -18.648  0.00  0.00    -0.271 OA
HETATM    2  H           1     -28.254  -7.126 -20.520  0.00  0.00     0.163 HD
HETATM    3  C           1     -26.408  -6.745 -19.666  0.00  0.00     0.249 C 
HETATM    4  N           1     -27.770  -6.874 -19.668  0.00  0.00    -0.345 N 
ENDROOT
BRANCH   3   5
HETATM    5  C           1     -25.626  -6.978 -20.936  0.00  0.00     0.274 C 
BRANCH   5   6
HETATM    6  C           1     -24.461  -7.917 -20.651  0.00  0.00     0.044 C 
BRANCH   6   7
HETATM    7  C           1     -23.670  -8.147 -21.931  0.00  0.00     0.030 C 
BRANCH   7   8
HETATM    8  C           1     -22.297  -8.706 -21.588  0.00  0.00     0.230 C 
BRANCH   8   9
HETATM    9  N           1     -21.950  -9.809 -22.543  0.00  0.00    -0.079 N 
HETATM   10  H           1     -22.826 -10.201 -22.957  0.00  0.00     0.274 HD
HETATM   11  H           1     -21.439 -10.564 -22.032  0.00  0.00     0.274 HD
HETATM   12  H           1     -21.343  -9.431 -23.306  0.00  0.00     0.274 HD
ENDBRANCH   8   9
ENDBRANCH   7   8
ENDBRANCH   6   7
ENDBRANCH   5   6
BRANCH   5  13
HETATM   13  N           1     -25.100  -5.669 -21.445  0.00  0.00    -0.067 N 
HETATM   14  H           1     -24.892  -5.751 -22.466  0.00  0.00     0.275 HD
HETATM   15  H           1     -25.816  -4.923 -21.295  0.00  0.00     0.275 HD
HETATM   16  H           1     -24.224  -5.422 -20.931  0.00  0.00     0.275 HD
ENDBRANCH   5  13
ENDBRANCH   3   5
BRANCH   4  17
HETATM   17  C           1     -28.521  -6.650 -18.448  0.00  0.00     0.186 C 
BRANCH  17  18
HETATM   18  C           1     -29.730  -7.553 -18.428  0.00  0.00     0.196 C 
HETATM   19  O           1     -29.769  -8.560 -19.166  0.00  0.00    -0.646 OA
HETATM   20  O           1     -30.691  -7.294 -17.672  0.00  0.00    -0.646 OA
ENDBRANCH  17  18
BRANCH  17  21
HETATM   21  C           1     -28.973  -5.196 -18.390  0.00  0.00     0.046 C 
BRANCH  21  22
HETATM   22  C           1     -28.353  -4.519 -17.174  0.00  0.00     0.076 C 
BRANCH  22  23
HETATM   23  S           1     -27.876  -5.778 -15.957  0.00  0.00    -0.173 SA
HETATM   24  C           1     -29.377  -5.656 -14.945  0.00  0.00     0.089 C 
ENDBRANCH  22  23
ENDBRANCH  21  22
ENDBRANCH  17  21
ENDBRANCH   4  17
TORSDOF 11
ENDMDL
MODEL 8
REMARK VINA RESULT:      -5.0     12.559     15.167
REMARK  11 active torsions:
REMARK  status: ('A' for Active; 'I' for Inactive)
REMARK    1  A    between atoms: C_1  and  C_24 
REMARK    2  A    between atoms: C_1  and  C_3 
REMARK    3  A    between atoms: C_3  and  C_9 
REMARK    4  A    between atoms: C_7  and  C_12 
REMARK    5  A    between atoms: C_9  and  N_18 
REMARK    6  A    between atoms: N_10  and  C_24 
REMARK    7  A    between atoms: C_11  and  S_20 
REMARK    8  A    between atoms: C_11  and  C_21 
REMARK    9  A    between atoms: C_12  and  C_21 
REMARK   10  A    between atoms: C_12  and  N_17 
REMARK       I    between atoms: C_16  and  N_17 
REMARK   11  A    between atoms: C_16  and  C_24 
ROOT
HETATM    1  O           1     -22.282  -7.183  -4.752  0.00  0.00    -0.271 OA
HETATM    2  H           1     -20.429  -4.652  -4.830  0.00  0.00     0.163 HD
HETATM    3  C           1     -21.560  -6.311  -4.328  0.00  0.00     0.249 C 
HETATM    4  N           1     -21.034  -5.382  -5.184  0.00  0.00    -0.345 N 
ENDROOT
BRANCH   3   5
HETATM    5  C           1     -21.239  -6.248  -2.855  0.00  0.00     0.274 C 
BRANCH   5   6
HETATM    6  C           1     -20.706  -7.597  -2.392  0.00  0.00     0.044 C 
BRANCH   6   7
HETATM    7  C           1     -21.579  -8.128  -1.263  0.00  0.00     0.030 C 
BRANCH   7   8
HETATM    8  C           1     -22.024  -9.547  -1.587  0.00  0.00     0.230 C 
BRANCH   8   9
HETATM    9  N           1     -21.845  -9.806  -3.054  0.00  0.00    -0.079 N 
HETATM   10  H           1     -21.440 -10.760  -3.193  0.00  0.00     0.274 HD
HETATM   11  H           1     -21.197  -9.091  -3.456  0.00  0.00     0.274 HD
HETATM   12  H           1     -22.772  -9.748  -3.533  0.00  0.00     0.274 HD
ENDBRANCH   8   9
ENDBRANCH   7   8
ENDBRANCH   6   7
ENDBRANCH   5   6
BRANCH   5  13
HETATM   13  N           1     -22.482  -5.911  -2.087  0.00  0.00    -0.067 N 
HETATM   14  H           1     -23.224  -6.616  -2.299  0.00  0.00     0.275 HD
HETATM   15  H           1     -22.273  -5.922  -1.064  0.00  0.00     0.275 HD
HETATM   16  H           1     -22.817  -4.961  -2.366  0.00  0.00     0.275 HD
ENDBRANCH   5  13
ENDBRANCH   3   5
BRANCH   4  17
HETATM   17  C           1     -21.344  -5.443  -6.600  0.00  0.00     0.186 C 
BRANCH  17  18
HETATM   18  C           1     -20.098  -5.810  -7.371  0.00  0.00     0.196 C 
HETATM   19  O           1     -19.723  -5.098  -8.326  0.00  0.00    -0.646 OA
HETATM   20  O           1     -19.443  -6.826  -7.052  0.00  0.00    -0.646 OA
ENDBRANCH  17  18
BRANCH  17  21
HETATM   21  C           1     -21.850  -4.085  -7.068  0.00  0.00     0.046 C 
BRANCH  21  22
HETATM   22  C           1     -23.166  -4.262  -7.813  0.00  0.00     0.076 C 
BRANCH  22  23
HETATM   23  S           1     -22.929  -3.857  -9.566  0.00  0.00    -0.173 SA
HETATM   24  C           1     -24.661  -3.437  -9.910  0.00  0.00     0.089 C 
ENDBRANCH  22  23
ENDBRANCH  21  22
ENDBRANCH  17  21
ENDBRANCH   4  17
TORSDOF 11
ENDMDL
MODEL 9
REMARK VINA RESULT:      -5.0      3.013      6.292
REMARK  11 active torsions:
REMARK  status: ('A' for Active; 'I' for Inactive)
REMARK    1  A    between atoms: C_1  and  C_24 
REMARK    2  A    between atoms: C_1  and  C_3 
REMARK    3  A    between atoms: C_3  and  C_9 
REMARK    4  A    between atoms: C_7  and  C_12 
REMARK    5  A    between atoms: C_9  and  N_18 
REMARK    6  A    between atoms: N_10  and  C_24 
REMARK    7  A    between atoms: C_11  and  S_20 
REMARK    8  A    between atoms: C_11  and  C_21 
REMARK    9  A    between atoms: C_12  and  C_21 
REMARK   10  A    between atoms: C_12  and  N_17 
REMARK       I    between atoms: C_16  and  N_17 
REMARK   11  A    between atoms: C_16  and  C_24 
ROOT
HETATM    1  O           1     -28.525  -6.963 -16.699  0.00  0.00    -0.271 OA
HETATM    2  H           1     -26.602  -4.825 -17.955  0.00  0.00     0.163 HD
HETATM    3  C           1     -28.168  -5.885 -17.113  0.00  0.00     0.249 C 
HETATM    4  N           1     -26.901  -5.728 -17.609  0.00  0.00    -0.345 N 
ENDROOT
BRANCH   3   5
HETATM    5  C           1     -29.118  -4.713 -17.085  0.00  0.00     0.274 C 
BRANCH   5   6
HETATM    6  C           1     -30.340  -5.070 -16.250  0.00  0.00     0.044 C 
BRANCH   6   7
HETATM    7  C           1     -31.542  -5.265 -17.165  0.00  0.00     0.030 C 
BRANCH   7   8
HETATM    8  C           1     -32.721  -4.463 -16.636  0.00  0.00     0.230 C 
BRANCH   8   9
HETATM    9  N           1     -32.909  -3.233 -17.474  0.00  0.00    -0.079 N 
HETATM   10  H           1     -33.117  -3.511 -18.460  0.00  0.00     0.274 HD
HETATM   11  H           1     -32.035  -2.660 -17.451  0.00  0.00     0.274 HD
HETATM   12  H           1     -33.705  -2.672 -17.095  0.00  0.00     0.274 HD
ENDBRANCH   8   9
ENDBRANCH   7   8
ENDBRANCH   6   7
ENDBRANCH   5   6
BRANCH   5  13
HETATM   13  N           1     -29.547  -4.385 -18.484  0.00  0.00    -0.067 N 
HETATM   14  H           1     -28.714  -4.397 -19.116  0.00  0.00     0.275 HD
HETATM   15  H           1     -30.242  -5.093 -18.811  0.00  0.00     0.275 HD
HETATM   16  H           1     -29.981  -3.434 -18.501  0.00  0.00     0.275 HD
ENDBRANCH   5  13
ENDBRANCH   3   5
BRANCH   4  17
HETATM   17  C           1     -25.989  -6.854 -17.635  0.00  0.00     0.186 C 
BRANCH  17  18
HETATM   18  C           1     -25.146  -6.848 -16.383  0.00  0.00     0.196 C 
HETATM   19  O           1     -25.044  -5.805 -15.704  0.00  0.00    -0.646 OA
HETATM   20  O           1     -24.550  -7.888 -16.026  0.00  0.00    -0.646 OA
ENDBRANCH  17  18
BRANCH  17  21
HETATM   21  C           1     -25.085  -6.746 -18.857  0.00  0.00     0.046 C 
BRANCH  21  22
HETATM   22  C           1     -25.935  -6.533 -20.102  0.00  0.00     0.076 C 
BRANCH  22  23
HETATM   23  S           1     -25.943  -8.051 -21.097  0.00  0.00    -0.173 SA
HETATM   24  C           1     -24.185  -8.003 -21.547  0.00  0.00     0.089 C 
ENDBRANCH  22  23
ENDBRANCH  21  22
ENDBRANCH  17  21
ENDBRANCH   4  17
TORSDOF 11
ENDMDL
