MODEL 1
REMARK VINA RESULT:      -6.6      0.000      0.000
REMARK  5 active torsions:
REMARK  status: ('A' for Active; 'I' for Inactive)
REMARK    1  A    between atoms: C_4  and  C_13 
REMARK    2  A    between atoms: C_4  and  C_18 
REMARK       I    between atoms: C_7  and  N_15 
REMARK    3  A    between atoms: C_7  and  C_16 
REMARK    4  A    between atoms: C_8  and  C_18 
REMARK    5  A    between atoms: N_15  and  C_18 
ROOT
HETATM    1  H           1     -34.697  -0.836 -11.482  0.00  0.00     0.163 HD
HETATM    2  C           1     -34.221  -2.551 -12.539  0.00  0.00     0.251 C 
HETATM    3  O           1     -34.406  -3.167 -13.561  0.00  0.00    -0.271 OA
HETATM    4  N           1     -34.852  -1.352 -12.338  0.00  0.00    -0.344 N 
ENDROOT
BRANCH   4   5
HETATM    5  C           1     -35.742  -0.823 -13.354  0.00  0.00     0.195 C 
BRANCH   5   6
HETATM    6  C           1     -36.971  -0.220 -12.689  0.00  0.00     0.149 C 
BRANCH   6   7
HETATM    7  C           1     -36.857  -0.365 -11.192  0.00  0.00     0.175 C 
HETATM    8  O           1     -36.350   0.552 -10.512  0.00  0.00    -0.648 OA
HETATM    9  O           1     -37.269  -1.404 -10.631  0.00  0.00    -0.648 OA
ENDBRANCH   6   7
ENDBRANCH   5   6
BRANCH   5  10
HETATM   10  C           1     -35.023   0.242 -14.145  0.00  0.00     0.197 C 
HETATM   11  O           1     -34.721   1.327 -13.600  0.00  0.00    -0.646 OA
HETATM   12  O           1     -34.730   0.041 -15.342  0.00  0.00    -0.646 OA
ENDBRANCH   5  10
ENDBRANCH   4   5
BRANCH   2  13
HETATM   13  C           1     -33.296  -3.102 -11.481  0.00  0.00     0.311 C 
HETATM   14  N           1     -34.041  -3.467 -10.279  0.00  0.00     0.097 N 
HETATM   15  C           1     -34.659  -4.752 -10.593  0.00  0.00     0.271 C 
HETATM   16  H           1     -33.411  -3.577  -9.484  0.00  0.00     0.317 HD
HETATM   17  C           1     -33.576  -5.499 -11.354  0.00  0.00     0.033 C 
HETATM   18  C           1     -32.679  -4.413 -11.935  0.00  0.00     0.047 C 
ENDBRANCH   2  13
TORSDOF 5
ENDMDL
MODEL 2
REMARK VINA RESULT:      -6.2      1.618      3.130
REMARK  5 active torsions:
REMARK  status: ('A' for Active; 'I' for Inactive)
REMARK    1  A    between atoms: C_4  and  C_13 
REMARK    2  A    between atoms: C_4  and  C_18 
REMARK       I    between atoms: C_7  and  N_15 
REMARK    3  A    between atoms: C_7  and  C_16 
REMARK    4  A    between atoms: C_8  and  C_18 
REMARK    5  A    between atoms: N_15  and  C_18 
ROOT
HETATM    1  H           1     -36.183  -2.029 -12.775  0.00  0.00     0.163 HD
HETATM    2  C           1     -34.954  -2.360 -11.143  0.00  0.00     0.251 C 
HETATM    3  O           1     -34.312  -1.835 -10.264  0.00  0.00    -0.271 OA
HETATM    4  N           1     -35.646  -1.589 -12.039  0.00  0.00    -0.344 N 
ENDROOT
BRANCH   4   5
HETATM    5  C           1     -35.607  -0.143 -11.933  0.00  0.00     0.195 C 
BRANCH   5   6
HETATM    6  C           1     -35.718   0.472 -13.321  0.00  0.00     0.149 C 
BRANCH   6   7
HETATM    7  C           1     -36.063  -0.603 -14.322  0.00  0.00     0.175 C 
HETATM    8  O           1     -37.253  -0.783 -14.660  0.00  0.00    -0.648 OA
HETATM    9  O           1     -35.159  -1.313 -14.814  0.00  0.00    -0.648 OA
ENDBRANCH   6   7
ENDBRANCH   5   6
BRANCH   5  10
HETATM   10  C           1     -36.759   0.328 -11.080  0.00  0.00     0.197 C 
HETATM   11  O           1     -37.932   0.219 -11.500  0.00  0.00    -0.646 OA
HETATM   12  O           1     -36.542   0.826  -9.955  0.00  0.00    -0.646 OA
ENDBRANCH   5  10
ENDBRANCH   4   5
BRANCH   2  13
HETATM   13  C           1     -34.993  -3.864 -11.253  0.00  0.00     0.311 C 
HETATM   14  N           1     -34.835  -4.287 -12.642  0.00  0.00     0.097 N 
HETATM   15  C           1     -33.404  -4.175 -12.911  0.00  0.00     0.271 C 
HETATM   16  H           1     -35.128  -5.256 -12.761  0.00  0.00     0.317 HD
HETATM   17  C           1     -32.755  -4.689 -11.637  0.00  0.00     0.033 C 
HETATM   18  C           1     -33.802  -4.489 -10.548  0.00  0.00     0.047 C 
ENDBRANCH   2  13
TORSDOF 5
ENDMDL
MODEL 3
REMARK VINA RESULT:      -6.1      2.200      5.224
REMARK  5 active torsions:
REMARK  status: ('A' for Active; 'I' for Inactive)
REMARK    1  A    between atoms: C_4  and  C_13 
REMARK    2  A    between atoms: C_4  and  C_18 
REMARK       I    between atoms: C_7  and  N_15 
REMARK    3  A    between atoms: C_7  and  C_16 
REMARK    4  A    between atoms: C_8  and  C_18 
REMARK    5  A    between atoms: N_15  and  C_18 
ROOT
HETATM    1  H           1     -33.901  -1.166 -13.383  0.00  0.00     0.163 HD
HETATM    2  C           1     -35.928  -0.765 -13.493  0.00  0.00     0.251 C 
HETATM    3  O           1     -37.014  -1.018 -13.027  0.00  0.00    -0.271 OA
HETATM    4  N           1     -34.810  -1.377 -12.993  0.00  0.00    -0.344 N 
ENDROOT
BRANCH   4   5
HETATM    5  C           1     -34.929  -2.328 -11.904  0.00  0.00     0.195 C 
BRANCH   5   6
HETATM    6  C           1     -33.965  -3.484 -12.130  0.00  0.00     0.149 C 
BRANCH   6   7
HETATM    7  C           1     -34.418  -4.293 -13.320  0.00  0.00     0.175 C 
HETATM    8  O           1     -34.136  -3.915 -14.477  0.00  0.00    -0.648 OA
HETATM    9  O           1     -35.077  -5.342 -13.148  0.00  0.00    -0.648 OA
ENDBRANCH   6   7
ENDBRANCH   5   6
BRANCH   5  10
HETATM   10  C           1     -34.598  -1.643 -10.601  0.00  0.00     0.197 C 
HETATM   11  O           1     -33.431  -1.684 -10.154  0.00  0.00    -0.646 OA
HETATM   12  O           1     -35.488  -1.034  -9.970  0.00  0.00    -0.646 OA
ENDBRANCH   5  10
ENDBRANCH   4   5
BRANCH   2  13
HETATM   13  C           1     -35.804   0.224 -14.626  0.00  0.00     0.311 C 
HETATM   14  N           1     -34.844  -0.246 -15.621  0.00  0.00     0.097 N 
HETATM   15  C           1     -35.567  -1.246 -16.401  0.00  0.00     0.271 C 
HETATM   16  H           1     -34.555   0.518 -16.232  0.00  0.00     0.317 HD
HETATM   17  C           1     -36.953  -0.646 -16.565  0.00  0.00     0.033 C 
HETATM   18  C           1     -37.107   0.324 -15.400  0.00  0.00     0.047 C 
ENDBRANCH   2  13
TORSDOF 5
ENDMDL
MODEL 4
REMARK VINA RESULT:      -6.1      1.744      2.344
REMARK  5 active torsions:
REMARK  status: ('A' for Active; 'I' for Inactive)
REMARK    1  A    between atoms: C_4  and  C_13 
REMARK    2  A    between atoms: C_4  and  C_18 
REMARK       I    between atoms: C_7  and  N_15 
REMARK    3  A    between atoms: C_7  and  C_16 
REMARK    4  A    between atoms: C_8  and  C_18 
REMARK    5  A    between atoms: N_15  and  C_18 
ROOT
HETATM    1  H           1     -34.630  -0.761 -10.713  0.00  0.00     0.163 HD
HETATM    2  C           1     -35.358  -2.698 -10.656  0.00  0.00     0.251 C 
HETATM    3  O           1     -36.337  -3.391 -10.790  0.00  0.00    -0.271 OA
HETATM    4  N           1     -35.451  -1.342 -10.825  0.00  0.00    -0.344 N 
ENDROOT
BRANCH   4   5
HETATM    5  C           1     -36.725  -0.740 -11.165  0.00  0.00     0.195 C 
BRANCH   5   6
HETATM    6  C           1     -36.975   0.464 -10.268  0.00  0.00     0.149 C 
BRANCH   6   7
HETATM    7  C           1     -36.767   0.069  -8.826  0.00  0.00     0.175 C 
HETATM    8  O           1     -37.598  -0.668  -8.255  0.00  0.00    -0.648 OA
HETATM    9  O           1     -35.764   0.481  -8.204  0.00  0.00    -0.648 OA
ENDBRANCH   6   7
ENDBRANCH   5   6
BRANCH   5  10
HETATM   10  C           1     -36.702  -0.296 -12.607  0.00  0.00     0.197 C 
HETATM   11  O           1     -35.784   0.448 -13.016  0.00  0.00    -0.646 OA
HETATM   12  O           1     -37.598  -0.672 -13.392  0.00  0.00    -0.646 OA
ENDBRANCH   5  10
ENDBRANCH   4   5
BRANCH   2  13
HETATM   13  C           1     -34.031  -3.324 -10.302  0.00  0.00     0.311 C 
HETATM   14  N           1     -34.120  -4.781 -10.335  0.00  0.00     0.097 N 
HETATM   15  C           1     -34.055  -5.132 -11.750  0.00  0.00     0.271 C 
HETATM   16  H           1     -33.332  -5.203  -9.843  0.00  0.00     0.317 HD
HETATM   17  C           1     -33.002  -4.189 -12.309  0.00  0.00     0.033 C 
HETATM   18  C           1     -32.984  -3.003 -11.353  0.00  0.00     0.047 C 
ENDBRANCH   2  13
TORSDOF 5
ENDMDL
MODEL 5
REMARK VINA RESULT:      -5.4     12.174     14.021
REMARK  5 active torsions:
REMARK  status: ('A' for Active; 'I' for Inactive)
REMARK    1  A    between atoms: C_4  and  C_13 
REMARK    2  A    between atoms: C_4  and  C_18 
REMARK       I    between atoms: C_7  and  N_15 
REMARK    3  A    between atoms: C_7  and  C_16 
REMARK    4  A    between atoms: C_8  and  C_18 
REMARK    5  A    between atoms: N_15  and  C_18 
ROOT
HETATM    1  H           1     -22.411  -5.469  -9.433  0.00  0.00     0.163 HD
HETATM    2  C           1     -21.561  -4.437  -7.853  0.00  0.00     0.251 C 
HETATM    3  O           1     -21.496  -3.373  -7.286  0.00  0.00    -0.271 OA
HETATM    4  N           1     -22.357  -4.577  -8.958  0.00  0.00    -0.344 N 
ENDROOT
BRANCH   4   5
HETATM    5  C           1     -23.121  -3.446  -9.448  0.00  0.00     0.195 C 
BRANCH   5   6
HETATM    6  C           1     -22.455  -2.885 -10.697  0.00  0.00     0.149 C 
BRANCH   6   7
HETATM    7  C           1     -21.751  -3.996 -11.435  0.00  0.00     0.175 C 
HETATM    8  O           1     -20.536  -4.207 -11.234  0.00  0.00    -0.648 OA
HETATM    9  O           1     -22.382  -4.706 -12.248  0.00  0.00    -0.648 OA
ENDBRANCH   6   7
ENDBRANCH   5   6
BRANCH   5  10
HETATM   10  C           1     -24.522  -3.896  -9.783  0.00  0.00     0.197 C 
HETATM   11  O           1     -25.428  -3.048  -9.943  0.00  0.00    -0.646 OA
HETATM   12  O           1     -24.777  -5.113  -9.901  0.00  0.00    -0.646 OA
ENDBRANCH   5  10
ENDBRANCH   4   5
BRANCH   2  13
HETATM   13  C           1     -20.765  -5.614  -7.343  0.00  0.00     0.311 C 
HETATM   14  N           1     -19.585  -5.164  -6.610  0.00  0.00     0.097 N 
HETATM   15  C           1     -20.085  -4.767  -5.296  0.00  0.00     0.271 C 
HETATM   16  H           1     -18.914  -5.924  -6.503  0.00  0.00     0.317 HD
HETATM   17  C           1     -21.113  -5.835  -4.963  0.00  0.00     0.033 C 
HETATM   18  C           1     -21.557  -6.394  -6.308  0.00  0.00     0.047 C 
ENDBRANCH   2  13
TORSDOF 5
ENDMDL
MODEL 6
REMARK VINA RESULT:      -5.2     15.084     17.180
REMARK  5 active torsions:
REMARK  status: ('A' for Active; 'I' for Inactive)
REMARK    1  A    between atoms: C_4  and  C_13 
REMARK    2  A    between atoms: C_4  and  C_18 
REMARK       I    between atoms: C_7  and  N_15 
REMARK    3  A    between atoms: C_7  and  C_16 
REMARK    4  A    between atoms: C_8  and  C_18 
REMARK    5  A    between atoms: N_15  and  C_18 
ROOT
HETATM    1  H           1     -19.929  -6.235  -4.364  0.00  0.00     0.163 HD
HETATM    2  C           1     -21.411  -5.409  -5.550  0.00  0.00     0.251 C 
HETATM    3  O           1     -22.581  -5.456  -5.848  0.00  0.00    -0.271 OA
HETATM    4  N           1     -20.909  -6.274  -4.614  0.00  0.00    -0.344 N 
ENDROOT
BRANCH   4   5
HETATM    5  C           1     -21.781  -7.245  -3.982  0.00  0.00     0.195 C 
BRANCH   5   6
HETATM    6  C           1     -21.249  -8.648  -4.238  0.00  0.00     0.149 C 
BRANCH   6   7
HETATM    7  C           1     -19.820  -8.567  -4.714  0.00  0.00     0.175 C 
HETATM    8  O           1     -19.574  -8.356  -5.921  0.00  0.00    -0.648 OA
HETATM    9  O           1     -18.881  -8.711  -3.901  0.00  0.00    -0.648 OA
ENDBRANCH   6   7
ENDBRANCH   5   6
BRANCH   5  10
HETATM   10  C           1     -21.826  -6.987  -2.496  0.00  0.00     0.197 C 
HETATM   11  O           1     -22.266  -5.899  -2.065  0.00  0.00    -0.646 OA
HETATM   12  O           1     -21.424  -7.860  -1.697  0.00  0.00    -0.646 OA
ENDBRANCH   5  10
ENDBRANCH   4   5
BRANCH   2  13
HETATM   13  C           1     -20.504  -4.399  -6.207  0.00  0.00     0.311 C 
HETATM   14  N           1     -19.449  -5.066  -6.966  0.00  0.00     0.097 N 
HETATM   15  C           1     -20.088  -5.493  -8.208  0.00  0.00     0.271 C 
HETATM   16  H           1     -18.692  -4.416  -7.180  0.00  0.00     0.317 HD
HETATM   17  C           1     -20.987  -4.323  -8.573  0.00  0.00     0.033 C 
HETATM   18  C           1     -21.256  -3.602  -7.259  0.00  0.00     0.047 C 
ENDBRANCH   2  13
TORSDOF 5
ENDMDL
MODEL 7
REMARK VINA RESULT:      -4.9     16.188     18.168
REMARK  5 active torsions:
REMARK  status: ('A' for Active; 'I' for Inactive)
REMARK    1  A    between atoms: C_4  and  C_13 
REMARK    2  A    between atoms: C_4  and  C_18 
REMARK       I    between atoms: C_7  and  N_15 
REMARK    3  A    between atoms: C_7  and  C_16 
REMARK    4  A    between atoms: C_8  and  C_18 
REMARK    5  A    between atoms: N_15  and  C_18 
ROOT
HETATM    1  H           1     -19.884  -8.059  -2.504  0.00  0.00     0.163 HD
HETATM    2  C           1     -21.399  -9.441  -2.220  0.00  0.00     0.251 C 
HETATM    3  O           1     -22.228 -10.127  -2.768  0.00  0.00    -0.271 OA
HETATM    4  N           1     -20.579  -8.634  -2.963  0.00  0.00    -0.344 N 
ENDROOT
BRANCH   4   5
HETATM    5  C           1     -20.707  -8.603  -4.407  0.00  0.00     0.195 C 
BRANCH   5   6
HETATM    6  C           1     -20.646  -7.163  -4.893  0.00  0.00     0.149 C 
BRANCH   6   7
HETATM    7  C           1     -21.820  -6.394  -4.339  0.00  0.00     0.175 C 
HETATM    8  O           1     -22.849  -6.241  -5.032  0.00  0.00    -0.648 OA
HETATM    9  O           1     -21.764  -5.910  -3.188  0.00  0.00    -0.648 OA
ENDBRANCH   6   7
ENDBRANCH   5   6
BRANCH   5  10
HETATM   10  C           1     -19.579  -9.392  -5.027  0.00  0.00     0.197 C 
HETATM   11  O           1     -19.816 -10.195  -5.956  0.00  0.00    -0.646 OA
HETATM   12  O           1     -18.409  -9.242  -4.613  0.00  0.00    -0.646 OA
ENDBRANCH   5  10
ENDBRANCH   4   5
BRANCH   2  13
HETATM   13  C           1     -21.266  -9.471  -0.717  0.00  0.00     0.311 C 
HETATM   14  N           1     -21.072  -8.125  -0.186  0.00  0.00     0.097 N 
HETATM   15  C           1     -22.403  -7.523  -0.186  0.00  0.00     0.271 C 
HETATM   16  H           1     -20.716  -8.162   0.769  0.00  0.00     0.317 HD
HETATM   17  C           1     -23.310  -8.651   0.275  0.00  0.00     0.033 C 
HETATM   18  C           1     -22.561  -9.932  -0.070  0.00  0.00     0.047 C 
ENDBRANCH   2  13
TORSDOF 5
ENDMDL
MODEL 8
REMARK VINA RESULT:      -4.9     16.370     18.382
REMARK  5 active torsions:
REMARK  status: ('A' for Active; 'I' for Inactive)
REMARK    1  A    between atoms: C_4  and  C_13 
REMARK    2  A    between atoms: C_4  and  C_18 
REMARK       I    between atoms: C_7  and  N_15 
REMARK    3  A    between atoms: C_7  and  C_16 
REMARK    4  A    between atoms: C_8  and  C_18 
REMARK    5  A    between atoms: N_15  and  C_18 
ROOT
HETATM    1  H           1     -22.570  -8.959  -2.698  0.00  0.00     0.163 HD
HETATM    2  C           1     -20.868  -8.775  -1.534  0.00  0.00     0.251 C 
HETATM    3  O           1     -19.762  -8.295  -1.467  0.00  0.00    -0.271 OA
HETATM    4  N           1     -21.643  -8.556  -2.642  0.00  0.00    -0.344 N 
ENDROOT
BRANCH   4   5
HETATM    5  C           1     -21.136  -7.748  -3.733  0.00  0.00     0.195 C 
BRANCH   5   6
HETATM    6  C           1     -21.278  -8.512  -5.041  0.00  0.00     0.149 C 
BRANCH   6   7
HETATM    7  C           1     -20.127  -9.475  -5.191  0.00  0.00     0.175 C 
HETATM    8  O           1     -20.223 -10.449  -5.968  0.00  0.00    -0.648 OA
HETATM    9  O           1     -19.076  -9.300  -4.536  0.00  0.00    -0.648 OA
ENDBRANCH   6   7
ENDBRANCH   5   6
BRANCH   5  10
HETATM   10  C           1     -21.922  -6.462  -3.813  0.00  0.00     0.197 C 
HETATM   11  O           1     -22.129  -5.925  -4.923  0.00  0.00    -0.646 OA
HETATM   12  O           1     -22.366  -5.935  -2.770  0.00  0.00    -0.646 OA
ENDBRANCH   5  10
ENDBRANCH   4   5
BRANCH   2  13
HETATM   13  C           1     -21.396  -9.617  -0.398  0.00  0.00     0.311 C 
HETATM   14  N           1     -21.076  -9.010   0.890  0.00  0.00     0.097 N 
HETATM   15  C           1     -22.055  -7.940   1.058  0.00  0.00     0.271 C 
HETATM   16  H           1     -21.181  -9.688   1.645  0.00  0.00     0.317 HD
HETATM   17  C           1     -23.348  -8.547   0.541  0.00  0.00     0.033 C 
HETATM   18  C           1     -22.914  -9.653  -0.413  0.00  0.00     0.047 C 
ENDBRANCH   2  13
TORSDOF 5
ENDMDL
MODEL 9
REMARK VINA RESULT:      -4.8      2.216      4.613
REMARK  5 active torsions:
REMARK  status: ('A' for Active; 'I' for Inactive)
REMARK    1  A    between atoms: C_4  and  C_13 
REMARK    2  A    between atoms: C_4  and  C_18 
REMARK       I    between atoms: C_7  and  N_15 
REMARK    3  A    between atoms: C_7  and  C_16 
REMARK    4  A    between atoms: C_8  and  C_18 
REMARK    5  A    between atoms: N_15  and  C_18 
ROOT
HETATM    1  H           1     -34.284   0.098 -12.261  0.00  0.00     0.163 HD
HETATM    2  C           1     -36.092  -0.397 -13.138  0.00  0.00     0.251 C 
HETATM    3  O           1     -37.088  -1.073 -13.039  0.00  0.00    -0.271 OA
HETATM    4  N           1     -35.118  -0.468 -12.178  0.00  0.00    -0.344 N 
ENDROOT
BRANCH   4   5
HETATM    5  C           1     -35.283  -1.355 -11.043  0.00  0.00     0.195 C 
BRANCH   5   6
HETATM    6  C           1     -36.708  -1.250 -10.519  0.00  0.00     0.149 C 
BRANCH   6   7
HETATM    7  C           1     -36.777  -0.182  -9.456  0.00  0.00     0.175 C 
HETATM    8  O           1     -37.340  -0.421  -8.366  0.00  0.00    -0.648 OA
HETATM    9  O           1     -36.272   0.943  -9.665  0.00  0.00    -0.648 OA
ENDBRANCH   6   7
ENDBRANCH   5   6
BRANCH   5  10
HETATM   10  C           1     -35.007  -2.775 -11.471  0.00  0.00     0.197 C 
HETATM   11  O           1     -33.960  -3.045 -12.099  0.00  0.00    -0.646 OA
HETATM   12  O           1     -35.825  -3.680 -11.200  0.00  0.00    -0.646 OA
ENDBRANCH   5  10
ENDBRANCH   4   5
BRANCH   2  13
HETATM   13  C           1     -35.920   0.525 -14.320  0.00  0.00     0.311 C 
HETATM   14  N           1     -34.784   0.111 -15.140  0.00  0.00     0.097 N 
HETATM   15  C           1     -35.276  -1.016 -15.926  0.00  0.00     0.271 C 
HETATM   16  H           1     -34.498   0.864 -15.766  0.00  0.00     0.317 HD
HETATM   17  C           1     -36.683  -0.598 -16.319  0.00  0.00     0.033 C 
HETATM   18  C           1     -37.104   0.419 -15.265  0.00  0.00     0.047 C 
ENDBRANCH   2  13
TORSDOF 5
ENDMDL
