MODEL 1
REMARK VINA RESULT:      -6.4      0.000      0.000
REMARK  10 active torsions:
REMARK  status: ('A' for Active; 'I' for Inactive)
REMARK    1  A    between atoms: C_2  and  C_3 
REMARK    2  A    between atoms: C_3  and  C_20 
REMARK    3  A    between atoms: C_3  and  N_14 
REMARK    4  A    between atoms: C_4  and  C_12 
REMARK    5  A    between atoms: C_4  and  C_7 
REMARK    6  A    between atoms: C_4  and  N_13 
REMARK    7  A    between atoms: C_5  and  C_7 
REMARK    8  A    between atoms: C_5  and  S_18 
REMARK    9  A    between atoms: C_10  and  C_11 
REMARK   10  A    between atoms: C_10  and  C_20 
REMARK       I    between atoms: C_11  and  N_15 
REMARK       I    between atoms: C_12  and  N_14 
ROOT
HETATM    1  O           1     -33.828  -1.853 -11.136  0.00  0.00    -0.271 OA
HETATM    2  C           1     -34.550  -2.486 -11.869  0.00  0.00     0.249 C 
HETATM    3  N           1     -35.586  -1.864 -12.512  0.00  0.00    -0.345 N 
HETATM    4  H           1     -36.192  -2.394 -13.126  0.00  0.00     0.163 HD
ENDROOT
BRANCH   3   5
HETATM    5  C           1     -35.816  -0.446 -12.314  0.00  0.00     0.186 C 
BRANCH   5   6
HETATM    6  C           1     -36.799  -0.249 -11.187  0.00  0.00     0.196 C 
HETATM    7  O           1     -37.824  -0.960 -11.120  0.00  0.00    -0.646 OA
HETATM    8  O           1     -36.587   0.625 -10.319  0.00  0.00    -0.646 OA
ENDBRANCH   5   6
BRANCH   5   9
HETATM    9  C           1     -36.380   0.159 -13.593  0.00  0.00     0.045 C 
BRANCH   9  10
HETATM   10  C           1     -35.285   0.230 -14.648  0.00  0.00     0.105 C 
BRANCH  10  11
HETATM   11  C           1     -35.563  -0.782 -15.732  0.00  0.00     0.215 C 
HETATM   12  O           1     -35.184  -1.922 -15.606  0.00  0.00    -0.274 OA
HETATM   13  N           1     -36.246  -0.408 -16.859  0.00  0.00    -0.370 N 
HETATM   14  H           1     -36.564   0.547 -16.965  0.00  0.00     0.159 HD
HETATM   15  H           1     -36.433  -1.086 -17.586  0.00  0.00     0.159 HD
ENDBRANCH  10  11
ENDBRANCH   9  10
ENDBRANCH   5   9
ENDBRANCH   3   5
BRANCH   2  16
HETATM   16  C           1     -34.311  -3.961 -12.074  0.00  0.00     0.275 C 
BRANCH  16  17
HETATM   17  C           1     -33.939  -4.606 -10.745  0.00  0.00     0.053 C 
BRANCH  17  18
HETATM   18  C           1     -33.719  -6.100 -10.949  0.00  0.00     0.076 C 
BRANCH  18  19
HETATM   19  S           1     -34.872  -7.029  -9.899  0.00  0.00    -0.173 SA
HETATM   20  C           1     -33.935  -8.584  -9.903  0.00  0.00     0.089 C 
ENDBRANCH  18  19
ENDBRANCH  17  18
ENDBRANCH  16  17
BRANCH  16  21
HETATM   21  N           1     -33.191  -4.154 -13.054  0.00  0.00    -0.066 N 
HETATM   22  H           1     -32.699  -5.053 -12.848  0.00  0.00     0.275 HD
HETATM   23  H           1     -33.580  -4.185 -14.023  0.00  0.00     0.275 HD
HETATM   24  H           1     -32.517  -3.361 -12.972  0.00  0.00     0.275 HD
ENDBRANCH  16  21
ENDBRANCH   2  16
TORSDOF 10
ENDMDL
MODEL 2
REMARK VINA RESULT:      -6.2      9.736     11.083
REMARK  10 active torsions:
REMARK  status: ('A' for Active; 'I' for Inactive)
REMARK    1  A    between atoms: C_2  and  C_3 
REMARK    2  A    between atoms: C_3  and  C_20 
REMARK    3  A    between atoms: C_3  and  N_14 
REMARK    4  A    between atoms: C_4  and  C_12 
REMARK    5  A    between atoms: C_4  and  C_7 
REMARK    6  A    between atoms: C_4  and  N_13 
REMARK    7  A    between atoms: C_5  and  C_7 
REMARK    8  A    between atoms: C_5  and  S_18 
REMARK    9  A    between atoms: C_10  and  C_11 
REMARK   10  A    between atoms: C_10  and  C_20 
REMARK       I    between atoms: C_11  and  N_15 
REMARK       I    between atoms: C_12  and  N_14 
ROOT
HETATM    1  O           1     -26.238  -7.266 -15.206  0.00  0.00    -0.271 OA
HETATM    2  C           1     -26.258  -6.915 -16.362  0.00  0.00     0.249 C 
HETATM    3  N           1     -27.453  -6.648 -16.974  0.00  0.00    -0.345 N 
HETATM    4  H           1     -27.471  -6.354 -17.942  0.00  0.00     0.163 HD
ENDROOT
BRANCH   3   5
HETATM    5  C           1     -28.694  -6.786 -16.236  0.00  0.00     0.186 C 
BRANCH   5   6
HETATM    6  C           1     -29.728  -7.448 -17.113  0.00  0.00     0.196 C 
HETATM    7  O           1     -29.436  -8.478 -17.756  0.00  0.00    -0.646 OA
HETATM    8  O           1     -30.878  -6.964 -17.196  0.00  0.00    -0.646 OA
ENDBRANCH   5   6
BRANCH   5   9
HETATM    9  C           1     -29.189  -5.409 -15.815  0.00  0.00     0.045 C 
BRANCH   9  10
HETATM   10  C           1     -28.461  -4.340 -16.618  0.00  0.00     0.105 C 
BRANCH  10  11
HETATM   11  C           1     -29.308  -3.932 -17.799  0.00  0.00     0.215 C 
HETATM   12  O           1     -29.234  -4.545 -18.836  0.00  0.00    -0.274 OA
HETATM   13  N           1     -30.161  -2.865 -17.693  0.00  0.00    -0.370 N 
HETATM   14  H           1     -30.224  -2.351 -16.823  0.00  0.00     0.159 HD
HETATM   15  H           1     -30.729  -2.592 -18.484  0.00  0.00     0.159 HD
ENDBRANCH  10  11
ENDBRANCH   9  10
ENDBRANCH   5   9
ENDBRANCH   3   5
BRANCH   2  16
HETATM   16  C           1     -24.968  -6.771 -17.130  0.00  0.00     0.275 C 
BRANCH  16  17
HETATM   17  C           1     -25.260  -6.800 -18.625  0.00  0.00     0.053 C 
BRANCH  17  18
HETATM   18  C           1     -24.041  -7.328 -19.370  0.00  0.00     0.076 C 
BRANCH  18  19
HETATM   19  S           1     -24.537  -7.879 -21.027  0.00  0.00    -0.173 SA
HETATM   20  C           1     -22.891  -8.436 -21.552  0.00  0.00     0.089 C 
ENDBRANCH  18  19
ENDBRANCH  17  18
ENDBRANCH  16  17
BRANCH  16  21
HETATM   21  N           1     -24.049  -7.903 -16.779  0.00  0.00    -0.066 N 
HETATM   22  H           1     -23.102  -7.525 -16.549  0.00  0.00     0.275 HD
HETATM   23  H           1     -24.430  -8.415 -15.951  0.00  0.00     0.275 HD
HETATM   24  H           1     -23.975  -8.557 -17.590  0.00  0.00     0.275 HD
ENDBRANCH  16  21
ENDBRANCH   2  16
TORSDOF 10
ENDMDL
MODEL 3
REMARK VINA RESULT:      -6.1      3.263      6.677
REMARK  10 active torsions:
REMARK  status: ('A' for Active; 'I' for Inactive)
REMARK    1  A    between atoms: C_2  and  C_3 
REMARK    2  A    between atoms: C_3  and  C_20 
REMARK    3  A    between atoms: C_3  and  N_14 
REMARK    4  A    between atoms: C_4  and  C_12 
REMARK    5  A    between atoms: C_4  and  C_7 
REMARK    6  A    between atoms: C_4  and  N_13 
REMARK    7  A    between atoms: C_5  and  C_7 
REMARK    8  A    between atoms: C_5  and  S_18 
REMARK    9  A    between atoms: C_10  and  C_11 
REMARK   10  A    between atoms: C_10  and  C_20 
REMARK       I    between atoms: C_11  and  N_15 
REMARK       I    between atoms: C_12  and  N_14 
ROOT
HETATM    1  O           1     -34.143  -1.413 -11.092  0.00  0.00    -0.271 OA
HETATM    2  C           1     -35.266  -1.816 -10.903  0.00  0.00     0.249 C 
HETATM    3  N           1     -35.521  -3.161 -10.919  0.00  0.00    -0.345 N 
HETATM    4  H           1     -36.462  -3.499 -10.761  0.00  0.00     0.163 HD
ENDROOT
BRANCH   3   5
HETATM    5  C           1     -34.444  -4.101 -11.161  0.00  0.00     0.186 C 
BRANCH   5   6
HETATM    6  C           1     -34.413  -4.462 -12.626  0.00  0.00     0.196 C 
HETATM    7  O           1     -35.242  -5.273 -13.088  0.00  0.00    -0.646 OA
HETATM    8  O           1     -33.556  -3.948 -13.378  0.00  0.00    -0.646 OA
ENDBRANCH   5   6
BRANCH   5   9
HETATM    9  C           1     -34.672  -5.358 -10.332  0.00  0.00     0.045 C 
BRANCH   9  10
HETATM   10  C           1     -33.705  -6.445 -10.781  0.00  0.00     0.105 C 
BRANCH  10  11
HETATM   11  C           1     -34.202  -7.789 -10.307  0.00  0.00     0.215 C 
HETATM   12  O           1     -35.347  -7.915  -9.943  0.00  0.00    -0.274 OA
HETATM   13  N           1     -33.355  -8.865 -10.289  0.00  0.00    -0.370 N 
HETATM   14  H           1     -32.396  -8.759 -10.594  0.00  0.00     0.159 HD
HETATM   15  H           1     -33.688  -9.766  -9.971  0.00  0.00     0.159 HD
ENDBRANCH  10  11
ENDBRANCH   9  10
ENDBRANCH   5   9
ENDBRANCH   3   5
BRANCH   2  16
HETATM   16  C           1     -36.387  -0.839 -10.652  0.00  0.00     0.275 C 
BRANCH  16  17
HETATM   17  C           1     -36.364   0.247 -11.719  0.00  0.00     0.053 C 
BRANCH  17  18
HETATM   18  C           1     -37.104  -0.242 -12.958  0.00  0.00     0.076 C 
BRANCH  18  19
HETATM   19  S           1     -35.962  -0.283 -14.368  0.00  0.00    -0.173 SA
HETATM   20  C           1     -34.801   0.953 -13.719  0.00  0.00     0.089 C 
ENDBRANCH  18  19
ENDBRANCH  17  18
ENDBRANCH  16  17
BRANCH  16  21
HETATM   21  N           1     -36.209  -0.212  -9.300  0.00  0.00    -0.066 N 
HETATM   22  H           1     -36.779  -0.734  -8.596  0.00  0.00     0.275 HD
HETATM   23  H           1     -35.201  -0.253  -9.029  0.00  0.00     0.275 HD
HETATM   24  H           1     -36.523   0.783  -9.333  0.00  0.00     0.275 HD
ENDBRANCH  16  21
ENDBRANCH   2  16
TORSDOF 10
ENDMDL
MODEL 4
REMARK VINA RESULT:      -5.6      4.390      6.383
REMARK  10 active torsions:
REMARK  status: ('A' for Active; 'I' for Inactive)
REMARK    1  A    between atoms: C_2  and  C_3 
REMARK    2  A    between atoms: C_3  and  C_20 
REMARK    3  A    between atoms: C_3  and  N_14 
REMARK    4  A    between atoms: C_4  and  C_12 
REMARK    5  A    between atoms: C_4  and  C_7 
REMARK    6  A    between atoms: C_4  and  N_13 
REMARK    7  A    between atoms: C_5  and  C_7 
REMARK    8  A    between atoms: C_5  and  S_18 
REMARK    9  A    between atoms: C_10  and  C_11 
REMARK   10  A    between atoms: C_10  and  C_20 
REMARK       I    between atoms: C_11  and  N_15 
REMARK       I    between atoms: C_12  and  N_14 
ROOT
HETATM    1  O           1     -34.975  -4.759 -15.574  0.00  0.00    -0.271 OA
HETATM    2  C           1     -33.813  -4.451 -15.460  0.00  0.00     0.249 C 
HETATM    3  N           1     -33.337  -4.011 -14.254  0.00  0.00    -0.345 N 
HETATM    4  H           1     -32.364  -3.753 -14.158  0.00  0.00     0.163 HD
ENDROOT
BRANCH   3   5
HETATM    5  C           1     -34.229  -3.915 -13.114  0.00  0.00     0.186 C 
BRANCH   5   6
HETATM    6  C           1     -34.569  -2.467 -12.864  0.00  0.00     0.196 C 
HETATM    7  O           1     -34.249  -1.927 -11.783  0.00  0.00    -0.646 OA
HETATM    8  O           1     -35.171  -1.806 -13.738  0.00  0.00    -0.646 OA
ENDBRANCH   5   6
BRANCH   5   9
HETATM    9  C           1     -33.544  -4.497 -11.885  0.00  0.00     0.045 C 
BRANCH   9  10
HETATM   10  C           1     -34.597  -5.013 -10.913  0.00  0.00     0.105 C 
BRANCH  10  11
HETATM   11  C           1     -34.256  -6.426 -10.505  0.00  0.00     0.215 C 
HETATM   12  O           1     -34.995  -7.038  -9.771  0.00  0.00    -0.274 OA
HETATM   13  N           1     -33.109  -7.014 -10.967  0.00  0.00    -0.370 N 
HETATM   14  H           1     -32.490  -6.501 -11.582  0.00  0.00     0.159 HD
HETATM   15  H           1     -32.880  -7.960 -10.693  0.00  0.00     0.159 HD
ENDBRANCH  10  11
ENDBRANCH   9  10
ENDBRANCH   5   9
ENDBRANCH   3   5
BRANCH   2  16
HETATM   16  C           1     -32.886  -4.551 -16.646  0.00  0.00     0.275 C 
BRANCH  16  17
HETATM   17  C           1     -31.458  -4.764 -16.158  0.00  0.00     0.053 C 
BRANCH  17  18
HETATM   18  C           1     -30.559  -5.084 -17.345  0.00  0.00     0.076 C 
BRANCH  18  19
HETATM   19  S           1     -29.234  -3.847 -17.452  0.00  0.00    -0.173 SA
HETATM   20  C           1     -27.897  -4.939 -16.890  0.00  0.00     0.089 C 
ENDBRANCH  18  19
ENDBRANCH  17  18
ENDBRANCH  16  17
BRANCH  16  21
HETATM   21  N           1     -32.956  -3.282 -17.443  0.00  0.00    -0.066 N 
HETATM   22  H           1     -32.427  -3.401 -18.336  0.00  0.00     0.275 HD
HETATM   23  H           1     -33.955  -3.062 -17.657  0.00  0.00     0.275 HD
HETATM   24  H           1     -32.537  -2.500 -16.892  0.00  0.00     0.275 HD
ENDBRANCH  16  21
ENDBRANCH   2  16
TORSDOF 10
ENDMDL
MODEL 5
REMARK VINA RESULT:      -5.6     13.256     15.255
REMARK  10 active torsions:
REMARK  status: ('A' for Active; 'I' for Inactive)
REMARK    1  A    between atoms: C_2  and  C_3 
REMARK    2  A    between atoms: C_3  and  C_20 
REMARK    3  A    between atoms: C_3  and  N_14 
REMARK    4  A    between atoms: C_4  and  C_12 
REMARK    5  A    between atoms: C_4  and  C_7 
REMARK    6  A    between atoms: C_4  and  N_13 
REMARK    7  A    between atoms: C_5  and  C_7 
REMARK    8  A    between atoms: C_5  and  S_18 
REMARK    9  A    between atoms: C_10  and  C_11 
REMARK   10  A    between atoms: C_10  and  C_20 
REMARK       I    between atoms: C_11  and  N_15 
REMARK       I    between atoms: C_12  and  N_14 
ROOT
HETATM    1  O           1     -21.150  -7.234  -6.726  0.00  0.00    -0.271 OA
HETATM    2  C           1     -21.201  -6.217  -6.076  0.00  0.00     0.249 C 
HETATM    3  N           1     -21.357  -5.011  -6.707  0.00  0.00    -0.345 N 
HETATM    4  H           1     -21.399  -4.159  -6.164  0.00  0.00     0.163 HD
ENDROOT
BRANCH   3   5
HETATM    5  C           1     -21.459  -4.957  -8.153  0.00  0.00     0.186 C 
BRANCH   5   6
HETATM    6  C           1     -20.116  -4.596  -8.738  0.00  0.00     0.196 C 
HETATM    7  O           1     -19.159  -4.322  -7.984  0.00  0.00    -0.646 OA
HETATM    8  O           1     -19.961  -4.572  -9.978  0.00  0.00    -0.646 OA
ENDBRANCH   5   6
BRANCH   5   9
HETATM    9  C           1     -22.486  -3.903  -8.548  0.00  0.00     0.045 C 
BRANCH   9  10
HETATM   10  C           1     -23.718  -4.586  -9.125  0.00  0.00     0.105 C 
BRANCH  10  11
HETATM   11  C           1     -24.535  -3.581  -9.900  0.00  0.00     0.215 C 
HETATM   12  O           1     -24.007  -2.893 -10.741  0.00  0.00    -0.274 OA
HETATM   13  N           1     -25.875  -3.448  -9.648  0.00  0.00    -0.370 N 
HETATM   14  H           1     -26.317  -4.024  -8.943  0.00  0.00     0.159 HD
HETATM   15  H           1     -26.422  -2.774 -10.167  0.00  0.00     0.159 HD
ENDBRANCH  10  11
ENDBRANCH   9  10
ENDBRANCH   5   9
ENDBRANCH   3   5
BRANCH   2  16
HETATM   16  C           1     -21.094  -6.274  -4.573  0.00  0.00     0.275 C 
BRANCH  16  17
HETATM   17  C           1     -20.538  -7.628  -4.154  0.00  0.00     0.053 C 
BRANCH  17  18
HETATM   18  C           1     -21.462  -8.258  -3.119  0.00  0.00     0.076 C 
BRANCH  18  19
HETATM   19  S           1     -20.711  -8.118  -1.473  0.00  0.00    -0.173 SA
HETATM   20  C           1     -22.215  -7.574  -0.614  0.00  0.00     0.089 C 
ENDBRANCH  18  19
ENDBRANCH  17  18
ENDBRANCH  16  17
BRANCH  16  21
HETATM   21  N           1     -22.454  -6.084  -3.968  0.00  0.00    -0.066 N 
HETATM   22  H           1     -22.358  -5.920  -2.940  0.00  0.00     0.275 HD
HETATM   23  H           1     -22.918  -5.259  -4.410  0.00  0.00     0.275 HD
HETATM   24  H           1     -23.031  -6.939  -4.132  0.00  0.00     0.275 HD
ENDBRANCH  16  21
ENDBRANCH   2  16
TORSDOF 10
ENDMDL
MODEL 6
REMARK VINA RESULT:      -5.6     14.480     17.263
REMARK  10 active torsions:
REMARK  status: ('A' for Active; 'I' for Inactive)
REMARK    1  A    between atoms: C_2  and  C_3 
REMARK    2  A    between atoms: C_3  and  C_20 
REMARK    3  A    between atoms: C_3  and  N_14 
REMARK    4  A    between atoms: C_4  and  C_12 
REMARK    5  A    between atoms: C_4  and  C_7 
REMARK    6  A    between atoms: C_4  and  N_13 
REMARK    7  A    between atoms: C_5  and  C_7 
REMARK    8  A    between atoms: C_5  and  S_18 
REMARK    9  A    between atoms: C_10  and  C_11 
REMARK   10  A    between atoms: C_10  and  C_20 
REMARK       I    between atoms: C_11  and  N_15 
REMARK       I    between atoms: C_12  and  N_14 
ROOT
HETATM    1  O           1     -19.976  -4.516  -6.044  0.00  0.00    -0.271 OA
HETATM    2  C           1     -20.838  -5.126  -6.631  0.00  0.00     0.249 C 
HETATM    3  N           1     -21.367  -6.262  -6.081  0.00  0.00    -0.345 N 
HETATM    4  H           1     -22.088  -6.774  -6.573  0.00  0.00     0.163 HD
ENDROOT
BRANCH   3   5
HETATM    5  C           1     -20.893  -6.733  -4.793  0.00  0.00     0.186 C 
BRANCH   5   6
HETATM    6  C           1     -20.247  -8.087  -4.961  0.00  0.00     0.196 C 
HETATM    7  O           1     -19.400  -8.268  -5.860  0.00  0.00    -0.646 OA
HETATM    8  O           1     -20.560  -9.027  -4.198  0.00  0.00    -0.646 OA
ENDBRANCH   5   6
BRANCH   5   9
HETATM    9  C           1     -22.068  -6.846  -3.832  0.00  0.00     0.045 C 
BRANCH   9  10
HETATM   10  C           1     -21.719  -6.156  -2.520  0.00  0.00     0.105 C 
BRANCH  10  11
HETATM   11  C           1     -21.915  -7.121  -1.376  0.00  0.00     0.215 C 
HETATM   12  O           1     -22.813  -6.947  -0.586  0.00  0.00    -0.274 OA
HETATM   13  N           1     -21.075  -8.193  -1.233  0.00  0.00    -0.370 N 
HETATM   14  H           1     -20.323  -8.338  -1.895  0.00  0.00     0.159 HD
HETATM   15  H           1     -21.207  -8.840  -0.467  0.00  0.00     0.159 HD
ENDBRANCH  10  11
ENDBRANCH   9  10
ENDBRANCH   5   9
ENDBRANCH   3   5
BRANCH   2  16
HETATM   16  C           1     -21.330  -4.636  -7.970  0.00  0.00     0.275 C 
BRANCH  16  17
HETATM   17  C           1     -20.158  -4.084  -8.772  0.00  0.00     0.053 C 
BRANCH  17  18
HETATM   18  C           1     -20.210  -4.634 -10.192  0.00  0.00     0.076 C 
BRANCH  18  19
HETATM   19  S           1     -21.141  -3.490 -11.250  0.00  0.00    -0.173 SA
HETATM   20  C           1     -22.617  -4.535 -11.420  0.00  0.00     0.089 C 
ENDBRANCH  18  19
ENDBRANCH  17  18
ENDBRANCH  16  17
BRANCH  16  21
HETATM   21  N           1     -22.347  -3.553  -7.763  0.00  0.00    -0.066 N 
HETATM   22  H           1     -22.966  -3.805  -6.959  0.00  0.00     0.275 HD
HETATM   23  H           1     -21.858  -2.653  -7.557  0.00  0.00     0.275 HD
HETATM   24  H           1     -22.924  -3.447  -8.627  0.00  0.00     0.275 HD
ENDBRANCH  16  21
ENDBRANCH   2  16
TORSDOF 10
ENDMDL
MODEL 7
REMARK VINA RESULT:      -5.5     14.240     16.948
REMARK  10 active torsions:
REMARK  status: ('A' for Active; 'I' for Inactive)
REMARK    1  A    between atoms: C_2  and  C_3 
REMARK    2  A    between atoms: C_3  and  C_20 
REMARK    3  A    between atoms: C_3  and  N_14 
REMARK    4  A    between atoms: C_4  and  C_12 
REMARK    5  A    between atoms: C_4  and  C_7 
REMARK    6  A    between atoms: C_4  and  N_13 
REMARK    7  A    between atoms: C_5  and  C_7 
REMARK    8  A    between atoms: C_5  and  S_18 
REMARK    9  A    between atoms: C_10  and  C_11 
REMARK   10  A    between atoms: C_10  and  C_20 
REMARK       I    between atoms: C_11  and  N_15 
REMARK       I    between atoms: C_12  and  N_14 
ROOT
HETATM    1  O           1     -19.741  -4.404  -5.252  0.00  0.00    -0.271 OA
HETATM    2  C           1     -20.665  -4.697  -5.972  0.00  0.00     0.249 C 
HETATM    3  N           1     -21.435  -5.793  -5.685  0.00  0.00    -0.345 N 
HETATM    4  H           1     -22.209  -6.039  -6.288  0.00  0.00     0.163 HD
ENDROOT
BRANCH   3   5
HETATM    5  C           1     -21.140  -6.600  -4.516  0.00  0.00     0.186 C 
BRANCH   5   6
HETATM    6  C           1     -20.845  -8.016  -4.946  0.00  0.00     0.196 C 
HETATM    7  O           1     -21.186  -8.409  -6.082  0.00  0.00    -0.646 OA
HETATM    8  O           1     -20.259  -8.796  -4.165  0.00  0.00    -0.646 OA
ENDBRANCH   5   6
BRANCH   5   9
HETATM    9  C           1     -22.341  -6.592  -3.580  0.00  0.00     0.045 C 
BRANCH   9  10
HETATM   10  C           1     -21.910  -6.097  -2.206  0.00  0.00     0.105 C 
BRANCH  10  11
HETATM   11  C           1     -22.066  -7.209  -1.198  0.00  0.00     0.215 C 
HETATM   12  O           1     -22.910  -7.132  -0.337  0.00  0.00    -0.274 OA
HETATM   13  N           1     -21.249  -8.307  -1.259  0.00  0.00    -0.370 N 
HETATM   14  H           1     -20.542  -8.373  -1.979  0.00  0.00     0.159 HD
HETATM   15  H           1     -21.353  -9.053  -0.583  0.00  0.00     0.159 HD
ENDBRANCH  10  11
ENDBRANCH   9  10
ENDBRANCH   5   9
ENDBRANCH   3   5
BRANCH   2  16
HETATM   16  C           1     -20.972  -3.858  -7.187  0.00  0.00     0.275 C 
BRANCH  16  17
HETATM   17  C           1     -22.328  -4.259  -7.753  0.00  0.00     0.053 C 
BRANCH  17  18
HETATM   18  C           1     -22.508  -3.635  -9.131  0.00  0.00     0.076 C 
BRANCH  18  19
HETATM   19  S           1     -24.195  -3.951  -9.723  0.00  0.00    -0.173 SA
HETATM   20  C           1     -23.713  -4.872 -11.212  0.00  0.00     0.089 C 
ENDBRANCH  18  19
ENDBRANCH  17  18
ENDBRANCH  16  17
BRANCH  16  21
HETATM   21  N           1     -19.912  -4.080  -8.227  0.00  0.00    -0.066 N 
HETATM   22  H           1     -19.113  -4.604  -7.804  0.00  0.00     0.275 HD
HETATM   23  H           1     -20.313  -4.634  -9.017  0.00  0.00     0.275 HD
HETATM   24  H           1     -19.575  -3.158  -8.583  0.00  0.00     0.275 HD
ENDBRANCH  16  21
ENDBRANCH   2  16
TORSDOF 10
ENDMDL
MODEL 8
REMARK VINA RESULT:      -5.3      2.825      6.186
REMARK  10 active torsions:
REMARK  status: ('A' for Active; 'I' for Inactive)
REMARK    1  A    between atoms: C_2  and  C_3 
REMARK    2  A    between atoms: C_3  and  C_20 
REMARK    3  A    between atoms: C_3  and  N_14 
REMARK    4  A    between atoms: C_4  and  C_12 
REMARK    5  A    between atoms: C_4  and  C_7 
REMARK    6  A    between atoms: C_4  and  N_13 
REMARK    7  A    between atoms: C_5  and  C_7 
REMARK    8  A    between atoms: C_5  and  S_18 
REMARK    9  A    between atoms: C_10  and  C_11 
REMARK   10  A    between atoms: C_10  and  C_20 
REMARK       I    between atoms: C_11  and  N_15 
REMARK       I    between atoms: C_12  and  N_14 
ROOT
HETATM    1  O           1     -33.917  -1.267 -11.019  0.00  0.00    -0.271 OA
HETATM    2  C           1     -34.802  -1.169 -11.836  0.00  0.00     0.249 C 
HETATM    3  N           1     -35.162  -2.256 -12.587  0.00  0.00    -0.345 N 
HETATM    4  H           1     -35.902  -2.175 -13.271  0.00  0.00     0.163 HD
ENDROOT
BRANCH   3   5
HETATM    5  C           1     -34.481  -3.523 -12.402  0.00  0.00     0.186 C 
BRANCH   5   6
HETATM    6  C           1     -34.461  -4.278 -13.709  0.00  0.00     0.196 C 
HETATM    7  O           1     -33.875  -3.795 -14.700  0.00  0.00    -0.646 OA
HETATM    8  O           1     -35.031  -5.387 -13.798  0.00  0.00    -0.646 OA
ENDBRANCH   5   6
BRANCH   5   9
HETATM    9  C           1     -35.216  -4.345 -11.351  0.00  0.00     0.045 C 
BRANCH   9  10
HETATM   10  C           1     -34.218  -4.876 -10.331  0.00  0.00     0.105 C 
BRANCH  10  11
HETATM   11  C           1     -34.016  -6.356 -10.548  0.00  0.00     0.215 C 
HETATM   12  O           1     -34.859  -7.140 -10.181  0.00  0.00    -0.274 OA
HETATM   13  N           1     -32.878  -6.810 -11.160  0.00  0.00    -0.370 N 
HETATM   14  H           1     -32.172  -6.152 -11.466  0.00  0.00     0.159 HD
HETATM   15  H           1     -32.743  -7.802 -11.304  0.00  0.00     0.159 HD
ENDBRANCH  10  11
ENDBRANCH   9  10
ENDBRANCH   5   9
ENDBRANCH   3   5
BRANCH   2  16
HETATM   16  C           1     -35.510   0.148 -12.028  0.00  0.00     0.275 C 
BRANCH  16  17
HETATM   17  C           1     -36.942   0.035 -11.523  0.00  0.00     0.053 C 
BRANCH  17  18
HETATM   18  C           1     -37.077   0.787 -10.205  0.00  0.00     0.076 C 
BRANCH  18  19
HETATM   19  S           1     -37.151  -0.402  -8.835  0.00  0.00    -0.173 SA
HETATM   20  C           1     -36.540   0.732  -7.555  0.00  0.00     0.089 C 
ENDBRANCH  18  19
ENDBRANCH  17  18
ENDBRANCH  16  17
BRANCH  16  21
HETATM   21  N           1     -35.522   0.500 -13.487  0.00  0.00    -0.066 N 
HETATM   22  H           1     -36.477   0.332 -13.878  0.00  0.00     0.275 HD
HETATM   23  H           1     -35.272   1.508 -13.603  0.00  0.00     0.275 HD
HETATM   24  H           1     -34.828  -0.093 -13.994  0.00  0.00     0.275 HD
ENDBRANCH  16  21
ENDBRANCH   2  16
TORSDOF 10
ENDMDL
MODEL 9
REMARK VINA RESULT:      -5.2     14.611     17.457
REMARK  10 active torsions:
REMARK  status: ('A' for Active; 'I' for Inactive)
REMARK    1  A    between atoms: C_2  and  C_3 
REMARK    2  A    between atoms: C_3  and  C_20 
REMARK    3  A    between atoms: C_3  and  N_14 
REMARK    4  A    between atoms: C_4  and  C_12 
REMARK    5  A    between atoms: C_4  and  C_7 
REMARK    6  A    between atoms: C_4  and  N_13 
REMARK    7  A    between atoms: C_5  and  C_7 
REMARK    8  A    between atoms: C_5  and  S_18 
REMARK    9  A    between atoms: C_10  and  C_11 
REMARK   10  A    between atoms: C_10  and  C_20 
REMARK       I    between atoms: C_11  and  N_15 
REMARK       I    between atoms: C_12  and  N_14 
ROOT
HETATM    1  O           1     -22.639  -5.598  -5.725  0.00  0.00    -0.271 OA
HETATM    2  C           1     -21.439  -5.731  -5.760  0.00  0.00     0.249 C 
HETATM    3  N           1     -20.829  -6.650  -4.948  0.00  0.00    -0.345 N 
HETATM    4  H           1     -19.824  -6.762  -4.976  0.00  0.00     0.163 HD
ENDROOT
BRANCH   3   5
HETATM    5  C           1     -21.624  -7.462  -4.047  0.00  0.00     0.186 C 
BRANCH   5   6
HETATM    6  C           1     -21.591  -6.858  -2.665  0.00  0.00     0.196 C 
HETATM    7  O           1     -20.809  -7.312  -1.803  0.00  0.00    -0.646 OA
HETATM    8  O           1     -22.346  -5.902  -2.382  0.00  0.00    -0.646 OA
ENDBRANCH   5   6
BRANCH   5   9
HETATM    9  C           1     -21.053  -8.873  -4.000  0.00  0.00     0.045 C 
BRANCH   9  10
HETATM   10  C           1     -19.799  -8.942  -4.860  0.00  0.00     0.105 C 
BRANCH  10  11
HETATM   11  C           1     -18.613  -9.290  -3.994  0.00  0.00     0.215 C 
HETATM   12  O           1     -17.573  -9.635  -4.504  0.00  0.00    -0.274 OA
HETATM   13  N           1     -18.715  -9.213  -2.631  0.00  0.00    -0.370 N 
HETATM   14  H           1     -19.586  -8.924  -2.204  0.00  0.00     0.159 HD
HETATM   15  H           1     -17.920  -9.446  -2.050  0.00  0.00     0.159 HD
ENDBRANCH  10  11
ENDBRANCH   9  10
ENDBRANCH   5   9
ENDBRANCH   3   5
BRANCH   2  16
HETATM   16  C           1     -20.612  -4.886  -6.696  0.00  0.00     0.275 C 
BRANCH  16  17
HETATM   17  C           1     -21.485  -3.794  -7.301  0.00  0.00     0.053 C 
BRANCH  17  18
HETATM   18  C           1     -21.780  -4.128  -8.758  0.00  0.00     0.076 C 
BRANCH  18  19
HETATM   19  S           1     -23.571  -4.055  -9.045  0.00  0.00    -0.173 SA
HETATM   20  C           1     -23.515  -4.591 -10.779  0.00  0.00     0.089 C 
ENDBRANCH  18  19
ENDBRANCH  17  18
ENDBRANCH  16  17
BRANCH  16  21
HETATM   21  N           1     -20.062  -5.749  -7.794  0.00  0.00    -0.066 N 
HETATM   22  H           1     -19.625  -5.146  -8.526  0.00  0.00     0.275 HD
HETATM   23  H           1     -19.341  -6.394  -7.399  0.00  0.00     0.275 HD
HETATM   24  H           1     -20.835  -6.308  -8.219  0.00  0.00     0.275 HD
ENDBRANCH  16  21
ENDBRANCH   2  16
TORSDOF 10
ENDMDL
