MODEL 1
REMARK VINA RESULT:      -7.9      0.000      0.000
REMARK  11 active torsions:
REMARK  status: ('A' for Active; 'I' for Inactive)
REMARK    1  A    between atoms: C_2  and  C_4 
REMARK    2  A    between atoms: C_4  and  C_5 
REMARK    3  A    between atoms: C_5  and  C_28 
REMARK    4  A    between atoms: C_5  and  N_25 
REMARK    5  A    between atoms: N_10  and  C_23 
REMARK    6  A    between atoms: O_15  and  P_16 
REMARK    7  A    between atoms: P_16  and  O_17 
REMARK    8  A    between atoms: O_17  and  C_18 
REMARK    9  A    between atoms: C_21  and  C_22 
REMARK   10  A    between atoms: C_22  and  C_23 
REMARK   11  A    between atoms: C_23  and  C_24 
REMARK       I    between atoms: C_24  and  N_25 
ROOT
HETATM    1  C           1     -22.428  -5.037  -6.254  0.00  0.00     0.260 C 
ENDROOT
BRANCH   1   2
HETATM    2  N           1     -23.858  -5.404  -5.986  0.00  0.00    -0.067 N 
HETATM    3  H           1     -24.392  -5.403  -6.885  0.00  0.00     0.275 HD
HETATM    4  H           1     -23.898  -6.356  -5.559  0.00  0.00     0.275 HD
HETATM    5  H           1     -24.279  -4.708  -5.330  0.00  0.00     0.275 HD
ENDBRANCH   1   2
BRANCH   1   6
HETATM    6  C           1     -21.582  -6.301  -6.314  0.00  0.00     0.079 C 
BRANCH   6   7
HETATM    7  C           1     -21.412  -6.855  -4.934  0.00  0.00    -0.056 A 
HETATM    8  C           1     -21.490  -8.232  -4.721  0.00  0.00     0.010 A 
HETATM    9  C           1     -21.331  -8.748  -3.435  0.00  0.00     0.038 A 
HETATM   10  C           1     -21.094  -7.889  -2.362  0.00  0.00     0.081 A 
HETATM   11  C           1     -21.016  -6.513  -2.576  0.00  0.00     0.038 A 
HETATM   12  C           1     -21.175  -5.995  -3.862  0.00  0.00     0.010 A 
BRANCH  10  13
HETATM   13  O           1     -20.940  -8.390  -1.114  0.00  0.00    -0.247 OA
BRANCH  13  14
HETATM   14  P           1     -22.210  -8.347  -0.117  0.00  0.00     0.411 P 
HETATM   15  O           1     -23.000  -7.124  -0.378  0.00  0.00    -0.624 OA
HETATM   16  O           1     -21.736  -8.341   1.285  0.00  0.00    -0.624 OA
BRANCH  14  17
HETATM   17  O           1     -23.133  -9.649  -0.366  0.00  0.00    -0.300 OA
HETATM   18  H           1     -23.886  -9.523   0.187  0.00  0.00     0.223 HD
ENDBRANCH  14  17
ENDBRANCH  13  14
ENDBRANCH  10  13
ENDBRANCH   6   7
ENDBRANCH   1   6
BRANCH   1  19
HETATM   19  C           1     -22.337  -4.306  -7.571  0.00  0.00     0.130 C 
HETATM   20  O           1     -21.441  -3.521  -7.765  0.00  0.00    -0.397 OA
HETATM   21  N           1     -23.271  -4.535  -8.546  0.00  0.00    -0.359 N 
HETATM   22  H           1     -24.022  -5.192  -8.384  0.00  0.00     0.162 HD
BRANCH  21  23
HETATM   23  C           1     -23.183  -3.832  -9.812  0.00  0.00     0.184 C 
BRANCH  23  24
HETATM   24  C           1     -22.634  -4.771 -10.878  0.00  0.00     0.040 C 
BRANCH  24  25
HETATM   25  C           1     -21.324  -4.214 -11.420  0.00  0.00    -0.018 C 
HETATM   26  C           1     -20.162  -4.751 -10.594  0.00  0.00     0.289 C 
HETATM   27  C           1     -21.346  -2.694 -11.335  0.00  0.00     0.009 C 
ENDBRANCH  24  25
ENDBRANCH  23  24
BRANCH  23  28
HETATM   28  C           1     -24.556  -3.358 -10.220  0.00  0.00     0.196 C 
HETATM   29  O           1     -25.257  -2.708  -9.414  0.00  0.00    -0.646 OA
HETATM   30  O           1     -24.993  -3.614 -11.362  0.00  0.00    -0.646 OA
ENDBRANCH  23  28
ENDBRANCH  21  23
ENDBRANCH   1  19
TORSDOF 11
ENDMDL
MODEL 2
REMARK VINA RESULT:      -7.6      3.633      8.817
REMARK  11 active torsions:
REMARK  status: ('A' for Active; 'I' for Inactive)
REMARK    1  A    between atoms: C_2  and  C_4 
REMARK    2  A    between atoms: C_4  and  C_5 
REMARK    3  A    between atoms: C_5  and  C_28 
REMARK    4  A    between atoms: C_5  and  N_25 
REMARK    5  A    between atoms: N_10  and  C_23 
REMARK    6  A    between atoms: O_15  and  P_16 
REMARK    7  A    between atoms: P_16  and  O_17 
REMARK    8  A    between atoms: O_17  and  C_18 
REMARK    9  A    between atoms: C_21  and  C_22 
REMARK   10  A    between atoms: C_22  and  C_23 
REMARK   11  A    between atoms: C_23  and  C_24 
REMARK       I    between atoms: C_24  and  N_25 
ROOT
HETATM    1  C           1     -21.569  -6.459  -4.903  0.00  0.00     0.260 C 
ENDROOT
BRANCH   1   2
HETATM    2  N           1     -22.047  -6.025  -3.549  0.00  0.00    -0.067 N 
HETATM    3  H           1     -22.617  -5.153  -3.644  0.00  0.00     0.275 HD
HETATM    4  H           1     -22.634  -6.780  -3.130  0.00  0.00     0.275 HD
HETATM    5  H           1     -21.224  -5.838  -2.933  0.00  0.00     0.275 HD
ENDBRANCH   1   2
BRANCH   1   6
HETATM    6  C           1     -20.592  -5.427  -5.451  0.00  0.00     0.079 C 
BRANCH   6   7
HETATM    7  C           1     -21.057  -4.962  -6.795  0.00  0.00    -0.056 A 
HETATM    8  C           1     -22.344  -4.447  -6.949  0.00  0.00     0.010 A 
HETATM    9  C           1     -22.777  -4.013  -8.202  0.00  0.00     0.038 A 
HETATM   10  C           1     -21.923  -4.094  -9.302  0.00  0.00     0.081 A 
HETATM   11  C           1     -20.636  -4.610  -9.148  0.00  0.00     0.038 A 
HETATM   12  C           1     -20.203  -5.044  -7.895  0.00  0.00     0.010 A 
BRANCH  10  13
HETATM   13  O           1     -22.343  -3.674 -10.519  0.00  0.00    -0.247 OA
BRANCH  13  14
HETATM   14  P           1     -23.693  -4.324 -11.121  0.00  0.00     0.411 P 
HETATM   15  O           1     -24.807  -3.359 -10.989  0.00  0.00    -0.624 OA
HETATM   16  O           1     -24.018  -5.562 -10.377  0.00  0.00    -0.624 OA
BRANCH  14  17
HETATM   17  O           1     -23.470  -4.679 -12.681  0.00  0.00    -0.300 OA
HETATM   18  H           1     -22.565  -4.474 -12.850  0.00  0.00     0.223 HD
ENDBRANCH  14  17
ENDBRANCH  13  14
ENDBRANCH  10  13
ENDBRANCH   6   7
ENDBRANCH   1   6
BRANCH   1  19
HETATM   19  C           1     -20.876  -7.795  -4.786  0.00  0.00     0.130 C 
HETATM   20  O           1     -20.699  -8.471  -5.770  0.00  0.00    -0.397 OA
HETATM   21  N           1     -20.450  -8.239  -3.563  0.00  0.00    -0.359 N 
HETATM   22  H           1     -20.599  -7.673  -2.738  0.00  0.00     0.162 HD
BRANCH  21  23
HETATM   23  C           1     -19.784  -9.523  -3.451  0.00  0.00     0.184 C 
BRANCH  23  24
HETATM   24  C           1     -18.478  -9.355  -2.687  0.00  0.00     0.040 C 
BRANCH  24  25
HETATM   25  C           1     -17.361 -10.082  -3.424  0.00  0.00    -0.018 C 
HETATM   26  C           1     -16.011  -9.566  -2.939  0.00  0.00     0.289 C 
HETATM   27  C           1     -17.492  -9.829  -4.919  0.00  0.00     0.009 C 
ENDBRANCH  24  25
ENDBRANCH  23  24
BRANCH  23  28
HETATM   28  C           1     -20.678 -10.488  -2.711  0.00  0.00     0.196 C 
HETATM   29  O           1     -21.848 -10.684  -3.105  0.00  0.00    -0.646 OA
HETATM   30  O           1     -20.249 -11.093  -1.705  0.00  0.00    -0.646 OA
ENDBRANCH  23  28
ENDBRANCH  21  23
ENDBRANCH   1  19
TORSDOF 11
ENDMDL
MODEL 3
REMARK VINA RESULT:      -7.4     12.005     14.354
REMARK  11 active torsions:
REMARK  status: ('A' for Active; 'I' for Inactive)
REMARK    1  A    between atoms: C_2  and  C_4 
REMARK    2  A    between atoms: C_4  and  C_5 
REMARK    3  A    between atoms: C_5  and  C_28 
REMARK    4  A    between atoms: C_5  and  N_25 
REMARK    5  A    between atoms: N_10  and  C_23 
REMARK    6  A    between atoms: O_15  and  P_16 
REMARK    7  A    between atoms: P_16  and  O_17 
REMARK    8  A    between atoms: O_17  and  C_18 
REMARK    9  A    between atoms: C_21  and  C_22 
REMARK   10  A    between atoms: C_22  and  C_23 
REMARK   11  A    between atoms: C_23  and  C_24 
REMARK       I    between atoms: C_24  and  N_25 
ROOT
HETATM    1  C           1     -32.822  -4.684 -16.962  0.00  0.00     0.260 C 
ENDROOT
BRANCH   1   2
HETATM    2  N           1     -31.803  -3.584 -16.931  0.00  0.00    -0.067 N 
HETATM    3  H           1     -31.288  -3.561 -17.841  0.00  0.00     0.275 HD
HETATM    4  H           1     -32.283  -2.669 -16.779  0.00  0.00     0.275 HD
HETATM    5  H           1     -31.127  -3.758 -16.153  0.00  0.00     0.275 HD
ENDBRANCH   1   2
BRANCH   1   6
HETATM    6  C           1     -32.115  -6.030 -17.022  0.00  0.00     0.079 C 
BRANCH   6   7
HETATM    7  C           1     -30.636  -5.824 -16.904  0.00  0.00    -0.056 A 
HETATM    8  C           1     -30.066  -5.554 -15.661  0.00  0.00     0.010 A 
HETATM    9  C           1     -28.689  -5.363 -15.552  0.00  0.00     0.038 A 
HETATM   10  C           1     -27.881  -5.442 -16.687  0.00  0.00     0.081 A 
HETATM   11  C           1     -28.452  -5.711 -17.930  0.00  0.00     0.038 A 
HETATM   12  C           1     -29.830  -5.903 -18.040  0.00  0.00     0.010 A 
BRANCH  10  13
HETATM   13  O           1     -26.544  -5.255 -16.581  0.00  0.00    -0.247 OA
BRANCH  13  14
HETATM   14  P           1     -25.653  -6.467 -15.994  0.00  0.00     0.411 P 
HETATM   15  O           1     -24.733  -6.956 -17.044  0.00  0.00    -0.624 OA
HETATM   16  O           1     -26.543  -7.569 -15.563  0.00  0.00    -0.624 OA
BRANCH  14  17
HETATM   17  O           1     -24.797  -5.943 -14.729  0.00  0.00    -0.300 OA
HETATM   18  H           1     -25.239  -5.161 -14.443  0.00  0.00     0.223 HD
ENDBRANCH  14  17
ENDBRANCH  13  14
ENDBRANCH  10  13
ENDBRANCH   6   7
ENDBRANCH   1   6
BRANCH   1  19
HETATM   19  C           1     -33.672  -4.616 -15.716  0.00  0.00     0.130 C 
HETATM   20  O           1     -34.809  -5.020 -15.739  0.00  0.00    -0.397 OA
HETATM   21  N           1     -33.151  -4.096 -14.561  0.00  0.00    -0.359 N 
HETATM   22  H           1     -32.198  -3.758 -14.543  0.00  0.00     0.162 HD
BRANCH  21  23
HETATM   23  C           1     -33.968  -4.032 -13.364  0.00  0.00     0.184 C 
BRANCH  23  24
HETATM   24  C           1     -33.133  -4.433 -12.156  0.00  0.00     0.040 C 
BRANCH  24  25
HETATM   25  C           1     -33.839  -5.549 -11.398  0.00  0.00    -0.018 C 
HETATM   26  C           1     -35.040  -6.030 -12.203  0.00  0.00     0.289 C 
HETATM   27  C           1     -34.311  -5.026 -10.048  0.00  0.00     0.009 C 
ENDBRANCH  24  25
ENDBRANCH  23  24
BRANCH  23  28
HETATM   28  C           1     -34.475  -2.623 -13.179  0.00  0.00     0.196 C 
HETATM   29  O           1     -35.047  -2.036 -14.123  0.00  0.00    -0.646 OA
HETATM   30  O           1     -34.325  -2.043 -12.083  0.00  0.00    -0.646 OA
ENDBRANCH  23  28
ENDBRANCH  21  23
ENDBRANCH   1  19
TORSDOF 11
ENDMDL
MODEL 4
REMARK VINA RESULT:      -7.2      3.308      9.221
REMARK  11 active torsions:
REMARK  status: ('A' for Active; 'I' for Inactive)
REMARK    1  A    between atoms: C_2  and  C_4 
REMARK    2  A    between atoms: C_4  and  C_5 
REMARK    3  A    between atoms: C_5  and  C_28 
REMARK    4  A    between atoms: C_5  and  N_25 
REMARK    5  A    between atoms: N_10  and  C_23 
REMARK    6  A    between atoms: O_15  and  P_16 
REMARK    7  A    between atoms: P_16  and  O_17 
REMARK    8  A    between atoms: O_17  and  C_18 
REMARK    9  A    between atoms: C_21  and  C_22 
REMARK   10  A    between atoms: C_22  and  C_23 
REMARK   11  A    between atoms: C_23  and  C_24 
REMARK       I    between atoms: C_24  and  N_25 
ROOT
HETATM    1  C           1     -20.209  -7.390  -5.597  0.00  0.00     0.260 C 
ENDROOT
BRANCH   1   2
HETATM    2  N           1     -21.419  -7.977  -6.263  0.00  0.00    -0.067 N 
HETATM    3  H           1     -21.144  -8.387  -7.185  0.00  0.00     0.275 HD
HETATM    4  H           1     -21.821  -8.726  -5.656  0.00  0.00     0.275 HD
HETATM    5  H           1     -22.132  -7.228  -6.413  0.00  0.00     0.275 HD
ENDBRANCH   1   2
BRANCH   1   6
HETATM    6  C           1     -20.421  -5.898  -5.384  0.00  0.00     0.079 C 
BRANCH   6   7
HETATM    7  C           1     -20.938  -5.281  -6.646  0.00  0.00    -0.056 A 
HETATM    8  C           1     -22.205  -4.699  -6.671  0.00  0.00     0.010 A 
HETATM    9  C           1     -22.685  -4.123  -7.847  0.00  0.00     0.038 A 
HETATM   10  C           1     -21.898  -4.129  -8.999  0.00  0.00     0.081 A 
HETATM   11  C           1     -20.631  -4.711  -8.974  0.00  0.00     0.038 A 
HETATM   12  C           1     -20.150  -5.287  -7.798  0.00  0.00     0.010 A 
BRANCH  10  13
HETATM   13  O           1     -22.365  -3.570 -10.141  0.00  0.00    -0.247 OA
BRANCH  13  14
HETATM   14  P           1     -23.646  -4.252 -10.850  0.00  0.00     0.411 P 
HETATM   15  O           1     -23.973  -5.520 -10.163  0.00  0.00    -0.624 OA
HETATM   16  O           1     -23.334  -4.524 -12.272  0.00  0.00    -0.624 OA
BRANCH  14  17
HETATM   17  O           1     -24.908  -3.248 -10.760  0.00  0.00    -0.300 OA
HETATM   18  H           1     -24.543  -2.387 -10.875  0.00  0.00     0.223 HD
ENDBRANCH  14  17
ENDBRANCH  13  14
ENDBRANCH  10  13
ENDBRANCH   6   7
ENDBRANCH   1   6
BRANCH   1  19
HETATM   19  C           1     -19.994  -8.064  -4.264  0.00  0.00     0.130 C 
HETATM   20  O           1     -19.002  -8.726  -4.074  0.00  0.00    -0.397 OA
HETATM   21  N           1     -20.925  -7.924  -3.269  0.00  0.00    -0.359 N 
HETATM   22  H           1     -21.757  -7.370  -3.427  0.00  0.00     0.162 HD
BRANCH  21  23
HETATM   23  C           1     -20.718  -8.571  -1.988  0.00  0.00     0.184 C 
BRANCH  23  24
HETATM   24  C           1     -21.399  -7.762  -0.892  0.00  0.00     0.040 C 
BRANCH  24  25
HETATM   25  C           1     -21.928  -8.704   0.182  0.00  0.00    -0.018 C 
HETATM   26  C           1     -23.318  -8.255   0.614  0.00  0.00     0.289 C 
HETATM   27  C           1     -20.992  -8.679   1.383  0.00  0.00     0.009 C 
ENDBRANCH  24  25
ENDBRANCH  23  24
BRANCH  23  28
HETATM   28  C           1     -21.307  -9.960  -2.026  0.00  0.00     0.196 C 
HETATM   29  O           1     -20.678 -10.920  -1.530  0.00  0.00    -0.646 OA
HETATM   30  O           1     -22.424 -10.151  -2.553  0.00  0.00    -0.646 OA
ENDBRANCH  23  28
ENDBRANCH  21  23
ENDBRANCH   1  19
TORSDOF 11
ENDMDL
MODEL 5
REMARK VINA RESULT:      -6.8      3.469      9.197
REMARK  11 active torsions:
REMARK  status: ('A' for Active; 'I' for Inactive)
REMARK    1  A    between atoms: C_2  and  C_4 
REMARK    2  A    between atoms: C_4  and  C_5 
REMARK    3  A    between atoms: C_5  and  C_28 
REMARK    4  A    between atoms: C_5  and  N_25 
REMARK    5  A    between atoms: N_10  and  C_23 
REMARK    6  A    between atoms: O_15  and  P_16 
REMARK    7  A    between atoms: P_16  and  O_17 
REMARK    8  A    between atoms: O_17  and  C_18 
REMARK    9  A    between atoms: C_21  and  C_22 
REMARK   10  A    between atoms: C_22  and  C_23 
REMARK   11  A    between atoms: C_23  and  C_24 
REMARK       I    between atoms: C_24  and  N_25 
ROOT
HETATM    1  C           1     -20.535  -7.293  -4.967  0.00  0.00     0.260 C 
ENDROOT
BRANCH   1   2
HETATM    2  N           1     -21.111  -7.707  -6.289  0.00  0.00    -0.067 N 
HETATM    3  H           1     -21.247  -6.861  -6.889  0.00  0.00     0.275 HD
HETATM    4  H           1     -20.456  -8.367  -6.763  0.00  0.00     0.275 HD
HETATM    5  H           1     -22.032  -8.176  -6.136  0.00  0.00     0.275 HD
ENDBRANCH   1   2
BRANCH   1   6
HETATM    6  C           1     -20.790  -5.809  -4.744  0.00  0.00     0.079 C 
BRANCH   6   7
HETATM    7  C           1     -21.103  -5.153  -6.053  0.00  0.00    -0.056 A 
HETATM    8  C           1     -22.415  -5.128  -6.525  0.00  0.00     0.010 A 
HETATM    9  C           1     -22.705  -4.516  -7.745  0.00  0.00     0.038 A 
HETATM   10  C           1     -21.685  -3.928  -8.491  0.00  0.00     0.081 A 
HETATM   11  C           1     -20.373  -3.953  -8.018  0.00  0.00     0.038 A 
HETATM   12  C           1     -20.081  -4.565  -6.799  0.00  0.00     0.010 A 
BRANCH  10  13
HETATM   13  O           1     -21.967  -3.334  -9.675  0.00  0.00    -0.247 OA
BRANCH  13  14
HETATM   14  P           1     -21.209  -3.875 -10.995  0.00  0.00     0.411 P 
HETATM   15  O           1     -22.208  -4.237 -12.024  0.00  0.00    -0.624 OA
HETATM   16  O           1     -20.402  -5.066 -10.646  0.00  0.00    -0.624 OA
BRANCH  14  17
HETATM   17  O           1     -20.238  -2.718 -11.569  0.00  0.00    -0.300 OA
HETATM   18  H           1     -19.731  -2.435 -10.827  0.00  0.00     0.223 HD
ENDBRANCH  14  17
ENDBRANCH  13  14
ENDBRANCH  10  13
ENDBRANCH   6   7
ENDBRANCH   1   6
BRANCH   1  19
HETATM   19  C           1     -21.189  -8.088  -3.864  0.00  0.00     0.130 C 
HETATM   20  O           1     -21.807  -9.091  -4.127  0.00  0.00    -0.397 OA
HETATM   21  N           1     -21.082  -7.670  -2.564  0.00  0.00    -0.359 N 
HETATM   22  H           1     -20.565  -6.830  -2.343  0.00  0.00     0.162 HD
BRANCH  21  23
HETATM   23  C           1     -21.711  -8.435  -1.504  0.00  0.00     0.184 C 
BRANCH  23  24
HETATM   24  C           1     -20.643  -9.156  -0.693  0.00  0.00     0.040 C 
BRANCH  24  25
HETATM   25  C           1     -20.900 -10.656  -0.734  0.00  0.00    -0.018 C 
HETATM   26  C           1     -20.957 -11.203   0.687  0.00  0.00     0.289 C 
HETATM   27  C           1     -19.774 -11.343  -1.496  0.00  0.00     0.009 C 
ENDBRANCH  24  25
ENDBRANCH  23  24
BRANCH  23  28
HETATM   28  C           1     -22.481  -7.502  -0.602  0.00  0.00     0.196 C 
HETATM   29  O           1     -23.006  -7.937   0.446  0.00  0.00    -0.646 OA
HETATM   30  O           1     -22.594  -6.294  -0.902  0.00  0.00    -0.646 OA
ENDBRANCH  23  28
ENDBRANCH  21  23
ENDBRANCH   1  19
TORSDOF 11
ENDMDL
MODEL 6
REMARK VINA RESULT:      -6.6      3.679      9.395
REMARK  11 active torsions:
REMARK  status: ('A' for Active; 'I' for Inactive)
REMARK    1  A    between atoms: C_2  and  C_4 
REMARK    2  A    between atoms: C_4  and  C_5 
REMARK    3  A    between atoms: C_5  and  C_28 
REMARK    4  A    between atoms: C_5  and  N_25 
REMARK    5  A    between atoms: N_10  and  C_23 
REMARK    6  A    between atoms: O_15  and  P_16 
REMARK    7  A    between atoms: P_16  and  O_17 
REMARK    8  A    between atoms: O_17  and  C_18 
REMARK    9  A    between atoms: C_21  and  C_22 
REMARK   10  A    between atoms: C_22  and  C_23 
REMARK   11  A    between atoms: C_23  and  C_24 
REMARK       I    between atoms: C_24  and  N_25 
ROOT
HETATM    1  C           1     -20.693  -7.685  -4.646  0.00  0.00     0.260 C 
ENDROOT
BRANCH   1   2
HETATM    2  N           1     -21.215  -8.441  -5.832  0.00  0.00    -0.067 N 
HETATM    3  H           1     -22.220  -8.195  -5.987  0.00  0.00     0.275 HD
HETATM    4  H           1     -20.660  -8.184  -6.679  0.00  0.00     0.275 HD
HETATM    5  H           1     -21.130  -9.467  -5.656  0.00  0.00     0.275 HD
ENDBRANCH   1   2
BRANCH   1   6
HETATM    6  C           1     -21.511  -6.416  -4.453  0.00  0.00     0.079 C 
BRANCH   6   7
HETATM    7  C           1     -21.429  -5.575  -5.689  0.00  0.00    -0.056 A 
HETATM    8  C           1     -22.595  -5.201  -6.358  0.00  0.00     0.010 A 
HETATM    9  C           1     -22.518  -4.418  -7.509  0.00  0.00     0.038 A 
HETATM   10  C           1     -21.276  -4.007  -7.992  0.00  0.00     0.081 A 
HETATM   11  C           1     -20.110  -4.381  -7.323  0.00  0.00     0.038 A 
HETATM   12  C           1     -20.186  -5.165  -6.171  0.00  0.00     0.010 A 
BRANCH  10  13
HETATM   13  O           1     -21.201  -3.247  -9.110  0.00  0.00    -0.247 OA
BRANCH  13  14
HETATM   14  P           1     -21.384  -3.978 -10.538  0.00  0.00     0.411 P 
HETATM   15  O           1     -20.201  -4.824 -10.814  0.00  0.00    -0.624 OA
HETATM   16  O           1     -21.521  -2.957 -11.601  0.00  0.00    -0.624 OA
BRANCH  14  17
HETATM   17  O           1     -22.709  -4.900 -10.505  0.00  0.00    -0.300 OA
HETATM   18  H           1     -23.000  -4.876  -9.609  0.00  0.00     0.223 HD
ENDBRANCH  14  17
ENDBRANCH  13  14
ENDBRANCH  10  13
ENDBRANCH   6   7
ENDBRANCH   1   6
BRANCH   1  19
HETATM   19  C           1     -20.805  -8.548  -3.413  0.00  0.00     0.130 C 
HETATM   20  O           1     -20.220  -8.239  -2.403  0.00  0.00    -0.397 OA
HETATM   21  N           1     -21.572  -9.683  -3.440  0.00  0.00    -0.359 N 
HETATM   22  H           1     -22.063  -9.943  -4.285  0.00  0.00     0.162 HD
BRANCH  21  23
HETATM   23  C           1     -21.679 -10.512  -2.254  0.00  0.00     0.184 C 
BRANCH  23  24
HETATM   24  C           1     -23.088 -11.082  -2.158  0.00  0.00     0.040 C 
BRANCH  24  25
HETATM   25  C           1     -23.674 -10.760  -0.789  0.00  0.00    -0.018 C 
HETATM   26  C           1     -22.908  -9.597  -0.169  0.00  0.00     0.289 C 
HETATM   27  C           1     -23.558 -11.981   0.112  0.00  0.00     0.009 C 
ENDBRANCH  24  25
ENDBRANCH  23  24
BRANCH  23  28
HETATM   28  C           1     -20.685 -11.643  -2.342  0.00  0.00     0.196 C 
HETATM   29  O           1     -20.354 -12.100  -3.458  0.00  0.00    -0.646 OA
HETATM   30  O           1     -20.191 -12.124  -1.300  0.00  0.00    -0.646 OA
ENDBRANCH  23  28
ENDBRANCH  21  23
ENDBRANCH   1  19
TORSDOF 11
ENDMDL
MODEL 7
REMARK VINA RESULT:      -6.6      4.322      8.733
REMARK  11 active torsions:
REMARK  status: ('A' for Active; 'I' for Inactive)
REMARK    1  A    between atoms: C_2  and  C_4 
REMARK    2  A    between atoms: C_4  and  C_5 
REMARK    3  A    between atoms: C_5  and  C_28 
REMARK    4  A    between atoms: C_5  and  N_25 
REMARK    5  A    between atoms: N_10  and  C_23 
REMARK    6  A    between atoms: O_15  and  P_16 
REMARK    7  A    between atoms: P_16  and  O_17 
REMARK    8  A    between atoms: O_17  and  C_18 
REMARK    9  A    between atoms: C_21  and  C_22 
REMARK   10  A    between atoms: C_22  and  C_23 
REMARK   11  A    between atoms: C_23  and  C_24 
REMARK       I    between atoms: C_24  and  N_25 
ROOT
HETATM    1  C           1     -21.146  -8.038  -5.188  0.00  0.00     0.260 C 
ENDROOT
BRANCH   1   2
HETATM    2  N           1     -21.694  -7.666  -3.842  0.00  0.00    -0.067 N 
HETATM    3  H           1     -21.147  -6.863  -3.454  0.00  0.00     0.275 HD
HETATM    4  H           1     -22.696  -7.390  -3.939  0.00  0.00     0.275 HD
HETATM    5  H           1     -21.616  -8.484  -3.197  0.00  0.00     0.275 HD
ENDBRANCH   1   2
BRANCH   1   6
HETATM    6  C           1     -20.132  -6.991  -5.630  0.00  0.00     0.079 C 
BRANCH   6   7
HETATM    7  C           1     -20.788  -6.023  -6.564  0.00  0.00    -0.056 A 
HETATM    8  C           1     -22.032  -5.477  -6.245  0.00  0.00     0.010 A 
HETATM    9  C           1     -22.642  -4.575  -7.115  0.00  0.00     0.038 A 
HETATM   10  C           1     -22.009  -4.216  -8.305  0.00  0.00     0.081 A 
HETATM   11  C           1     -20.766  -4.762  -8.625  0.00  0.00     0.038 A 
HETATM   12  C           1     -20.155  -5.664  -7.755  0.00  0.00     0.010 A 
BRANCH  10  13
HETATM   13  O           1     -22.603  -3.340  -9.151  0.00  0.00    -0.247 OA
BRANCH  13  14
HETATM   14  P           1     -23.344  -3.930 -10.458  0.00  0.00     0.411 P 
HETATM   15  O           1     -23.719  -5.341 -10.217  0.00  0.00    -0.624 OA
HETATM   16  O           1     -22.431  -3.852 -11.620  0.00  0.00    -0.624 OA
BRANCH  14  17
HETATM   17  O           1     -24.673  -3.064 -10.760  0.00  0.00    -0.300 OA
HETATM   18  H           1     -24.696  -2.972 -11.698  0.00  0.00     0.223 HD
ENDBRANCH  14  17
ENDBRANCH  13  14
ENDBRANCH  10  13
ENDBRANCH   6   7
ENDBRANCH   1   6
BRANCH   1  19
HETATM   19  C           1     -20.472  -9.385  -5.101  0.00  0.00     0.130 C 
HETATM   20  O           1     -21.028 -10.303  -4.548  0.00  0.00    -0.397 OA
HETATM   21  N           1     -19.229  -9.565  -5.648  0.00  0.00    -0.359 N 
HETATM   22  H           1     -18.763  -8.796  -6.111  0.00  0.00     0.162 HD
BRANCH  21  23
HETATM   23  C           1     -18.582 -10.861  -5.564  0.00  0.00     0.184 C 
BRANCH  23  24
HETATM   24  C           1     -18.429 -11.445  -6.961  0.00  0.00     0.040 C 
BRANCH  24  25
HETATM   25  C           1     -19.632 -12.322  -7.281  0.00  0.00    -0.018 C 
HETATM   26  C           1     -19.832 -13.340  -6.165  0.00  0.00     0.289 C 
HETATM   27  C           1     -19.393 -13.052  -8.596  0.00  0.00     0.009 C 
ENDBRANCH  24  25
ENDBRANCH  23  24
BRANCH  23  28
HETATM   28  C           1     -17.221 -10.701  -4.934  0.00  0.00     0.196 C 
HETATM   29  O           1     -17.009  -9.765  -4.132  0.00  0.00    -0.646 OA
HETATM   30  O           1     -16.305 -11.504  -5.212  0.00  0.00    -0.646 OA
ENDBRANCH  23  28
ENDBRANCH  21  23
ENDBRANCH   1  19
TORSDOF 11
ENDMDL
MODEL 8
REMARK VINA RESULT:      -6.3      5.677     10.913
REMARK  11 active torsions:
REMARK  status: ('A' for Active; 'I' for Inactive)
REMARK    1  A    between atoms: C_2  and  C_4 
REMARK    2  A    between atoms: C_4  and  C_5 
REMARK    3  A    between atoms: C_5  and  C_28 
REMARK    4  A    between atoms: C_5  and  N_25 
REMARK    5  A    between atoms: N_10  and  C_23 
REMARK    6  A    between atoms: O_15  and  P_16 
REMARK    7  A    between atoms: P_16  and  O_17 
REMARK    8  A    between atoms: O_17  and  C_18 
REMARK    9  A    between atoms: C_21  and  C_22 
REMARK   10  A    between atoms: C_22  and  C_23 
REMARK   11  A    between atoms: C_23  and  C_24 
REMARK       I    between atoms: C_24  and  N_25 
ROOT
HETATM    1  C           1     -22.721 -10.475  -0.333  0.00  0.00     0.260 C 
ENDROOT
BRANCH   1   2
HETATM    2  N           1     -24.121 -10.834   0.071  0.00  0.00    -0.067 N 
HETATM    3  H           1     -24.360 -11.779  -0.309  0.00  0.00     0.275 HD
HETATM    4  H           1     -24.189 -10.850   1.112  0.00  0.00     0.275 HD
HETATM    5  H           1     -24.786 -10.126  -0.313  0.00  0.00     0.275 HD
ENDBRANCH   1   2
BRANCH   1   6
HETATM    6  C           1     -22.385  -9.084   0.185  0.00  0.00     0.079 C 
BRANCH   6   7
HETATM    7  C           1     -22.002  -8.202  -0.962  0.00  0.00    -0.056 A 
HETATM    8  C           1     -22.390  -6.862  -0.972  0.00  0.00     0.010 A 
HETATM    9  C           1     -22.033  -6.040  -2.041  0.00  0.00     0.038 A 
HETATM   10  C           1     -21.287  -6.558  -3.100  0.00  0.00     0.081 A 
HETATM   11  C           1     -20.900  -7.898  -3.090  0.00  0.00     0.038 A 
HETATM   12  C           1     -21.257  -8.720  -2.021  0.00  0.00     0.010 A 
BRANCH  10  13
HETATM   13  O           1     -20.941  -5.760  -4.138  0.00  0.00    -0.247 OA
BRANCH  13  14
HETATM   14  P           1     -21.705  -5.972  -5.546  0.00  0.00     0.411 P 
HETATM   15  O           1     -21.492  -4.787  -6.406  0.00  0.00    -0.624 OA
HETATM   16  O           1     -23.153  -6.150  -5.298  0.00  0.00    -0.624 OA
BRANCH  14  17
HETATM   17  O           1     -21.120  -7.285  -6.282  0.00  0.00    -0.300 OA
HETATM   18  H           1     -20.189  -7.248  -6.143  0.00  0.00     0.223 HD
ENDBRANCH  14  17
ENDBRANCH  13  14
ENDBRANCH  10  13
ENDBRANCH   6   7
ENDBRANCH   1   6
BRANCH   1  19
HETATM   19  C           1     -21.757 -11.477   0.254  0.00  0.00     0.130 C 
HETATM   20  O           1     -20.665 -11.120   0.623  0.00  0.00    -0.397 OA
HETATM   21  N           1     -22.123 -12.793   0.367  0.00  0.00    -0.359 N 
HETATM   22  H           1     -23.038 -13.092   0.057  0.00  0.00     0.162 HD
BRANCH  21  23
HETATM   23  C           1     -21.196 -13.755   0.931  0.00  0.00     0.184 C 
BRANCH  23  24
HETATM   24  C           1     -21.911 -14.595   1.981  0.00  0.00     0.040 C 
BRANCH  24  25
HETATM   25  C           1     -23.417 -14.487   1.779  0.00  0.00    -0.018 C 
HETATM   26  C           1     -24.115 -14.513   3.134  0.00  0.00     0.289 C 
HETATM   27  C           1     -23.902 -15.659   0.937  0.00  0.00     0.009 C 
ENDBRANCH  24  25
ENDBRANCH  23  24
BRANCH  23  28
HETATM   28  C           1     -20.678 -14.654  -0.165  0.00  0.00     0.196 C 
HETATM   29  O           1     -20.910 -14.378  -1.362  0.00  0.00    -0.646 OA
HETATM   30  O           1     -20.018 -15.675   0.124  0.00  0.00    -0.646 OA
ENDBRANCH  23  28
ENDBRANCH  21  23
ENDBRANCH   1  19
TORSDOF 11
ENDMDL
MODEL 9
REMARK VINA RESULT:      -6.3      5.830      8.363
REMARK  11 active torsions:
REMARK  status: ('A' for Active; 'I' for Inactive)
REMARK    1  A    between atoms: C_2  and  C_4 
REMARK    2  A    between atoms: C_4  and  C_5 
REMARK    3  A    between atoms: C_5  and  C_28 
REMARK    4  A    between atoms: C_5  and  N_25 
REMARK    5  A    between atoms: N_10  and  C_23 
REMARK    6  A    between atoms: O_15  and  P_16 
REMARK    7  A    between atoms: P_16  and  O_17 
REMARK    8  A    between atoms: O_17  and  C_18 
REMARK    9  A    between atoms: C_21  and  C_22 
REMARK   10  A    between atoms: C_22  and  C_23 
REMARK   11  A    between atoms: C_23  and  C_24 
REMARK       I    between atoms: C_24  and  N_25 
ROOT
HETATM    1  C           1     -19.055  -9.768  -4.377  0.00  0.00     0.260 C 
ENDROOT
BRANCH   1   2
HETATM    2  N           1     -18.828  -9.207  -5.751  0.00  0.00    -0.067 N 
HETATM    3  H           1     -18.067  -9.746  -6.225  0.00  0.00     0.275 HD
HETATM    4  H           1     -19.708  -9.286  -6.307  0.00  0.00     0.275 HD
HETATM    5  H           1     -18.549  -8.203  -5.675  0.00  0.00     0.275 HD
ENDBRANCH   1   2
BRANCH   1   6
HETATM    6  C           1     -17.956  -9.281  -3.443  0.00  0.00     0.079 C 
BRANCH   6   7
HETATM    7  C           1     -17.492 -10.415  -2.582  0.00  0.00    -0.056 A 
HETATM    8  C           1     -18.420 -11.180  -1.876  0.00  0.00     0.010 A 
HETATM    9  C           1     -17.988 -12.236  -1.075  0.00  0.00     0.038 A 
HETATM   10  C           1     -16.627 -12.528  -0.979  0.00  0.00     0.081 A 
HETATM   11  C           1     -15.699 -11.763  -1.685  0.00  0.00     0.038 A 
HETATM   12  C           1     -16.131 -10.706  -2.487  0.00  0.00     0.010 A 
BRANCH  10  13
HETATM   13  O           1     -16.208 -13.554  -0.200  0.00  0.00    -0.247 OA
BRANCH  13  14
HETATM   14  P           1     -15.632 -13.205   1.267  0.00  0.00     0.411 P 
HETATM   15  O           1     -14.168 -13.420   1.287  0.00  0.00    -0.624 OA
HETATM   16  O           1     -16.275 -14.083   2.270  0.00  0.00    -0.624 OA
BRANCH  14  17
HETATM   17  O           1     -15.955 -11.662   1.619  0.00  0.00    -0.300 OA
HETATM   18  H           1     -15.882 -11.205   0.798  0.00  0.00     0.223 HD
ENDBRANCH  14  17
ENDBRANCH  13  14
ENDBRANCH  10  13
ENDBRANCH   6   7
ENDBRANCH   1   6
BRANCH   1  19
HETATM   19  C           1     -20.395  -9.305  -3.862  0.00  0.00     0.130 C 
HETATM   20  O           1     -21.411  -9.784  -4.305  0.00  0.00    -0.397 OA
HETATM   21  N           1     -20.459  -8.342  -2.890  0.00  0.00    -0.359 N 
HETATM   22  H           1     -19.608  -7.940  -2.519  0.00  0.00     0.162 HD
BRANCH  21  23
HETATM   23  C           1     -21.747  -7.897  -2.395  0.00  0.00     0.184 C 
BRANCH  23  24
HETATM   24  C           1     -21.809  -8.096  -0.886  0.00  0.00     0.040 C 
BRANCH  24  25
HETATM   25  C           1     -21.991  -9.576  -0.576  0.00  0.00    -0.018 C 
HETATM   26  C           1     -23.411  -9.822  -0.081  0.00  0.00     0.289 C 
HETATM   27  C           1     -21.000  -9.994   0.502  0.00  0.00     0.009 C 
ENDBRANCH  24  25
ENDBRANCH  23  24
BRANCH  23  28
HETATM   28  C           1     -21.931  -6.434  -2.716  0.00  0.00     0.196 C 
HETATM   29  O           1     -22.182  -5.620  -1.801  0.00  0.00    -0.646 OA
HETATM   30  O           1     -21.831  -6.036  -3.896  0.00  0.00    -0.646 OA
ENDBRANCH  23  28
ENDBRANCH  21  23
ENDBRANCH   1  19
TORSDOF 11
ENDMDL
