MODEL 1
REMARK VINA RESULT:      -5.3      0.000      0.000
REMARK  3 active torsions:
REMARK  status: ('A' for Active; 'I' for Inactive)
REMARK    1  A    between atoms: N_1  and  C_7 
REMARK    2  A    between atoms: C_7  and  C_11 
REMARK       I    between atoms: C_11  and  N_12 
REMARK    3  A    between atoms: C_13  and  C_15 
ROOT
HETATM    1  O           1     -22.410  -4.054  -7.420  0.00  0.00    -0.272 OA
HETATM    2  C           1     -20.440  -4.824 -10.347  0.00  0.00     0.127 C 
HETATM    3  C           1     -20.268  -3.673 -11.325  0.00  0.00     0.022 C 
HETATM    4  C           1     -21.580  -2.898 -11.260  0.00  0.00     0.038 C 
HETATM    5  C           1     -21.495  -4.511  -8.060  0.00  0.00     0.246 C 
HETATM    6  N           1     -21.460  -4.345  -9.419  0.00  0.00    -0.336 N 
HETATM    7  C           1     -22.435  -3.650 -10.255  0.00  0.00     0.188 C 
ENDROOT
BRANCH   5   8
HETATM    8  C           1     -20.388  -5.264  -7.364  0.00  0.00     0.332 C 
BRANCH   8   9
HETATM    9  N           1     -20.882  -6.621  -6.960  0.00  0.00    -0.071 N 
HETATM   10  H           1     -20.074  -7.280  -6.891  0.00  0.00     0.274 HD
HETATM   11  H           1     -21.357  -6.555  -6.032  0.00  0.00     0.274 HD
HETATM   12  H           1     -21.558  -6.972  -7.675  0.00  0.00     0.274 HD
ENDBRANCH   8   9
ENDBRANCH   5   8
BRANCH   7  13
HETATM   13  C           1     -23.342  -4.634 -10.952  0.00  0.00     0.196 C 
HETATM   14  O           1     -24.001  -5.459 -10.283  0.00  0.00    -0.646 OA
HETATM   15  O           1     -23.434  -4.626 -12.199  0.00  0.00    -0.646 OA
ENDBRANCH   7  13
TORSDOF 3
ENDMDL
MODEL 2
REMARK VINA RESULT:      -4.8      1.953      2.704
REMARK  3 active torsions:
REMARK  status: ('A' for Active; 'I' for Inactive)
REMARK    1  A    between atoms: N_1  and  C_7 
REMARK    2  A    between atoms: C_7  and  C_11 
REMARK       I    between atoms: C_11  and  N_12 
REMARK    3  A    between atoms: C_13  and  C_15 
ROOT
HETATM    1  O           1     -20.413  -5.881  -8.272  0.00  0.00    -0.272 OA
HETATM    2  C           1     -23.243  -3.674  -8.688  0.00  0.00     0.127 C 
HETATM    3  C           1     -24.258  -4.124  -9.726  0.00  0.00     0.022 C 
HETATM    4  C           1     -23.437  -4.805 -10.816  0.00  0.00     0.038 C 
HETATM    5  C           1     -21.322  -5.157  -7.943  0.00  0.00     0.246 C 
HETATM    6  N           1     -22.109  -4.570  -8.898  0.00  0.00    -0.336 N 
HETATM    7  C           1     -21.996  -4.702 -10.348  0.00  0.00     0.188 C 
ENDROOT
BRANCH   5   8
HETATM    8  C           1     -21.594  -4.902  -6.481  0.00  0.00     0.332 C 
BRANCH   8   9
HETATM    9  N           1     -20.293  -4.723  -5.754  0.00  0.00    -0.071 N 
HETATM   10  H           1     -20.402  -5.037  -4.763  0.00  0.00     0.274 HD
HETATM   11  H           1     -19.553  -5.294  -6.221  0.00  0.00     0.274 HD
HETATM   12  H           1     -20.021  -3.714  -5.773  0.00  0.00     0.274 HD
ENDBRANCH   8   9
ENDBRANCH   5   8
BRANCH   7  13
HETATM   13  C           1     -21.322  -3.492 -10.946  0.00  0.00     0.196 C 
HETATM   14  O           1     -20.118  -3.261 -10.699  0.00  0.00    -0.646 OA
HETATM   15  O           1     -21.966  -2.720 -11.690  0.00  0.00    -0.646 OA
ENDBRANCH   7  13
TORSDOF 3
ENDMDL
MODEL 3
REMARK VINA RESULT:      -4.8      1.909      3.821
REMARK  3 active torsions:
REMARK  status: ('A' for Active; 'I' for Inactive)
REMARK    1  A    between atoms: N_1  and  C_7 
REMARK    2  A    between atoms: C_7  and  C_11 
REMARK       I    between atoms: C_11  and  N_12 
REMARK    3  A    between atoms: C_13  and  C_15 
ROOT
HETATM    1  O           1     -23.941  -5.097  -8.889  0.00  0.00    -0.272 OA
HETATM    2  C           1     -21.583  -3.058 -10.712  0.00  0.00     0.127 C 
HETATM    3  C           1     -20.411  -3.816 -11.313  0.00  0.00     0.022 C 
HETATM    4  C           1     -20.107  -4.931 -10.318  0.00  0.00     0.038 C 
HETATM    5  C           1     -23.561  -4.243  -9.653  0.00  0.00     0.246 C 
HETATM    6  N           1     -22.220  -4.037  -9.836  0.00  0.00    -0.336 N 
HETATM    7  C           1     -21.116  -4.747  -9.198  0.00  0.00     0.188 C 
ENDROOT
BRANCH   5   8
HETATM    8  C           1     -24.564  -3.405 -10.407  0.00  0.00     0.332 C 
BRANCH   8   9
HETATM    9  N           1     -25.888  -3.453  -9.704  0.00  0.00    -0.071 N 
HETATM   10  H           1     -26.286  -4.417  -9.778  0.00  0.00     0.274 HD
HETATM   11  H           1     -25.755  -3.208  -8.697  0.00  0.00     0.274 HD
HETATM   12  H           1     -26.543  -2.771 -10.148  0.00  0.00     0.274 HD
ENDBRANCH   8   9
ENDBRANCH   5   8
BRANCH   7  13
HETATM   13  C           1     -20.528  -3.927  -8.075  0.00  0.00     0.196 C 
HETATM   14  O           1     -21.279  -3.410  -7.220  0.00  0.00    -0.646 OA
HETATM   15  O           1     -19.290  -3.767  -7.999  0.00  0.00    -0.646 OA
ENDBRANCH   7  13
TORSDOF 3
ENDMDL
MODEL 4
REMARK VINA RESULT:      -4.7      1.541      4.163
REMARK  3 active torsions:
REMARK  status: ('A' for Active; 'I' for Inactive)
REMARK    1  A    between atoms: N_1  and  C_7 
REMARK    2  A    between atoms: C_7  and  C_11 
REMARK       I    between atoms: C_11  and  N_12 
REMARK    3  A    between atoms: C_13  and  C_15 
ROOT
HETATM    1  O           1     -22.801  -5.197 -10.134  0.00  0.00    -0.272 OA
HETATM    2  C           1     -20.209  -3.649  -8.151  0.00  0.00     0.127 C 
HETATM    3  C           1     -19.166  -4.608  -7.600  0.00  0.00     0.022 C 
HETATM    4  C           1     -19.928  -5.894  -7.300  0.00  0.00     0.038 C 
HETATM    5  C           1     -21.964  -4.381  -9.832  0.00  0.00     0.246 C 
HETATM    6  N           1     -21.250  -4.529  -8.673  0.00  0.00    -0.336 N 
HETATM    7  C           1     -21.366  -5.601  -7.688  0.00  0.00     0.188 C 
ENDROOT
BRANCH   5   8
HETATM    8  C           1     -21.702  -3.198 -10.732  0.00  0.00     0.332 C 
BRANCH   8   9
HETATM    9  N           1     -21.182  -3.680 -12.054  0.00  0.00    -0.071 N 
HETATM   10  H           1     -20.980  -4.704 -11.997  0.00  0.00     0.274 HD
HETATM   11  H           1     -21.901  -3.509 -12.793  0.00  0.00     0.274 HD
HETATM   12  H           1     -20.305  -3.164 -12.292  0.00  0.00     0.274 HD
ENDBRANCH   8   9
ENDBRANCH   5   8
BRANCH   7  13
HETATM   13  C           1     -22.164  -5.147  -6.491  0.00  0.00     0.196 C 
HETATM   14  O           1     -21.729  -5.351  -5.337  0.00  0.00    -0.646 OA
HETATM   15  O           1     -23.259  -4.566  -6.653  0.00  0.00    -0.646 OA
ENDBRANCH   7  13
TORSDOF 3
ENDMDL
MODEL 5
REMARK VINA RESULT:      -4.7     16.632     17.826
REMARK  3 active torsions:
REMARK  status: ('A' for Active; 'I' for Inactive)
REMARK    1  A    between atoms: N_1  and  C_7 
REMARK    2  A    between atoms: C_7  and  C_11 
REMARK       I    between atoms: C_11  and  N_12 
REMARK    3  A    between atoms: C_13  and  C_15 
ROOT
HETATM    1  O           1     -14.681   5.329 -19.753  0.00  0.00    -0.272 OA
HETATM    2  C           1     -11.968   4.397 -21.948  0.00  0.00     0.127 C 
HETATM    3  C           1     -11.076   3.283 -21.426  0.00  0.00     0.022 C 
HETATM    4  C           1     -11.026   3.489 -19.916  0.00  0.00     0.038 C 
HETATM    5  C           1     -14.129   5.054 -20.791  0.00  0.00     0.246 C 
HETATM    6  N           1     -12.794   4.751 -20.797  0.00  0.00    -0.336 N 
HETATM    7  C           1     -11.886   4.713 -19.655  0.00  0.00     0.188 C 
ENDROOT
BRANCH   5   8
HETATM    8  C           1     -14.911   5.040 -22.082  0.00  0.00     0.332 C 
BRANCH   8   9
HETATM    9  N           1     -14.801   6.380 -22.748  0.00  0.00    -0.071 N 
HETATM   10  H           1     -15.710   6.888 -22.661  0.00  0.00     0.274 HD
HETATM   11  H           1     -14.047   6.936 -22.286  0.00  0.00     0.274 HD
HETATM   12  H           1     -14.570   6.248 -23.758  0.00  0.00     0.274 HD
ENDBRANCH   8   9
ENDBRANCH   5   8
BRANCH   7  13
HETATM   13  C           1     -11.040   5.962 -19.600  0.00  0.00     0.196 C 
HETATM   14  O           1     -11.584   7.087 -19.617  0.00  0.00    -0.646 OA
HETATM   15  O           1      -9.794   5.871 -19.537  0.00  0.00    -0.646 OA
ENDBRANCH   7  13
TORSDOF 3
ENDMDL
MODEL 6
REMARK VINA RESULT:      -4.6     17.209     18.618
REMARK  3 active torsions:
REMARK  status: ('A' for Active; 'I' for Inactive)
REMARK    1  A    between atoms: N_1  and  C_7 
REMARK    2  A    between atoms: C_7  and  C_11 
REMARK       I    between atoms: C_11  and  N_12 
REMARK    3  A    between atoms: C_13  and  C_15 
ROOT
HETATM    1  O           1     -12.899   8.368 -19.213  0.00  0.00    -0.272 OA
HETATM    2  C           1     -10.735   6.622 -21.517  0.00  0.00     0.127 C 
HETATM    3  C           1     -11.407   6.156 -22.798  0.00  0.00     0.022 C 
HETATM    4  C           1     -12.828   5.785 -22.389  0.00  0.00     0.038 C 
HETATM    5  C           1     -11.902   8.143 -19.854  0.00  0.00     0.246 C 
HETATM    6  N           1     -11.848   7.048 -20.674  0.00  0.00    -0.336 N 
HETATM    7  C           1     -12.892   6.051 -20.895  0.00  0.00     0.188 C 
ENDROOT
BRANCH   5   8
HETATM    8  C           1     -10.714   9.070 -19.754  0.00  0.00     0.332 C 
BRANCH   8   9
HETATM    9  N           1     -10.115   8.969 -18.383  0.00  0.00    -0.071 N 
HETATM   10  H           1     -10.809   9.296 -17.674  0.00  0.00     0.274 HD
HETATM   11  H           1      -9.860   7.974 -18.188  0.00  0.00     0.274 HD
HETATM   12  H           1      -9.258   9.565 -18.333  0.00  0.00     0.274 HD
ENDBRANCH   8   9
ENDBRANCH   5   8
BRANCH   7  13
HETATM   13  C           1     -12.607   4.793 -20.113  0.00  0.00     0.196 C 
HETATM   14  O           1     -12.148   4.869 -18.953  0.00  0.00    -0.646 OA
HETATM   15  O           1     -12.830   3.674 -20.624  0.00  0.00    -0.646 OA
ENDBRANCH   7  13
TORSDOF 3
ENDMDL
MODEL 7
REMARK VINA RESULT:      -4.5      8.850     10.857
REMARK  3 active torsions:
REMARK  status: ('A' for Active; 'I' for Inactive)
REMARK    1  A    between atoms: N_1  and  C_7 
REMARK    2  A    between atoms: C_7  and  C_11 
REMARK       I    between atoms: C_11  and  N_12 
REMARK    3  A    between atoms: C_13  and  C_15 
ROOT
HETATM    1  O           1     -22.314  -7.420   0.107  0.00  0.00    -0.272 OA
HETATM    2  C           1     -21.973 -10.125  -2.264  0.00  0.00     0.127 C 
HETATM    3  C           1     -23.136 -11.103  -2.290  0.00  0.00     0.022 C 
HETATM    4  C           1     -23.622 -11.182  -0.847  0.00  0.00     0.038 C 
HETATM    5  C           1     -22.058  -7.959  -0.943  0.00  0.00     0.246 C 
HETATM    6  N           1     -22.229  -9.310  -1.079  0.00  0.00    -0.336 N 
HETATM    7  C           1     -22.707 -10.252  -0.070  0.00  0.00     0.188 C 
ENDROOT
BRANCH   5   8
HETATM    8  C           1     -21.551  -7.142  -2.107  0.00  0.00     0.332 C 
BRANCH   8   9
HETATM    9  N           1     -22.369  -5.892  -2.235  0.00  0.00    -0.071 N 
HETATM   10  H           1     -22.052  -5.193  -1.526  0.00  0.00     0.274 HD
HETATM   11  H           1     -22.247  -5.494  -3.194  0.00  0.00     0.274 HD
HETATM   12  H           1     -23.377  -6.118  -2.076  0.00  0.00     0.274 HD
ENDBRANCH   8   9
ENDBRANCH   5   8
BRANCH   7  13
HETATM   13  C           1     -21.557 -11.015   0.539  0.00  0.00     0.196 C 
HETATM   14  O           1     -21.597 -12.263   0.600  0.00  0.00    -0.646 OA
HETATM   15  O           1     -20.563 -10.400   0.984  0.00  0.00    -0.646 OA
ENDBRANCH   7  13
TORSDOF 3
ENDMDL
MODEL 8
REMARK VINA RESULT:      -4.5      7.481     10.031
REMARK  3 active torsions:
REMARK  status: ('A' for Active; 'I' for Inactive)
REMARK    1  A    between atoms: N_1  and  C_7 
REMARK    2  A    between atoms: C_7  and  C_11 
REMARK       I    between atoms: C_11  and  N_12 
REMARK    3  A    between atoms: C_13  and  C_15 
ROOT
HETATM    1  O           1     -20.303  -8.205  -3.082  0.00  0.00    -0.272 OA
HETATM    2  C           1     -22.542  -7.543  -0.326  0.00  0.00     0.127 C 
HETATM    3  C           1     -22.019  -7.961   1.038  0.00  0.00     0.022 C 
HETATM    4  C           1     -21.202  -9.223   0.781  0.00  0.00     0.038 C 
HETATM    5  C           1     -21.085  -7.583  -2.404  0.00  0.00     0.246 C 
HETATM    6  N           1     -21.594  -8.141  -1.262  0.00  0.00    -0.336 N 
HETATM    7  C           1     -21.308  -9.465  -0.714  0.00  0.00     0.188 C 
ENDROOT
BRANCH   5   8
HETATM    8  C           1     -21.499  -6.191  -2.813  0.00  0.00     0.332 C 
BRANCH   8   9
HETATM    9  N           1     -22.218  -6.249  -4.128  0.00  0.00    -0.071 N 
HETATM   10  H           1     -23.088  -6.819  -4.026  0.00  0.00     0.274 HD
HETATM   11  H           1     -22.470  -5.281  -4.429  0.00  0.00     0.274 HD
HETATM   12  H           1     -21.596  -6.687  -4.845  0.00  0.00     0.274 HD
ENDBRANCH   8   9
ENDBRANCH   5   8
BRANCH   7  13
HETATM   13  C           1     -22.427 -10.427  -1.026  0.00  0.00     0.196 C 
HETATM   14  O           1     -22.776 -10.618  -2.211  0.00  0.00    -0.646 OA
HETATM   15  O           1     -23.005 -11.036  -0.099  0.00  0.00    -0.646 OA
ENDBRANCH   7  13
TORSDOF 3
ENDMDL
MODEL 9
REMARK VINA RESULT:      -4.4      2.063      2.933
REMARK  3 active torsions:
REMARK  status: ('A' for Active; 'I' for Inactive)
REMARK    1  A    between atoms: N_1  and  C_7 
REMARK    2  A    between atoms: C_7  and  C_11 
REMARK       I    between atoms: C_11  and  N_12 
REMARK    3  A    between atoms: C_13  and  C_15 
ROOT
HETATM    1  O           1     -23.303  -4.847  -6.213  0.00  0.00    -0.272 OA
HETATM    2  C           1     -20.008  -5.806  -7.343  0.00  0.00     0.127 C 
HETATM    3  C           1     -19.039  -4.653  -7.541  0.00  0.00     0.022 C 
HETATM    4  C           1     -19.896  -3.494  -8.039  0.00  0.00     0.038 C 
HETATM    5  C           1     -22.282  -5.491  -6.260  0.00  0.00     0.246 C 
HETATM    6  N           1     -21.298  -5.149  -7.148  0.00  0.00    -0.336 N 
HETATM    7  C           1     -21.308  -4.047  -8.107  0.00  0.00     0.188 C 
ENDROOT
BRANCH   5   8
HETATM    8  C           1     -22.090  -6.671  -5.339  0.00  0.00     0.332 C 
BRANCH   8   9
HETATM    9  N           1     -22.114  -6.202  -3.914  0.00  0.00    -0.071 N 
HETATM   10  H           1     -21.949  -7.015  -3.277  0.00  0.00     0.274 HD
HETATM   11  H           1     -21.363  -5.490  -3.770  0.00  0.00     0.274 HD
HETATM   12  H           1     -23.045  -5.777  -3.703  0.00  0.00     0.274 HD
ENDBRANCH   8   9
ENDBRANCH   5   8
BRANCH   7  13
HETATM   13  C           1     -21.623  -4.548  -9.495  0.00  0.00     0.196 C 
HETATM   14  O           1     -20.754  -4.490 -10.392  0.00  0.00    -0.646 OA
HETATM   15  O           1     -22.752  -5.021  -9.749  0.00  0.00    -0.646 OA
ENDBRANCH   7  13
TORSDOF 3
ENDMDL
