MODEL 1
REMARK VINA RESULT:      -6.4      0.000      0.000
REMARK  8 active torsions:
REMARK  status: ('A' for Active; 'I' for Inactive)
REMARK    1  A    between atoms: N_1  and  C_11 
REMARK       I    between atoms: N_1  and  C_2 
REMARK    2  A    between atoms: C_2  and  C_3 
REMARK    3  A    between atoms: C_3  and  C_4 
REMARK    4  A    between atoms: C_3  and  N_8 
REMARK    5  A    between atoms: C_4  and  C_5 
REMARK       I    between atoms: C_5  and  N_6 
REMARK    6  A    between atoms: C_9  and  O_10 
REMARK    7  A    between atoms: C_9  and  C_11 
REMARK    8  A    between atoms: C_11  and  C_12 
ROOT
HETATM    1  N           1     -22.158  -4.803  -9.063  0.00  0.00    -0.343 N 
HETATM    2  C           1     -21.706  -4.566  -7.793  0.00  0.00     0.249 C 
HETATM    3  O           1     -21.679  -3.438  -7.361  0.00  0.00    -0.271 OA
HETATM    4  H           1     -22.180  -5.747  -9.425  0.00  0.00     0.163 HD
ENDROOT
BRANCH   2   5
HETATM    5  C           1     -21.239  -5.714  -6.932  0.00  0.00     0.283 C 
BRANCH   5   6
HETATM    6  C           1     -21.044  -5.230  -5.502  0.00  0.00     0.145 C 
BRANCH   6   7
HETATM    7  C           1     -21.332  -6.360  -4.544  0.00  0.00     0.217 C 
HETATM    8  N           1     -21.961  -6.107  -3.355  0.00  0.00    -0.370 N 
HETATM    9  H           1     -22.154  -6.864  -2.713  0.00  0.00     0.159 HD
HETATM   10  H           1     -22.232  -5.161  -3.118  0.00  0.00     0.159 HD
HETATM   11  O           1     -21.009  -7.490  -4.828  0.00  0.00    -0.274 OA
ENDBRANCH   6   7
ENDBRANCH   5   6
BRANCH   5  12
HETATM   12  N           1     -19.940  -6.242  -7.463  0.00  0.00    -0.066 N 
HETATM   13  H           1     -20.082  -7.206  -7.840  0.00  0.00     0.275 HD
HETATM   14  H           1     -19.597  -5.617  -8.228  0.00  0.00     0.275 HD
HETATM   15  H           1     -19.234  -6.269  -6.693  0.00  0.00     0.275 HD
ENDBRANCH   5  12
ENDBRANCH   2   5
BRANCH   1  16
HETATM   16  C           1     -22.606  -3.699  -9.891  0.00  0.00     0.214 C 
BRANCH  16  17
HETATM   17  C           1     -21.811  -3.685 -11.190  0.00  0.00     0.147 C 
HETATM   18  C           1     -20.433  -4.287 -10.949  0.00  0.00     0.042 C 
BRANCH  17  19
HETATM   19  O           1     -22.487  -4.439 -12.160  0.00  0.00    -0.393 OA
HETATM   20  H           1     -23.167  -4.913 -11.712  0.00  0.00     0.210 HD
ENDBRANCH  17  19
ENDBRANCH  16  17
BRANCH  16  21
HETATM   21  C           1     -24.073  -3.868 -10.201  0.00  0.00     0.199 C 
HETATM   22  O           1     -24.705  -2.943 -10.756  0.00  0.00    -0.646 OA
HETATM   23  O           1     -24.657  -4.933  -9.903  0.00  0.00    -0.646 OA
ENDBRANCH  16  21
ENDBRANCH   1  16
TORSDOF 8
ENDMDL
MODEL 2
REMARK VINA RESULT:      -6.0     10.958     12.890
REMARK  8 active torsions:
REMARK  status: ('A' for Active; 'I' for Inactive)
REMARK    1  A    between atoms: N_1  and  C_11 
REMARK       I    between atoms: N_1  and  C_2 
REMARK    2  A    between atoms: C_2  and  C_3 
REMARK    3  A    between atoms: C_3  and  C_4 
REMARK    4  A    between atoms: C_3  and  N_8 
REMARK    5  A    between atoms: C_4  and  C_5 
REMARK       I    between atoms: C_5  and  N_6 
REMARK    6  A    between atoms: C_9  and  O_10 
REMARK    7  A    between atoms: C_9  and  C_11 
REMARK    8  A    between atoms: C_11  and  C_12 
ROOT
HETATM    1  N           1     -27.028  -6.362 -18.335  0.00  0.00    -0.343 N 
HETATM    2  C           1     -26.540  -6.357 -19.613  0.00  0.00     0.249 C 
HETATM    3  O           1     -27.212  -5.913 -20.515  0.00  0.00    -0.271 OA
HETATM    4  H           1     -26.466  -6.734 -17.580  0.00  0.00     0.163 HD
ENDROOT
BRANCH   2   5
HETATM    5  C           1     -25.165  -6.908 -19.899  0.00  0.00     0.283 C 
BRANCH   5   6
HETATM    6  C           1     -25.270  -8.038 -20.913  0.00  0.00     0.145 C 
BRANCH   6   7
HETATM    7  C           1     -23.990  -8.123 -21.707  0.00  0.00     0.217 C 
HETATM    8  N           1     -22.942  -8.869 -21.239  0.00  0.00    -0.370 N 
HETATM    9  H           1     -22.083  -8.926 -21.771  0.00  0.00     0.159 HD
HETATM   10  H           1     -23.026  -9.363 -20.359  0.00  0.00     0.159 HD
HETATM   11  O           1     -23.890  -7.533 -22.757  0.00  0.00    -0.274 OA
ENDBRANCH   6   7
ENDBRANCH   5   6
BRANCH   5  12
HETATM   12  N           1     -24.562  -7.431 -18.628  0.00  0.00    -0.066 N 
HETATM   13  H           1     -23.522  -7.341 -18.673  0.00  0.00     0.275 HD
HETATM   14  H           1     -24.924  -6.879 -17.818  0.00  0.00     0.275 HD
HETATM   15  H           1     -24.820  -8.436 -18.509  0.00  0.00     0.275 HD
ENDBRANCH   5  12
ENDBRANCH   2   5
BRANCH   1  16
HETATM   16  C           1     -28.350  -5.833 -18.061  0.00  0.00     0.214 C 
BRANCH  16  17
HETATM   17  C           1     -29.198  -6.907 -17.391  0.00  0.00     0.147 C 
HETATM   18  C           1     -29.851  -7.776 -18.458  0.00  0.00     0.042 C 
BRANCH  17  19
HETATM   19  O           1     -28.382  -7.704 -16.575  0.00  0.00    -0.393 OA
HETATM   20  H           1     -27.725  -8.084 -17.133  0.00  0.00     0.210 HD
ENDBRANCH  17  19
ENDBRANCH  16  17
BRANCH  16  21
HETATM   21  C           1     -28.234  -4.640 -17.145  0.00  0.00     0.199 C 
HETATM   22  O           1     -27.596  -4.734 -16.075  0.00  0.00    -0.646 OA
HETATM   23  O           1     -28.775  -3.557 -17.457  0.00  0.00    -0.646 OA
ENDBRANCH  16  21
ENDBRANCH   1  16
TORSDOF 8
ENDMDL
MODEL 3
REMARK VINA RESULT:      -5.3     10.542     12.096
REMARK  8 active torsions:
REMARK  status: ('A' for Active; 'I' for Inactive)
REMARK    1  A    between atoms: N_1  and  C_11 
REMARK       I    between atoms: N_1  and  C_2 
REMARK    2  A    between atoms: C_2  and  C_3 
REMARK    3  A    between atoms: C_3  and  C_4 
REMARK    4  A    between atoms: C_3  and  N_8 
REMARK    5  A    between atoms: C_4  and  C_5 
REMARK       I    between atoms: C_5  and  N_6 
REMARK    6  A    between atoms: C_9  and  O_10 
REMARK    7  A    between atoms: C_9  and  C_11 
REMARK    8  A    between atoms: C_11  and  C_12 
ROOT
HETATM    1  N           1     -27.179  -6.652 -18.292  0.00  0.00    -0.343 N 
HETATM    2  C           1     -26.764  -6.661 -19.597  0.00  0.00     0.249 C 
HETATM    3  O           1     -27.372  -6.031 -20.429  0.00  0.00    -0.271 OA
HETATM    4  H           1     -26.670  -7.180 -17.596  0.00  0.00     0.163 HD
ENDROOT
BRANCH   2   5
HETATM    5  C           1     -25.548  -7.460 -19.996  0.00  0.00     0.283 C 
BRANCH   5   6
HETATM    6  C           1     -24.298  -6.609 -19.816  0.00  0.00     0.145 C 
BRANCH   6   7
HETATM    7  C           1     -23.594  -7.011 -18.544  0.00  0.00     0.217 C 
HETATM    8  N           1     -22.277  -7.384 -18.579  0.00  0.00    -0.370 N 
HETATM    9  H           1     -21.805  -7.654 -17.726  0.00  0.00     0.159 HD
HETATM   10  H           1     -21.776  -7.390 -19.458  0.00  0.00     0.159 HD
HETATM   11  O           1     -24.192  -7.003 -17.494  0.00  0.00    -0.274 OA
ENDBRANCH   6   7
ENDBRANCH   5   6
BRANCH   5  12
HETATM   12  N           1     -25.669  -7.872 -21.433  0.00  0.00    -0.066 N 
HETATM   13  H           1     -24.874  -7.472 -21.980  0.00  0.00     0.275 HD
HETATM   14  H           1     -25.647  -8.915 -21.500  0.00  0.00     0.275 HD
HETATM   15  H           1     -26.573  -7.517 -21.821  0.00  0.00     0.275 HD
ENDBRANCH   5  12
ENDBRANCH   2   5
BRANCH   1  16
HETATM   16  C           1     -28.348  -5.885 -17.909  0.00  0.00     0.214 C 
BRANCH  16  17
HETATM   17  C           1     -29.382  -6.814 -17.286  0.00  0.00     0.147 C 
HETATM   18  C           1     -30.199  -7.475 -18.388  0.00  0.00     0.042 C 
BRANCH  17  19
HETATM   19  O           1     -28.730  -7.799 -16.531  0.00  0.00    -0.393 OA
HETATM   20  H           1     -29.367  -8.468 -16.345  0.00  0.00     0.210 HD
ENDBRANCH  17  19
ENDBRANCH  16  17
BRANCH  16  21
HETATM   21  C           1     -27.950  -4.830 -16.906  0.00  0.00     0.199 C 
HETATM   22  O           1     -27.262  -5.142 -15.911  0.00  0.00    -0.646 OA
HETATM   23  O           1     -28.306  -3.643 -17.072  0.00  0.00    -0.646 OA
ENDBRANCH  16  21
ENDBRANCH   1  16
TORSDOF 8
ENDMDL
MODEL 4
REMARK VINA RESULT:      -5.2      1.932      6.323
REMARK  8 active torsions:
REMARK  status: ('A' for Active; 'I' for Inactive)
REMARK    1  A    between atoms: N_1  and  C_11 
REMARK       I    between atoms: N_1  and  C_2 
REMARK    2  A    between atoms: C_2  and  C_3 
REMARK    3  A    between atoms: C_3  and  C_4 
REMARK    4  A    between atoms: C_3  and  N_8 
REMARK    5  A    between atoms: C_4  and  C_5 
REMARK       I    between atoms: C_5  and  N_6 
REMARK    6  A    between atoms: C_9  and  O_10 
REMARK    7  A    between atoms: C_9  and  C_11 
REMARK    8  A    between atoms: C_11  and  C_12 
ROOT
HETATM    1  N           1     -21.260  -6.321  -6.478  0.00  0.00    -0.343 N 
HETATM    2  C           1     -20.996  -5.089  -7.013  0.00  0.00     0.249 C 
HETATM    3  O           1     -20.301  -4.305  -6.411  0.00  0.00    -0.271 OA
HETATM    4  H           1     -21.842  -6.977  -6.982  0.00  0.00     0.163 HD
ENDROOT
BRANCH   2   5
HETATM    5  C           1     -21.574  -4.708  -8.354  0.00  0.00     0.283 C 
BRANCH   5   6
HETATM    6  C           1     -20.448  -4.317  -9.301  0.00  0.00     0.145 C 
BRANCH   6   7
HETATM    7  C           1     -21.015  -4.047 -10.673  0.00  0.00     0.217 C 
HETATM    8  N           1     -20.388  -3.165 -11.511  0.00  0.00    -0.370 N 
HETATM    9  H           1     -20.768  -2.984 -12.431  0.00  0.00     0.159 HD
HETATM   10  H           1     -19.544  -2.694 -11.211  0.00  0.00     0.159 HD
HETATM   11  O           1     -22.022  -4.611 -11.032  0.00  0.00    -0.274 OA
ENDBRANCH   6   7
ENDBRANCH   5   6
BRANCH   5  12
HETATM   12  N           1     -22.510  -3.549  -8.184  0.00  0.00    -0.066 N 
HETATM   13  H           1     -23.195  -3.761  -7.425  0.00  0.00     0.275 HD
HETATM   14  H           1     -21.963  -2.695  -7.930  0.00  0.00     0.275 HD
HETATM   15  H           1     -23.022  -3.381  -9.080  0.00  0.00     0.275 HD
ENDBRANCH   5  12
ENDBRANCH   2   5
BRANCH   1  16
HETATM   16  C           1     -20.705  -6.685  -5.189  0.00  0.00     0.214 C 
BRANCH  16  17
HETATM   17  C           1     -21.828  -6.793  -4.165  0.00  0.00     0.147 C 
HETATM   18  C           1     -21.426  -6.060  -2.892  0.00  0.00     0.042 C 
BRANCH  17  19
HETATM   19  O           1     -22.994  -6.216  -4.689  0.00  0.00    -0.393 OA
HETATM   20  H           1     -23.420  -5.768  -3.979  0.00  0.00     0.210 HD
ENDBRANCH  17  19
ENDBRANCH  16  17
BRANCH  16  21
HETATM   21  C           1     -20.000  -8.015  -5.304  0.00  0.00     0.199 C 
HETATM   22  O           1     -19.110  -8.178  -6.166  0.00  0.00    -0.646 OA
HETATM   23  O           1     -20.305  -8.953  -4.536  0.00  0.00    -0.646 OA
ENDBRANCH  16  21
ENDBRANCH   1  16
TORSDOF 8
ENDMDL
MODEL 5
REMARK VINA RESULT:      -5.1      2.182      6.545
REMARK  8 active torsions:
REMARK  status: ('A' for Active; 'I' for Inactive)
REMARK    1  A    between atoms: N_1  and  C_11 
REMARK       I    between atoms: N_1  and  C_2 
REMARK    2  A    between atoms: C_2  and  C_3 
REMARK    3  A    between atoms: C_3  and  C_4 
REMARK    4  A    between atoms: C_3  and  N_8 
REMARK    5  A    between atoms: C_4  and  C_5 
REMARK       I    between atoms: C_5  and  N_6 
REMARK    6  A    between atoms: C_9  and  O_10 
REMARK    7  A    between atoms: C_9  and  C_11 
REMARK    8  A    between atoms: C_11  and  C_12 
ROOT
HETATM    1  N           1     -20.967  -6.538  -4.760  0.00  0.00    -0.343 N 
HETATM    2  C           1     -21.772  -5.769  -5.556  0.00  0.00     0.249 C 
HETATM    3  O           1     -22.973  -5.887  -5.493  0.00  0.00    -0.271 OA
HETATM    4  H           1     -19.961  -6.439  -4.812  0.00  0.00     0.163 HD
ENDROOT
BRANCH   2   5
HETATM    5  C           1     -21.161  -4.777  -6.514  0.00  0.00     0.283 C 
BRANCH   5   6
HETATM    6  C           1     -21.506  -5.171  -7.944  0.00  0.00     0.145 C 
BRANCH   6   7
HETATM    7  C           1     -22.507  -4.193  -8.508  0.00  0.00     0.217 C 
HETATM    8  N           1     -23.759  -4.103  -7.962  0.00  0.00    -0.370 N 
HETATM    9  H           1     -24.430  -3.448  -8.340  0.00  0.00     0.159 HD
HETATM   10  H           1     -24.014  -4.693  -7.180  0.00  0.00     0.159 HD
HETATM   11  O           1     -22.203  -3.489  -9.442  0.00  0.00    -0.274 OA
ENDBRANCH   6   7
ENDBRANCH   5   6
BRANCH   5  12
HETATM   12  N           1     -19.671  -4.769  -6.343  0.00  0.00    -0.066 N 
HETATM   13  H           1     -19.258  -3.997  -6.914  0.00  0.00     0.275 HD
HETATM   14  H           1     -19.437  -4.620  -5.336  0.00  0.00     0.275 HD
HETATM   15  H           1     -19.279  -5.685  -6.661  0.00  0.00     0.275 HD
ENDBRANCH   5  12
ENDBRANCH   2   5
BRANCH   1  16
HETATM   16  C           1     -21.554  -7.492  -3.840  0.00  0.00     0.214 C 
BRANCH  16  17
HETATM   17  C           1     -20.764  -8.794  -3.885  0.00  0.00     0.147 C 
HETATM   18  C           1     -21.174  -9.593  -5.115  0.00  0.00     0.042 C 
BRANCH  17  19
HETATM   19  O           1     -19.393  -8.505  -3.951  0.00  0.00    -0.393 OA
HETATM   20  H           1     -19.314  -7.568  -4.019  0.00  0.00     0.210 HD
ENDBRANCH  17  19
ENDBRANCH  16  17
BRANCH  16  21
HETATM   21  C           1     -21.516  -6.929  -2.440  0.00  0.00     0.199 C 
HETATM   22  O           1     -22.214  -5.935  -2.148  0.00  0.00    -0.646 OA
HETATM   23  O           1     -20.788  -7.459  -1.573  0.00  0.00    -0.646 OA
ENDBRANCH  16  21
ENDBRANCH   1  16
TORSDOF 8
ENDMDL
MODEL 6
REMARK VINA RESULT:      -5.0      1.294      2.067
REMARK  8 active torsions:
REMARK  status: ('A' for Active; 'I' for Inactive)
REMARK    1  A    between atoms: N_1  and  C_11 
REMARK       I    between atoms: N_1  and  C_2 
REMARK    2  A    between atoms: C_2  and  C_3 
REMARK    3  A    between atoms: C_3  and  C_4 
REMARK    4  A    between atoms: C_3  and  N_8 
REMARK    5  A    between atoms: C_4  and  C_5 
REMARK       I    between atoms: C_5  and  N_6 
REMARK    6  A    between atoms: C_9  and  O_10 
REMARK    7  A    between atoms: C_9  and  C_11 
REMARK    8  A    between atoms: C_11  and  C_12 
ROOT
HETATM    1  N           1     -22.580  -4.571  -8.785  0.00  0.00    -0.343 N 
HETATM    2  C           1     -22.127  -4.110  -7.578  0.00  0.00     0.249 C 
HETATM    3  O           1     -22.012  -2.922  -7.390  0.00  0.00    -0.271 OA
HETATM    4  H           1     -22.676  -5.566  -8.942  0.00  0.00     0.163 HD
ENDROOT
BRANCH   2   5
HETATM    5  C           1     -21.770  -5.085  -6.483  0.00  0.00     0.283 C 
BRANCH   5   6
HETATM    6  C           1     -21.116  -6.318  -7.093  0.00  0.00     0.145 C 
BRANCH   6   7
HETATM    7  C           1     -19.621  -6.238  -6.910  0.00  0.00     0.217 C 
HETATM    8  N           1     -18.981  -5.032  -7.018  0.00  0.00    -0.370 N 
HETATM    9  H           1     -17.978  -4.978  -6.895  0.00  0.00     0.159 HD
HETATM   10  H           1     -19.512  -4.194  -7.220  0.00  0.00     0.159 HD
HETATM   11  O           1     -18.988  -7.238  -6.667  0.00  0.00    -0.274 OA
ENDBRANCH   6   7
ENDBRANCH   5   6
BRANCH   5  12
HETATM   12  N           1     -23.013  -5.490  -5.749  0.00  0.00    -0.066 N 
HETATM   13  H           1     -22.838  -5.453  -4.719  0.00  0.00     0.275 HD
HETATM   14  H           1     -23.791  -4.836  -5.993  0.00  0.00     0.275 HD
HETATM   15  H           1     -23.277  -6.464  -6.022  0.00  0.00     0.275 HD
ENDBRANCH   5  12
ENDBRANCH   2   5
BRANCH   1  16
HETATM   16  C           1     -22.922  -3.634  -9.837  0.00  0.00     0.214 C 
BRANCH  16  17
HETATM   17  C           1     -21.987  -3.837 -11.022  0.00  0.00     0.147 C 
HETATM   18  C           1     -20.706  -4.512 -10.547  0.00  0.00     0.042 C 
BRANCH  17  19
HETATM   19  O           1     -22.615  -4.647 -11.979  0.00  0.00    -0.393 OA
HETATM   20  H           1     -22.100  -5.432 -12.053  0.00  0.00     0.210 HD
ENDBRANCH  17  19
ENDBRANCH  16  17
BRANCH  16  21
HETATM   21  C           1     -24.347  -3.870 -10.274  0.00  0.00     0.199 C 
HETATM   22  O           1     -24.945  -4.910  -9.925  0.00  0.00    -0.646 OA
HETATM   23  O           1     -24.931  -3.022 -10.985  0.00  0.00    -0.646 OA
ENDBRANCH  16  21
ENDBRANCH   1  16
TORSDOF 8
ENDMDL
MODEL 7
REMARK VINA RESULT:      -5.0     10.302     12.857
REMARK  8 active torsions:
REMARK  status: ('A' for Active; 'I' for Inactive)
REMARK    1  A    between atoms: N_1  and  C_11 
REMARK       I    between atoms: N_1  and  C_2 
REMARK    2  A    between atoms: C_2  and  C_3 
REMARK    3  A    between atoms: C_3  and  C_4 
REMARK    4  A    between atoms: C_3  and  N_8 
REMARK    5  A    between atoms: C_4  and  C_5 
REMARK       I    between atoms: C_5  and  N_6 
REMARK    6  A    between atoms: C_9  and  O_10 
REMARK    7  A    between atoms: C_9  and  C_11 
REMARK    8  A    between atoms: C_11  and  C_12 
ROOT
HETATM    1  N           1     -27.301  -6.975 -18.283  0.00  0.00    -0.343 N 
HETATM    2  C           1     -27.246  -6.278 -19.460  0.00  0.00     0.249 C 
HETATM    3  O           1     -27.944  -5.304 -19.619  0.00  0.00    -0.271 OA
HETATM    4  H           1     -26.717  -7.790 -18.150  0.00  0.00     0.163 HD
ENDROOT
BRANCH   2   5
HETATM    5  C           1     -26.315  -6.726 -20.560  0.00  0.00     0.283 C 
BRANCH   5   6
HETATM    6  C           1     -25.116  -7.440 -19.952  0.00  0.00     0.145 C 
BRANCH   6   7
HETATM    7  C           1     -24.320  -8.109 -21.045  0.00  0.00     0.217 C 
HETATM    8  N           1     -23.111  -8.682 -20.760  0.00  0.00    -0.370 N 
HETATM    9  H           1     -22.577  -9.131 -21.493  0.00  0.00     0.159 HD
HETATM   10  H           1     -22.750  -8.658 -19.815  0.00  0.00     0.159 HD
HETATM   11  O           1     -24.752  -8.139 -22.174  0.00  0.00    -0.274 OA
ENDBRANCH   6   7
ENDBRANCH   5   6
BRANCH   5  12
HETATM   12  N           1     -25.846  -5.532 -21.336  0.00  0.00    -0.066 N 
HETATM   13  H           1     -25.738  -5.790 -22.343  0.00  0.00     0.275 HD
HETATM   14  H           1     -26.547  -4.762 -21.248  0.00  0.00     0.275 HD
HETATM   15  H           1     -24.926  -5.211 -20.958  0.00  0.00     0.275 HD
ENDBRANCH   5  12
ENDBRANCH   2   5
BRANCH   1  16
HETATM   16  C           1     -28.196  -6.544 -17.227  0.00  0.00     0.214 C 
BRANCH  16  17
HETATM   17  C           1     -29.435  -7.430 -17.219  0.00  0.00     0.147 C 
HETATM   18  C           1     -30.663  -6.588 -17.538  0.00  0.00     0.042 C 
BRANCH  17  19
HETATM   19  O           1     -29.295  -8.437 -18.184  0.00  0.00    -0.393 OA
HETATM   20  H           1     -30.005  -9.043 -18.053  0.00  0.00     0.210 HD
ENDBRANCH  17  19
ENDBRANCH  16  17
BRANCH  16  21
HETATM   21  C           1     -27.491  -6.652 -15.896  0.00  0.00     0.199 C 
HETATM   22  O           1     -26.511  -5.919 -15.647  0.00  0.00    -0.646 OA
HETATM   23  O           1     -27.890  -7.476 -15.043  0.00  0.00    -0.646 OA
ENDBRANCH  16  21
ENDBRANCH   1  16
TORSDOF 8
ENDMDL
MODEL 8
REMARK VINA RESULT:      -4.9      1.890      3.180
REMARK  8 active torsions:
REMARK  status: ('A' for Active; 'I' for Inactive)
REMARK    1  A    between atoms: N_1  and  C_11 
REMARK       I    between atoms: N_1  and  C_2 
REMARK    2  A    between atoms: C_2  and  C_3 
REMARK    3  A    between atoms: C_3  and  C_4 
REMARK    4  A    between atoms: C_3  and  N_8 
REMARK    5  A    between atoms: C_4  and  C_5 
REMARK       I    between atoms: C_5  and  N_6 
REMARK    6  A    between atoms: C_9  and  O_10 
REMARK    7  A    between atoms: C_9  and  C_11 
REMARK    8  A    between atoms: C_11  and  C_12 
ROOT
HETATM    1  N           1     -21.977  -4.851  -7.326  0.00  0.00    -0.343 N 
HETATM    2  C           1     -21.337  -5.861  -6.661  0.00  0.00     0.249 C 
HETATM    3  O           1     -20.740  -6.710  -7.281  0.00  0.00    -0.271 OA
HETATM    4  H           1     -22.477  -4.141  -6.807  0.00  0.00     0.163 HD
ENDROOT
BRANCH   2   5
HETATM    5  C           1     -21.378  -5.918  -5.154  0.00  0.00     0.283 C 
BRANCH   5   6
HETATM    6  C           1     -20.396  -6.970  -4.658  0.00  0.00     0.145 C 
BRANCH   6   7
HETATM    7  C           1     -21.104  -8.296  -4.522  0.00  0.00     0.217 C 
HETATM    8  N           1     -21.090  -9.189  -5.560  0.00  0.00    -0.370 N 
HETATM    9  H           1     -21.564 -10.078  -5.469  0.00  0.00     0.159 HD
HETATM   10  H           1     -20.605  -8.960  -6.418  0.00  0.00     0.159 HD
HETATM   11  O           1     -21.682  -8.570  -3.497  0.00  0.00    -0.274 OA
ENDBRANCH   6   7
ENDBRANCH   5   6
BRANCH   5  12
HETATM   12  N           1     -22.764  -6.277  -4.705  0.00  0.00    -0.066 N 
HETATM   13  H           1     -23.024  -7.214  -5.088  0.00  0.00     0.275 HD
HETATM   14  H           1     -22.794  -6.308  -3.661  0.00  0.00     0.275 HD
HETATM   15  H           1     -23.439  -5.559  -5.052  0.00  0.00     0.275 HD
ENDBRANCH   5  12
ENDBRANCH   2   5
BRANCH   1  16
HETATM   16  C           1     -21.937  -4.797  -8.775  0.00  0.00     0.214 C 
BRANCH  16  17
HETATM   17  C           1     -23.100  -3.954  -9.283  0.00  0.00     0.147 C 
HETATM   18  C           1     -23.737  -4.640 -10.484  0.00  0.00     0.042 C 
BRANCH  17  19
HETATM   19  O           1     -24.054  -3.812  -8.265  0.00  0.00    -0.393 OA
HETATM   20  H           1     -23.855  -4.461  -7.612  0.00  0.00     0.210 HD
ENDBRANCH  17  19
ENDBRANCH  16  17
BRANCH  16  21
HETATM   21  C           1     -20.635  -4.177  -9.219  0.00  0.00     0.199 C 
HETATM   22  O           1     -20.248  -4.314 -10.399  0.00  0.00    -0.646 OA
HETATM   23  O           1     -19.944  -3.525  -8.405  0.00  0.00    -0.646 OA
ENDBRANCH  16  21
ENDBRANCH   1  16
TORSDOF 8
ENDMDL
MODEL 9
REMARK VINA RESULT:      -4.8      4.354      8.432
REMARK  8 active torsions:
REMARK  status: ('A' for Active; 'I' for Inactive)
REMARK    1  A    between atoms: N_1  and  C_11 
REMARK       I    between atoms: N_1  and  C_2 
REMARK    2  A    between atoms: C_2  and  C_3 
REMARK    3  A    between atoms: C_3  and  C_4 
REMARK    4  A    between atoms: C_3  and  N_8 
REMARK    5  A    between atoms: C_4  and  C_5 
REMARK       I    between atoms: C_5  and  N_6 
REMARK    6  A    between atoms: C_9  and  O_10 
REMARK    7  A    between atoms: C_9  and  C_11 
REMARK    8  A    between atoms: C_11  and  C_12 
ROOT
HETATM    1  N           1     -21.252  -8.452  -2.481  0.00  0.00    -0.343 N 
HETATM    2  C           1     -20.105  -8.593  -3.216  0.00  0.00     0.249 C 
HETATM    3  O           1     -19.103  -9.022  -2.695  0.00  0.00    -0.271 OA
HETATM    4  H           1     -22.091  -8.093  -2.918  0.00  0.00     0.163 HD
ENDROOT
BRANCH   2   5
HETATM    5  C           1     -20.092  -8.211  -4.675  0.00  0.00     0.283 C 
BRANCH   5   6
HETATM    6  C           1     -20.938  -6.963  -4.882  0.00  0.00     0.145 C 
BRANCH   6   7
HETATM    7  C           1     -20.316  -6.105  -5.957  0.00  0.00     0.217 C 
HETATM    8  N           1     -20.035  -4.789  -5.705  0.00  0.00    -0.370 N 
HETATM    9  H           1     -19.618  -4.214  -6.425  0.00  0.00     0.159 HD
HETATM   10  H           1     -20.245  -4.391  -4.798  0.00  0.00     0.159 HD
HETATM   11  O           1     -20.065  -6.580  -7.039  0.00  0.00    -0.274 OA
ENDBRANCH   6   7
ENDBRANCH   5   6
BRANCH   5  12
HETATM   12  N           1     -20.654  -9.337  -5.492  0.00  0.00    -0.066 N 
HETATM   13  H           1     -20.638 -10.218  -4.930  0.00  0.00     0.275 HD
HETATM   14  H           1     -21.639  -9.114  -5.762  0.00  0.00     0.275 HD
HETATM   15  H           1     -20.076  -9.463  -6.354  0.00  0.00     0.275 HD
ENDBRANCH   5  12
ENDBRANCH   2   5
BRANCH   1  16
HETATM   16  C           1     -21.264  -8.818  -1.078  0.00  0.00     0.214 C 
BRANCH  16  17
HETATM   17  C           1     -21.976  -7.735  -0.277  0.00  0.00     0.147 C 
HETATM   18  C           1     -22.358  -6.588  -1.204  0.00  0.00     0.042 C 
BRANCH  17  19
HETATM   19  O           1     -23.133  -8.272   0.306  0.00  0.00    -0.393 OA
HETATM   20  H           1     -23.671  -8.593  -0.398  0.00  0.00     0.210 HD
ENDBRANCH  17  19
ENDBRANCH  16  17
BRANCH  16  21
HETATM   21  C           1     -21.991 -10.130  -0.908  0.00  0.00     0.199 C 
HETATM   22  O           1     -22.846 -10.484  -1.747  0.00  0.00    -0.646 OA
HETATM   23  O           1     -21.735 -10.864   0.071  0.00  0.00    -0.646 OA
ENDBRANCH  16  21
ENDBRANCH   1  16
TORSDOF 8
ENDMDL
