MODEL 1
REMARK VINA RESULT:      -6.9      0.000      0.000
REMARK  9 active torsions:
REMARK  status: ('A' for Active; 'I' for Inactive)
REMARK    1  A    between atoms: C_2  and  C_17 
REMARK    2  A    between atoms: C_2  and  C_9 
REMARK    3  A    between atoms: C_2  and  N_7 
REMARK    4  A    between atoms: C_9  and  C_12 
REMARK    5  A    between atoms: C_10  and  S_13 
REMARK    6  A    between atoms: C_10  and  C_14 
REMARK    7  A    between atoms: C_14  and  C_15 
REMARK    8  A    between atoms: C_15  and  C_21 
REMARK    9  A    between atoms: C_15  and  N_24 
REMARK       I    between atoms: C_17  and  N_24 
ROOT
HETATM    1  C           1     -32.909  -4.499 -16.640  0.00  0.00     0.278 C 
ENDROOT
BRANCH   1   2
HETATM    2  C           1     -33.789  -4.498 -15.414  0.00  0.00     0.249 C 
HETATM    3  O           1     -34.921  -4.914 -15.482  0.00  0.00    -0.271 OA
HETATM    4  N           1     -33.305  -4.024 -14.225  0.00  0.00    -0.345 N 
HETATM    5  H           1     -32.357  -3.675 -14.167  0.00  0.00     0.163 HD
BRANCH   4   6
HETATM    6  C           1     -34.151  -4.021 -13.046  0.00  0.00     0.186 C 
BRANCH   6   7
HETATM    7  C           1     -33.287  -4.167 -11.801  0.00  0.00     0.046 C 
BRANCH   7   8
HETATM    8  C           1     -33.321  -5.613 -11.325  0.00  0.00     0.076 C 
BRANCH   8   9
HETATM    9  S           1     -34.763  -5.864 -10.251  0.00  0.00    -0.173 SA
HETATM   10  C           1     -34.642  -7.674 -10.175  0.00  0.00     0.089 C 
ENDBRANCH   8   9
ENDBRANCH   7   8
ENDBRANCH   6   7
BRANCH   6  11
HETATM   11  C           1     -34.915  -2.722 -12.978  0.00  0.00     0.196 C 
HETATM   12  O           1     -35.624  -2.466 -11.981  0.00  0.00    -0.646 OA
HETATM   13  O           1     -34.839  -1.902 -13.919  0.00  0.00    -0.646 OA
ENDBRANCH   6  11
ENDBRANCH   4   6
ENDBRANCH   1   2
BRANCH   1  14
HETATM   14  C           1     -31.446  -4.484 -16.214  0.00  0.00     0.081 C 
BRANCH  14  15
HETATM   15  C           1     -30.656  -5.384 -17.112  0.00  0.00    -0.056 A 
HETATM   16  C           1     -29.494  -4.915 -17.723  0.00  0.00     0.007 A 
HETATM   17  C           1     -28.757  -5.754 -18.560  0.00  0.00     0.001 A 
HETATM   18  C           1     -29.183  -7.063 -18.784  0.00  0.00     0.000 A 
HETATM   19  C           1     -30.344  -7.533 -18.172  0.00  0.00     0.001 A 
HETATM   20  C           1     -31.081  -6.693 -17.335  0.00  0.00     0.007 A 
ENDBRANCH  14  15
ENDBRANCH   1  14
BRANCH   1  21
HETATM   21  N           1     -33.201  -3.282 -17.466  0.00  0.00    -0.066 N 
HETATM   22  H           1     -33.582  -3.573 -18.394  0.00  0.00     0.275 HD
HETATM   23  H           1     -33.904  -2.688 -16.972  0.00  0.00     0.275 HD
HETATM   24  H           1     -32.320  -2.737 -17.607  0.00  0.00     0.275 HD
ENDBRANCH   1  21
TORSDOF 9
ENDMDL
MODEL 2
REMARK VINA RESULT:      -6.8     14.019     14.946
REMARK  9 active torsions:
REMARK  status: ('A' for Active; 'I' for Inactive)
REMARK    1  A    between atoms: C_2  and  C_17 
REMARK    2  A    between atoms: C_2  and  C_9 
REMARK    3  A    between atoms: C_2  and  N_7 
REMARK    4  A    between atoms: C_9  and  C_12 
REMARK    5  A    between atoms: C_10  and  S_13 
REMARK    6  A    between atoms: C_10  and  C_14 
REMARK    7  A    between atoms: C_14  and  C_15 
REMARK    8  A    between atoms: C_15  and  C_21 
REMARK    9  A    between atoms: C_15  and  N_24 
REMARK       I    between atoms: C_17  and  N_24 
ROOT
HETATM    1  C           1     -22.274  -5.191  -6.692  0.00  0.00     0.278 C 
ENDROOT
BRANCH   1   2
HETATM    2  C           1     -21.490  -5.649  -5.486  0.00  0.00     0.249 C 
HETATM    3  O           1     -20.302  -5.439  -5.422  0.00  0.00    -0.271 OA
HETATM    4  N           1     -22.124  -6.303  -4.465  0.00  0.00    -0.345 N 
HETATM    5  H           1     -23.119  -6.480  -4.519  0.00  0.00     0.163 HD
BRANCH   4   6
HETATM    6  C           1     -21.371  -6.744  -3.307  0.00  0.00     0.186 C 
BRANCH   6   7
HETATM    7  C           1     -22.234  -6.611  -2.059  0.00  0.00     0.046 C 
BRANCH   7   8
HETATM    8  C           1     -21.606  -7.401  -0.919  0.00  0.00     0.076 C 
BRANCH   8   9
HETATM    9  S           1     -22.906  -7.978   0.208  0.00  0.00    -0.173 SA
HETATM   10  C           1     -22.928  -9.697  -0.375  0.00  0.00     0.089 C 
ENDBRANCH   8   9
ENDBRANCH   7   8
ENDBRANCH   6   7
BRANCH   6  11
HETATM   11  C           1     -20.970  -8.187  -3.488  0.00  0.00     0.196 C 
HETATM   12  O           1     -21.838  -9.051  -3.739  0.00  0.00    -0.646 OA
HETATM   13  O           1     -19.769  -8.520  -3.387  0.00  0.00    -0.646 OA
ENDBRANCH   6  11
ENDBRANCH   4   6
ENDBRANCH   1   2
BRANCH   1  14
HETATM   14  C           1     -21.650  -3.918  -7.250  0.00  0.00     0.081 C 
BRANCH  14  15
HETATM   15  C           1     -21.564  -4.017  -8.741  0.00  0.00    -0.056 A 
HETATM   16  C           1     -22.703  -3.822  -9.520  0.00  0.00     0.007 A 
HETATM   17  C           1     -22.622  -3.914 -10.910  0.00  0.00     0.001 A 
HETATM   18  C           1     -21.400  -4.201 -11.519  0.00  0.00     0.000 A 
HETATM   19  C           1     -20.261  -4.395 -10.741  0.00  0.00     0.001 A 
HETATM   20  C           1     -20.342  -4.303  -9.350  0.00  0.00     0.007 A 
ENDBRANCH  14  15
ENDBRANCH   1  14
BRANCH   1  21
HETATM   21  N           1     -23.693  -4.916  -6.289  0.00  0.00    -0.066 N 
HETATM   22  H           1     -23.711  -4.525  -5.320  0.00  0.00     0.275 HD
HETATM   23  H           1     -24.114  -4.225  -6.951  0.00  0.00     0.275 HD
HETATM   24  H           1     -24.241  -5.805  -6.316  0.00  0.00     0.275 HD
ENDBRANCH   1  21
TORSDOF 9
ENDMDL
MODEL 3
REMARK VINA RESULT:      -6.3     14.889     15.859
REMARK  9 active torsions:
REMARK  status: ('A' for Active; 'I' for Inactive)
REMARK    1  A    between atoms: C_2  and  C_17 
REMARK    2  A    between atoms: C_2  and  C_9 
REMARK    3  A    between atoms: C_2  and  N_7 
REMARK    4  A    between atoms: C_9  and  C_12 
REMARK    5  A    between atoms: C_10  and  S_13 
REMARK    6  A    between atoms: C_10  and  C_14 
REMARK    7  A    between atoms: C_14  and  C_15 
REMARK    8  A    between atoms: C_15  and  C_21 
REMARK    9  A    between atoms: C_15  and  N_24 
REMARK       I    between atoms: C_17  and  N_24 
ROOT
HETATM    1  C           1     -21.527  -6.127  -5.975  0.00  0.00     0.278 C 
ENDROOT
BRANCH   1   2
HETATM    2  C           1     -20.461  -7.152  -5.674  0.00  0.00     0.249 C 
HETATM    3  O           1     -19.502  -7.258  -6.399  0.00  0.00    -0.271 OA
HETATM    4  N           1     -20.583  -7.964  -4.579  0.00  0.00    -0.345 N 
HETATM    5  H           1     -21.387  -7.876  -3.971  0.00  0.00     0.163 HD
BRANCH   4   6
HETATM    6  C           1     -19.560  -8.950  -4.289  0.00  0.00     0.186 C 
BRANCH   6   7
HETATM    7  C           1     -19.408  -9.096  -2.781  0.00  0.00     0.046 C 
BRANCH   7   8
HETATM    8  C           1     -20.291  -8.071  -2.079  0.00  0.00     0.076 C 
BRANCH   8   9
HETATM    9  S           1     -21.533  -8.930  -1.073  0.00  0.00    -0.173 SA
HETATM   10  C           1     -22.325  -7.435  -0.416  0.00  0.00     0.089 C 
ENDBRANCH   8   9
ENDBRANCH   7   8
ENDBRANCH   6   7
BRANCH   6  11
HETATM   11  C           1     -19.959 -10.278  -4.883  0.00  0.00     0.196 C 
HETATM   12  O           1     -20.778 -11.009  -4.286  0.00  0.00    -0.646 OA
HETATM   13  O           1     -19.470 -10.648  -5.973  0.00  0.00    -0.646 OA
ENDBRANCH   6  11
ENDBRANCH   4   6
ENDBRANCH   1   2
BRANCH   1  14
HETATM   14  C           1     -20.868  -4.804  -6.345  0.00  0.00     0.081 C 
BRANCH  14  15
HETATM   15  C           1     -21.169  -4.479  -7.775  0.00  0.00    -0.056 A 
HETATM   16  C           1     -22.447  -4.059  -8.141  0.00  0.00     0.007 A 
HETATM   17  C           1     -22.728  -3.756  -9.473  0.00  0.00     0.001 A 
HETATM   18  C           1     -21.729  -3.873 -10.440  0.00  0.00     0.000 A 
HETATM   19  C           1     -20.450  -4.292 -10.074  0.00  0.00     0.001 A 
HETATM   20  C           1     -20.170  -4.595  -8.741  0.00  0.00     0.007 A 
ENDBRANCH  14  15
ENDBRANCH   1  14
BRANCH   1  21
HETATM   21  N           1     -22.390  -5.933  -4.763  0.00  0.00    -0.066 N 
HETATM   22  H           1     -22.626  -4.920  -4.662  0.00  0.00     0.275 HD
HETATM   23  H           1     -23.270  -6.486  -4.872  0.00  0.00     0.275 HD
HETATM   24  H           1     -21.876  -6.258  -3.914  0.00  0.00     0.275 HD
ENDBRANCH   1  21
TORSDOF 9
ENDMDL
MODEL 4
REMARK VINA RESULT:      -6.3     14.226     15.137
REMARK  9 active torsions:
REMARK  status: ('A' for Active; 'I' for Inactive)
REMARK    1  A    between atoms: C_2  and  C_17 
REMARK    2  A    between atoms: C_2  and  C_9 
REMARK    3  A    between atoms: C_2  and  N_7 
REMARK    4  A    between atoms: C_9  and  C_12 
REMARK    5  A    between atoms: C_10  and  S_13 
REMARK    6  A    between atoms: C_10  and  C_14 
REMARK    7  A    between atoms: C_14  and  C_15 
REMARK    8  A    between atoms: C_15  and  C_21 
REMARK    9  A    between atoms: C_15  and  N_24 
REMARK       I    between atoms: C_17  and  N_24 
ROOT
HETATM    1  C           1     -20.476  -5.039  -6.642  0.00  0.00     0.278 C 
ENDROOT
BRANCH   1   2
HETATM    2  C           1     -21.379  -5.804  -5.705  0.00  0.00     0.249 C 
HETATM    3  O           1     -22.566  -5.581  -5.694  0.00  0.00    -0.271 OA
HETATM    4  N           1     -20.853  -6.749  -4.867  0.00  0.00    -0.345 N 
HETATM    5  H           1     -19.858  -6.936  -4.876  0.00  0.00     0.163 HD
BRANCH   4   6
HETATM    6  C           1     -21.720  -7.484  -3.966  0.00  0.00     0.186 C 
BRANCH   6   7
HETATM    7  C           1     -21.278  -8.940  -3.911  0.00  0.00     0.046 C 
BRANCH   7   8
HETATM    8  C           1     -20.029  -9.125  -4.763  0.00  0.00     0.076 C 
BRANCH   8   9
HETATM    9  S           1     -18.603  -9.444  -3.685  0.00  0.00    -0.173 SA
HETATM   10  C           1     -19.465 -10.559  -2.541  0.00  0.00     0.089 C 
ENDBRANCH   8   9
ENDBRANCH   7   8
ENDBRANCH   6   7
BRANCH   6  11
HETATM   11  C           1     -21.636  -6.882  -2.585  0.00  0.00     0.196 C 
HETATM   12  O           1     -22.352  -5.900  -2.288  0.00  0.00    -0.646 OA
HETATM   13  O           1     -20.852  -7.363  -1.739  0.00  0.00    -0.646 OA
ENDBRANCH   6  11
ENDBRANCH   4   6
ENDBRANCH   1   2
BRANCH   1  14
HETATM   14  C           1     -21.234  -3.852  -7.222  0.00  0.00     0.081 C 
BRANCH  14  15
HETATM   15  C           1     -21.428  -4.055  -8.693  0.00  0.00    -0.056 A 
HETATM   16  C           1     -22.674  -4.440  -9.186  0.00  0.00     0.007 A 
HETATM   17  C           1     -22.855  -4.629 -10.557  0.00  0.00     0.001 A 
HETATM   18  C           1     -21.788  -4.431 -11.433  0.00  0.00     0.000 A 
HETATM   19  C           1     -20.542  -4.045 -10.941  0.00  0.00     0.001 A 
HETATM   20  C           1     -20.362  -3.856  -9.570  0.00  0.00     0.007 A 
ENDBRANCH  14  15
ENDBRANCH   1  14
BRANCH   1  21
HETATM   21  N           1     -20.033  -5.941  -7.756  0.00  0.00    -0.066 N 
HETATM   22  H           1     -20.382  -6.910  -7.579  0.00  0.00     0.275 HD
HETATM   23  H           1     -20.422  -5.592  -8.661  0.00  0.00     0.275 HD
HETATM   24  H           1     -18.990  -5.950  -7.804  0.00  0.00     0.275 HD
ENDBRANCH   1  21
TORSDOF 9
ENDMDL
MODEL 5
REMARK VINA RESULT:      -6.2      1.557      1.910
REMARK  9 active torsions:
REMARK  status: ('A' for Active; 'I' for Inactive)
REMARK    1  A    between atoms: C_2  and  C_17 
REMARK    2  A    between atoms: C_2  and  C_9 
REMARK    3  A    between atoms: C_2  and  N_7 
REMARK    4  A    between atoms: C_9  and  C_12 
REMARK    5  A    between atoms: C_10  and  S_13 
REMARK    6  A    between atoms: C_10  and  C_14 
REMARK    7  A    between atoms: C_14  and  C_15 
REMARK    8  A    between atoms: C_15  and  C_21 
REMARK    9  A    between atoms: C_15  and  N_24 
REMARK       I    between atoms: C_17  and  N_24 
ROOT
HETATM    1  C           1     -33.603  -4.864 -15.460  0.00  0.00     0.278 C 
ENDROOT
BRANCH   1   2
HETATM    2  C           1     -34.178  -4.044 -14.330  0.00  0.00     0.249 C 
HETATM    3  O           1     -34.634  -2.947 -14.551  0.00  0.00    -0.271 OA
HETATM    4  N           1     -34.183  -4.543 -13.056  0.00  0.00    -0.345 N 
HETATM    5  H           1     -33.802  -5.462 -12.872  0.00  0.00     0.163 HD
BRANCH   4   6
HETATM    6  C           1     -34.735  -3.756 -11.970  0.00  0.00     0.186 C 
BRANCH   6   7
HETATM    7  C           1     -35.133  -4.678 -10.826  0.00  0.00     0.046 C 
BRANCH   7   8
HETATM    8  C           1     -34.372  -5.992 -10.944  0.00  0.00     0.076 C 
BRANCH   8   9
HETATM    9  S           1     -34.982  -7.160  -9.695  0.00  0.00    -0.173 SA
HETATM   10  C           1     -33.906  -8.542 -10.173  0.00  0.00     0.089 C 
ENDBRANCH   8   9
ENDBRANCH   7   8
ENDBRANCH   6   7
BRANCH   6  11
HETATM   11  C           1     -33.699  -2.772 -11.486  0.00  0.00     0.196 C 
HETATM   12  O           1     -34.035  -1.602 -11.199  0.00  0.00    -0.646 OA
HETATM   13  O           1     -32.506  -3.126 -11.371  0.00  0.00    -0.646 OA
ENDBRANCH   6  11
ENDBRANCH   4   6
ENDBRANCH   1   2
BRANCH   1  14
HETATM   14  C           1     -33.102  -3.934 -16.558  0.00  0.00     0.081 C 
BRANCH  14  15
HETATM   15  C           1     -31.787  -4.432 -17.071  0.00  0.00    -0.056 A 
HETATM   16  C           1     -30.854  -3.534 -17.588  0.00  0.00     0.007 A 
HETATM   17  C           1     -29.628  -3.998 -18.066  0.00  0.00     0.001 A 
HETATM   18  C           1     -29.335  -5.361 -18.024  0.00  0.00     0.000 A 
HETATM   19  C           1     -30.267  -6.260 -17.506  0.00  0.00     0.001 A 
HETATM   20  C           1     -31.493  -5.795 -17.028  0.00  0.00     0.007 A 
ENDBRANCH  14  15
ENDBRANCH   1  14
BRANCH   1  21
HETATM   21  N           1     -34.667  -5.764 -16.016  0.00  0.00    -0.066 N 
HETATM   22  H           1     -34.952  -5.424 -16.962  0.00  0.00     0.275 HD
HETATM   23  H           1     -34.293  -6.737 -16.093  0.00  0.00     0.275 HD
HETATM   24  H           1     -35.496  -5.758 -15.379  0.00  0.00     0.275 HD
ENDBRANCH   1  21
TORSDOF 9
ENDMDL
MODEL 6
REMARK VINA RESULT:      -6.1     14.721     16.677
REMARK  9 active torsions:
REMARK  status: ('A' for Active; 'I' for Inactive)
REMARK    1  A    between atoms: C_2  and  C_17 
REMARK    2  A    between atoms: C_2  and  C_9 
REMARK    3  A    between atoms: C_2  and  N_7 
REMARK    4  A    between atoms: C_9  and  C_12 
REMARK    5  A    between atoms: C_10  and  S_13 
REMARK    6  A    between atoms: C_10  and  C_14 
REMARK    7  A    between atoms: C_14  and  C_15 
REMARK    8  A    between atoms: C_15  and  C_21 
REMARK    9  A    between atoms: C_15  and  N_24 
REMARK       I    between atoms: C_17  and  N_24 
ROOT
HETATM    1  C           1     -21.869  -7.766  -4.049  0.00  0.00     0.278 C 
ENDROOT
BRANCH   1   2
HETATM    2  C           1     -21.518  -7.242  -5.420  0.00  0.00     0.249 C 
HETATM    3  O           1     -21.172  -8.006  -6.289  0.00  0.00    -0.271 OA
HETATM    4  N           1     -21.590  -5.900  -5.679  0.00  0.00    -0.345 N 
HETATM    5  H           1     -21.880  -5.259  -4.952  0.00  0.00     0.163 HD
BRANCH   4   6
HETATM    6  C           1     -21.252  -5.396  -6.997  0.00  0.00     0.186 C 
BRANCH   6   7
HETATM    7  C           1     -22.375  -4.499  -7.501  0.00  0.00     0.046 C 
BRANCH   7   8
HETATM    8  C           1     -22.797  -4.947  -8.894  0.00  0.00     0.076 C 
BRANCH   8   9
HETATM    9  S           1     -22.801  -3.519 -10.014  0.00  0.00    -0.173 SA
HETATM   10  C           1     -24.606  -3.354 -10.118  0.00  0.00     0.089 C 
ENDBRANCH   8   9
ENDBRANCH   7   8
ENDBRANCH   6   7
BRANCH   6  11
HETATM   11  C           1     -19.972  -4.600  -6.917  0.00  0.00     0.196 C 
HETATM   12  O           1     -19.355  -4.516  -5.833  0.00  0.00    -0.646 OA
HETATM   13  O           1     -19.529  -4.025  -7.935  0.00  0.00    -0.646 OA
ENDBRANCH   6  11
ENDBRANCH   4   6
ENDBRANCH   1   2
BRANCH   1  14
HETATM   14  C           1     -20.921  -7.167  -3.018  0.00  0.00     0.081 C 
BRANCH  14  15
HETATM   15  C           1     -21.341  -7.594  -1.647  0.00  0.00    -0.056 A 
HETATM   16  C           1     -20.638  -8.598  -0.982  0.00  0.00     0.007 A 
HETATM   17  C           1     -21.029  -8.996   0.297  0.00  0.00     0.001 A 
HETATM   18  C           1     -22.124  -8.388   0.910  0.00  0.00     0.000 A 
HETATM   19  C           1     -22.828  -7.384   0.247  0.00  0.00     0.001 A 
HETATM   20  C           1     -22.436  -6.986  -1.033  0.00  0.00     0.007 A 
ENDBRANCH  14  15
ENDBRANCH   1  14
BRANCH   1  21
HETATM   21  N           1     -21.741  -9.260  -4.038  0.00  0.00    -0.066 N 
HETATM   22  H           1     -21.201  -9.557  -3.194  0.00  0.00     0.275 HD
HETATM   23  H           1     -22.693  -9.691  -4.011  0.00  0.00     0.275 HD
HETATM   24  H           1     -21.239  -9.573  -4.899  0.00  0.00     0.275 HD
ENDBRANCH   1  21
TORSDOF 9
ENDMDL
MODEL 7
REMARK VINA RESULT:      -6.0     27.143     28.907
REMARK  9 active torsions:
REMARK  status: ('A' for Active; 'I' for Inactive)
REMARK    1  A    between atoms: C_2  and  C_17 
REMARK    2  A    between atoms: C_2  and  C_9 
REMARK    3  A    between atoms: C_2  and  N_7 
REMARK    4  A    between atoms: C_9  and  C_12 
REMARK    5  A    between atoms: C_10  and  S_13 
REMARK    6  A    between atoms: C_10  and  C_14 
REMARK    7  A    between atoms: C_14  and  C_15 
REMARK    8  A    between atoms: C_15  and  C_21 
REMARK    9  A    between atoms: C_15  and  N_24 
REMARK       I    between atoms: C_17  and  N_24 
ROOT
HETATM    1  C           1     -15.096   9.267   5.629  0.00  0.00     0.278 C 
ENDROOT
BRANCH   1   2
HETATM    2  C           1     -16.459   9.817   5.289  0.00  0.00     0.249 C 
HETATM    3  O           1     -16.624  11.010   5.196  0.00  0.00    -0.271 OA
HETATM    4  N           1     -17.511   8.964   5.088  0.00  0.00    -0.345 N 
HETATM    5  H           1     -17.373   7.965   5.166  0.00  0.00     0.163 HD
BRANCH   4   6
HETATM    6  C           1     -18.822   9.492   4.762  0.00  0.00     0.186 C 
BRANCH   6   7
HETATM    7  C           1     -19.330   8.837   3.485  0.00  0.00     0.046 C 
BRANCH   7   8
HETATM    8  C           1     -18.388   9.166   2.335  0.00  0.00     0.076 C 
BRANCH   8   9
HETATM    9  S           1     -18.486  10.939   1.960  0.00  0.00    -0.173 SA
HETATM   10  C           1     -16.724  11.161   1.586  0.00  0.00     0.089 C 
ENDBRANCH   8   9
ENDBRANCH   7   8
ENDBRANCH   6   7
BRANCH   6  11
HETATM   11  C           1     -19.777   9.199   5.892  0.00  0.00     0.196 C 
HETATM   12  O           1     -19.423   9.392   7.076  0.00  0.00    -0.646 OA
HETATM   13  O           1     -20.922   8.761   5.645  0.00  0.00    -0.646 OA
ENDBRANCH   6  11
ENDBRANCH   4   6
ENDBRANCH   1   2
BRANCH   1  14
HETATM   14  C           1     -14.813   8.042   4.767  0.00  0.00     0.081 C 
BRANCH  14  15
HETATM   15  C           1     -14.344   8.481   3.415  0.00  0.00    -0.056 A 
HETATM   16  C           1     -14.891   7.909   2.267  0.00  0.00     0.007 A 
HETATM   17  C           1     -14.454   8.319   1.007  0.00  0.00     0.001 A 
HETATM   18  C           1     -13.471   9.302   0.896  0.00  0.00     0.000 A 
HETATM   19  C           1     -12.925   9.876   2.043  0.00  0.00     0.001 A 
HETATM   20  C           1     -13.362   9.465   3.304  0.00  0.00     0.007 A 
ENDBRANCH  14  15
ENDBRANCH   1  14
BRANCH   1  21
HETATM   21  N           1     -15.061   8.876   7.077  0.00  0.00    -0.066 N 
HETATM   22  H           1     -14.889   9.724   7.662  0.00  0.00     0.275 HD
HETATM   23  H           1     -15.977   8.449   7.343  0.00  0.00     0.275 HD
HETATM   24  H           1     -14.294   8.184   7.233  0.00  0.00     0.275 HD
ENDBRANCH   1  21
TORSDOF 9
ENDMDL
MODEL 8
REMARK VINA RESULT:      -6.0     15.840     16.904
REMARK  9 active torsions:
REMARK  status: ('A' for Active; 'I' for Inactive)
REMARK    1  A    between atoms: C_2  and  C_17 
REMARK    2  A    between atoms: C_2  and  C_9 
REMARK    3  A    between atoms: C_2  and  N_7 
REMARK    4  A    between atoms: C_9  and  C_12 
REMARK    5  A    between atoms: C_10  and  S_13 
REMARK    6  A    between atoms: C_10  and  C_14 
REMARK    7  A    between atoms: C_14  and  C_15 
REMARK    8  A    between atoms: C_15  and  C_21 
REMARK    9  A    between atoms: C_15  and  N_24 
REMARK       I    between atoms: C_17  and  N_24 
ROOT
HETATM    1  C           1     -21.676  -6.250  -4.905  0.00  0.00     0.278 C 
ENDROOT
BRANCH   1   2
HETATM    2  C           1     -21.043  -7.619  -4.957  0.00  0.00     0.249 C 
HETATM    3  O           1     -21.041  -8.246  -5.990  0.00  0.00    -0.271 OA
HETATM    4  N           1     -20.471  -8.152  -3.833  0.00  0.00    -0.345 N 
HETATM    5  H           1     -20.473  -7.627  -2.968  0.00  0.00     0.163 HD
BRANCH   4   6
HETATM    6  C           1     -19.863  -9.468  -3.883  0.00  0.00     0.186 C 
BRANCH   6   7
HETATM    7  C           1     -18.352  -9.334  -3.748  0.00  0.00     0.046 C 
BRANCH   7   8
HETATM    8  C           1     -17.673 -10.044  -4.912  0.00  0.00     0.076 C 
BRANCH   8   9
HETATM    9  S           1     -15.887 -10.144  -4.601  0.00  0.00    -0.173 SA
HETATM   10  C           1     -15.959  -9.637  -2.860  0.00  0.00     0.089 C 
ENDBRANCH   8   9
ENDBRANCH   7   8
ENDBRANCH   6   7
BRANCH   6  11
HETATM   11  C           1     -20.395 -10.310  -2.749  0.00  0.00     0.196 C 
HETATM   12  O           1     -21.492 -10.898  -2.870  0.00  0.00    -0.646 OA
HETATM   13  O           1     -19.739 -10.420  -1.691  0.00  0.00    -0.646 OA
ENDBRANCH   6  11
ENDBRANCH   4   6
ENDBRANCH   1   2
BRANCH   1  14
HETATM   14  C           1     -20.654  -5.202  -5.326  0.00  0.00     0.081 C 
BRANCH  14  15
HETATM   15  C           1     -20.875  -4.838  -6.761  0.00  0.00    -0.056 A 
HETATM   16  C           1     -22.152  -4.497  -7.206  0.00  0.00     0.007 A 
HETATM   17  C           1     -22.358  -4.157  -8.543  0.00  0.00     0.001 A 
HETATM   18  C           1     -21.285  -4.158  -9.435  0.00  0.00     0.000 A 
HETATM   19  C           1     -20.008  -4.497  -8.991  0.00  0.00     0.001 A 
HETATM   20  C           1     -19.803  -4.837  -7.653  0.00  0.00     0.007 A 
ENDBRANCH  14  15
ENDBRANCH   1  14
BRANCH   1  21
HETATM   21  N           1     -22.136  -5.966  -3.506  0.00  0.00    -0.066 N 
HETATM   22  H           1     -21.592  -5.163  -3.117  0.00  0.00     0.275 HD
HETATM   23  H           1     -23.153  -5.725  -3.517  0.00  0.00     0.275 HD
HETATM   24  H           1     -21.983  -6.811  -2.910  0.00  0.00     0.275 HD
ENDBRANCH   1  21
TORSDOF 9
ENDMDL
MODEL 9
REMARK VINA RESULT:      -5.8     15.689     16.851
REMARK  9 active torsions:
REMARK  status: ('A' for Active; 'I' for Inactive)
REMARK    1  A    between atoms: C_2  and  C_17 
REMARK    2  A    between atoms: C_2  and  C_9 
REMARK    3  A    between atoms: C_2  and  N_7 
REMARK    4  A    between atoms: C_9  and  C_12 
REMARK    5  A    between atoms: C_10  and  S_13 
REMARK    6  A    between atoms: C_10  and  C_14 
REMARK    7  A    between atoms: C_14  and  C_15 
REMARK    8  A    between atoms: C_15  and  C_21 
REMARK    9  A    between atoms: C_15  and  N_24 
REMARK       I    between atoms: C_17  and  N_24 
ROOT
HETATM    1  C           1     -21.064  -7.709  -4.811  0.00  0.00     0.278 C 
ENDROOT
BRANCH   1   2
HETATM    2  C           1     -21.530  -8.500  -3.613  0.00  0.00     0.249 C 
HETATM    3  O           1     -22.038  -9.585  -3.766  0.00  0.00    -0.271 OA
HETATM    4  N           1     -21.378  -7.988  -2.353  0.00  0.00    -0.345 N 
HETATM    5  H           1     -20.953  -7.078  -2.225  0.00  0.00     0.163 HD
BRANCH   4   6
HETATM    6  C           1     -21.826  -8.748  -1.202  0.00  0.00     0.186 C 
BRANCH   6   7
HETATM    7  C           1     -20.637  -9.456  -0.568  0.00  0.00     0.046 C 
BRANCH   7   8
HETATM    8  C           1     -20.901 -10.956  -0.528  0.00  0.00     0.076 C 
BRANCH   8   9
HETATM    9  S           1     -19.382 -11.850  -0.960  0.00  0.00    -0.173 SA
HETATM   10  C           1     -18.765 -10.629  -2.152  0.00  0.00     0.089 C 
ENDBRANCH   8   9
ENDBRANCH   7   8
ENDBRANCH   6   7
BRANCH   6  11
HETATM   11  C           1     -22.449  -7.813  -0.195  0.00  0.00     0.196 C 
HETATM   12  O           1     -22.877  -6.696  -0.559  0.00  0.00    -0.646 OA
HETATM   13  O           1     -22.537  -8.155   1.005  0.00  0.00    -0.646 OA
ENDBRANCH   6  11
ENDBRANCH   4   6
ENDBRANCH   1   2
BRANCH   1  14
HETATM   14  C           1     -21.884  -6.430  -4.925  0.00  0.00     0.081 C 
BRANCH  14  15
HETATM   15  C           1     -21.298  -5.554  -5.988  0.00  0.00    -0.056 A 
HETATM   16  C           1     -19.914  -5.435  -6.108  0.00  0.00     0.007 A 
HETATM   17  C           1     -19.366  -4.619  -7.099  0.00  0.00     0.001 A 
HETATM   18  C           1     -20.205  -3.923  -7.969  0.00  0.00     0.000 A 
HETATM   19  C           1     -21.589  -4.041  -7.850  0.00  0.00     0.001 A 
HETATM   20  C           1     -22.136  -4.858  -6.858  0.00  0.00     0.007 A 
ENDBRANCH  14  15
ENDBRANCH   1  14
BRANCH   1  21
HETATM   21  N           1     -21.245  -8.530  -6.054  0.00  0.00    -0.066 N 
HETATM   22  H           1     -20.656  -9.390  -5.992  0.00  0.00     0.275 HD
HETATM   23  H           1     -22.250  -8.802  -6.146  0.00  0.00     0.275 HD
HETATM   24  H           1     -20.957  -7.969  -6.887  0.00  0.00     0.275 HD
ENDBRANCH   1  21
TORSDOF 9
ENDMDL
