MODEL 1
REMARK VINA RESULT:      -6.3      0.000      0.000
REMARK  6 active torsions:
REMARK  status: ('A' for Active; 'I' for Inactive)
REMARK    1  A    between atoms: C_2  and  C_3 
REMARK    2  A    between atoms: C_3  and  C_8 
REMARK    3  A    between atoms: C_3  and  N_16 
REMARK    4  A    between atoms: N_4  and  C_19 
REMARK       I    between atoms: N_4  and  C_8 
REMARK    5  A    between atoms: C_11  and  C_19 
REMARK    6  A    between atoms: C_18  and  C_19 
ROOT
HETATM    1  N           1     -22.319  -4.806  -9.158  0.00  0.00    -0.344 N 
HETATM    2  C           1     -21.859  -4.664  -7.876  0.00  0.00     0.249 C 
HETATM    3  H           1     -22.311  -5.716  -9.601  0.00  0.00     0.163 HD
HETATM    4  O           1     -21.869  -3.579  -7.348  0.00  0.00    -0.271 OA
ENDROOT
BRANCH   2   5
HETATM    5  C           1     -21.337  -5.865  -7.125  0.00  0.00     0.278 C 
BRANCH   5   6
HETATM    6  C           1     -21.540  -5.657  -5.630  0.00  0.00     0.017 C 
HETATM    7  C           1     -21.889  -6.986  -4.974  0.00  0.00     0.012 C 
HETATM    8  C           1     -20.258  -5.110  -5.016  0.00  0.00     0.012 C 
ENDBRANCH   5   6
BRANCH   5   9
HETATM    9  N           1     -19.876  -6.038  -7.412  0.00  0.00    -0.066 N 
HETATM   10  H           1     -19.579  -7.003  -7.140  0.00  0.00     0.275 HD
HETATM   11  H           1     -19.328  -5.337  -6.863  0.00  0.00     0.275 HD
HETATM   12  H           1     -19.701  -5.895  -8.432  0.00  0.00     0.275 HD
ENDBRANCH   5   9
ENDBRANCH   2   5
BRANCH   1  13
HETATM   13  C           1     -22.820  -3.653  -9.880  0.00  0.00     0.189 C 
BRANCH  13  14
HETATM   14  C           1     -22.048  -3.498 -11.185  0.00  0.00     0.010 C 
HETATM   15  C           1     -20.564  -3.341 -10.881  0.00  0.00     0.012 C 
HETATM   16  C           1     -22.262  -4.733 -12.050  0.00  0.00     0.012 C 
ENDBRANCH  13  14
BRANCH  13  17
HETATM   17  C           1     -24.285  -3.846 -10.182  0.00  0.00     0.197 C 
HETATM   18  O           1     -24.886  -4.852  -9.745  0.00  0.00    -0.646 OA
HETATM   19  O           1     -24.899  -3.000 -10.869  0.00  0.00    -0.646 OA
ENDBRANCH  13  17
ENDBRANCH   1  13
TORSDOF 6
ENDMDL
MODEL 2
REMARK VINA RESULT:      -5.8      9.299     11.863
REMARK  6 active torsions:
REMARK  status: ('A' for Active; 'I' for Inactive)
REMARK    1  A    between atoms: C_2  and  C_3 
REMARK    2  A    between atoms: C_3  and  C_8 
REMARK    3  A    between atoms: C_3  and  N_16 
REMARK    4  A    between atoms: N_4  and  C_19 
REMARK       I    between atoms: N_4  and  C_8 
REMARK    5  A    between atoms: C_11  and  C_19 
REMARK    6  A    between atoms: C_18  and  C_19 
ROOT
HETATM    1  N           1     -26.214  -6.919 -18.545  0.00  0.00    -0.344 N 
HETATM    2  C           1     -24.995  -7.040 -19.156  0.00  0.00     0.249 C 
HETATM    3  H           1     -26.983  -7.514 -18.826  0.00  0.00     0.163 HD
HETATM    4  O           1     -24.078  -6.330 -18.821  0.00  0.00    -0.271 OA
ENDROOT
BRANCH   2   5
HETATM    5  C           1     -24.799  -8.061 -20.251  0.00  0.00     0.278 C 
BRANCH   5   6
HETATM    6  C           1     -23.663  -7.616 -21.161  0.00  0.00     0.017 C 
HETATM    7  C           1     -22.508  -8.604 -21.054  0.00  0.00     0.012 C 
HETATM    8  C           1     -24.155  -7.568 -22.602  0.00  0.00     0.012 C 
ENDBRANCH   5   6
BRANCH   5   9
HETATM    9  N           1     -26.061  -8.185 -21.051  0.00  0.00    -0.066 N 
HETATM   10  H           1     -25.823  -8.397 -22.046  0.00  0.00     0.275 HD
HETATM   11  H           1     -26.593  -7.287 -21.003  0.00  0.00     0.275 HD
HETATM   12  H           1     -26.647  -8.957 -20.661  0.00  0.00     0.275 HD
ENDBRANCH   5   9
ENDBRANCH   2   5
BRANCH   1  13
HETATM   13  C           1     -26.403  -5.938 -17.494  0.00  0.00     0.189 C 
BRANCH  13  14
HETATM   14  C           1     -27.889  -5.627 -17.352  0.00  0.00     0.010 C 
HETATM   15  C           1     -28.061  -4.216 -16.806  0.00  0.00     0.012 C 
HETATM   16  C           1     -28.561  -5.732 -18.714  0.00  0.00     0.012 C 
ENDBRANCH  13  14
BRANCH  13  17
HETATM   17  C           1     -25.878  -6.489 -16.192  0.00  0.00     0.197 C 
HETATM   18  O           1     -24.914  -5.932 -15.620  0.00  0.00    -0.646 OA
HETATM   19  O           1     -26.405  -7.503 -15.683  0.00  0.00    -0.646 OA
ENDBRANCH  13  17
ENDBRANCH   1  13
TORSDOF 6
ENDMDL
MODEL 3
REMARK VINA RESULT:      -5.6     10.421     12.388
REMARK  6 active torsions:
REMARK  status: ('A' for Active; 'I' for Inactive)
REMARK    1  A    between atoms: C_2  and  C_3 
REMARK    2  A    between atoms: C_3  and  C_8 
REMARK    3  A    between atoms: C_3  and  N_16 
REMARK    4  A    between atoms: N_4  and  C_19 
REMARK       I    between atoms: N_4  and  C_8 
REMARK    5  A    between atoms: C_11  and  C_19 
REMARK    6  A    between atoms: C_18  and  C_19 
ROOT
HETATM    1  N           1     -27.850  -6.665 -18.288  0.00  0.00    -0.344 N 
HETATM    2  C           1     -27.306  -6.556 -19.539  0.00  0.00     0.249 C 
HETATM    3  H           1     -27.643  -7.474 -17.715  0.00  0.00     0.163 HD
HETATM    4  O           1     -27.552  -5.592 -20.223  0.00  0.00    -0.271 OA
ENDROOT
BRANCH   2   5
HETATM    5  C           1     -26.400  -7.643 -20.065  0.00  0.00     0.278 C 
BRANCH   5   6
HETATM    6  C           1     -25.094  -7.027 -20.548  0.00  0.00     0.017 C 
HETATM    7  C           1     -24.073  -7.048 -19.417  0.00  0.00     0.012 C 
HETATM    8  C           1     -24.559  -7.828 -21.727  0.00  0.00     0.012 C 
ENDBRANCH   5   6
BRANCH   5   9
HETATM    9  N           1     -27.072  -8.345 -21.207  0.00  0.00    -0.066 N 
HETATM   10  H           1     -27.684  -9.107 -20.835  0.00  0.00     0.275 HD
HETATM   11  H           1     -26.347  -8.757 -21.837  0.00  0.00     0.275 HD
HETATM   12  H           1     -27.653  -7.662 -21.743  0.00  0.00     0.275 HD
ENDBRANCH   5   9
ENDBRANCH   2   5
BRANCH   1  13
HETATM   13  C           1     -28.721  -5.622 -17.783  0.00  0.00     0.189 C 
BRANCH  13  14
HETATM   14  C           1     -29.960  -6.253 -17.160  0.00  0.00     0.010 C 
HETATM   15  C           1     -31.035  -5.189 -16.979  0.00  0.00     0.012 C 
HETATM   16  C           1     -30.482  -7.354 -18.074  0.00  0.00     0.012 C 
ENDBRANCH  13  14
BRANCH  13  17
HETATM   17  C           1     -27.987  -4.816 -16.739  0.00  0.00     0.197 C 
HETATM   18  O           1     -27.365  -5.399 -15.824  0.00  0.00    -0.646 OA
HETATM   19  O           1     -28.002  -3.567 -16.789  0.00  0.00    -0.646 OA
ENDBRANCH  13  17
ENDBRANCH   1  13
TORSDOF 6
ENDMDL
MODEL 4
REMARK VINA RESULT:      -5.6     10.031     11.309
REMARK  6 active torsions:
REMARK  status: ('A' for Active; 'I' for Inactive)
REMARK    1  A    between atoms: C_2  and  C_3 
REMARK    2  A    between atoms: C_3  and  C_8 
REMARK    3  A    between atoms: C_3  and  N_16 
REMARK    4  A    between atoms: N_4  and  C_19 
REMARK       I    between atoms: N_4  and  C_8 
REMARK    5  A    between atoms: C_11  and  C_19 
REMARK    6  A    between atoms: C_18  and  C_19 
ROOT
HETATM    1  N           1     -26.856  -6.248 -17.862  0.00  0.00    -0.344 N 
HETATM    2  C           1     -25.500  -6.347 -17.707  0.00  0.00     0.249 C 
HETATM    3  H           1     -27.274  -6.395 -18.772  0.00  0.00     0.163 HD
HETATM    4  O           1     -25.001  -6.171 -16.622  0.00  0.00    -0.271 OA
ENDROOT
BRANCH   2   5
HETATM    5  C           1     -24.627  -6.673 -18.895  0.00  0.00     0.278 C 
BRANCH   5   6
HETATM    6  C           1     -25.500  -7.121 -20.059  0.00  0.00     0.017 C 
HETATM    7  C           1     -25.828  -5.922 -20.940  0.00  0.00     0.012 C 
HETATM    8  C           1     -24.754  -8.163 -20.882  0.00  0.00     0.012 C 
ENDBRANCH   5   6
BRANCH   5   9
HETATM    9  N           1     -23.677  -7.774 -18.531  0.00  0.00    -0.066 N 
HETATM   10  H           1     -23.339  -8.245 -19.400  0.00  0.00     0.275 HD
HETATM   11  H           1     -24.167  -8.471 -17.925  0.00  0.00     0.275 HD
HETATM   12  H           1     -22.863  -7.375 -18.011  0.00  0.00     0.275 HD
ENDBRANCH   5   9
ENDBRANCH   2   5
BRANCH   1  13
HETATM   13  C           1     -27.695  -5.934 -16.721  0.00  0.00     0.189 C 
BRANCH  13  14
HETATM   14  C           1     -28.825  -5.011 -17.162  0.00  0.00     0.010 C 
HETATM   15  C           1     -28.469  -3.572 -16.813  0.00  0.00     0.012 C 
HETATM   16  C           1     -29.023  -5.136 -18.666  0.00  0.00     0.012 C 
ENDBRANCH  13  14
BRANCH  13  17
HETATM   17  C           1     -28.275  -7.208 -16.158  0.00  0.00     0.197 C 
HETATM   18  O           1     -29.150  -7.832 -16.798  0.00  0.00    -0.646 OA
HETATM   19  O           1     -27.882  -7.639 -15.053  0.00  0.00    -0.646 OA
ENDBRANCH  13  17
ENDBRANCH   1  13
TORSDOF 6
ENDMDL
MODEL 5
REMARK VINA RESULT:      -5.4      5.848      8.070
REMARK  6 active torsions:
REMARK  status: ('A' for Active; 'I' for Inactive)
REMARK    1  A    between atoms: C_2  and  C_3 
REMARK    2  A    between atoms: C_3  and  C_8 
REMARK    3  A    between atoms: C_3  and  N_16 
REMARK    4  A    between atoms: N_4  and  C_19 
REMARK       I    between atoms: N_4  and  C_8 
REMARK    5  A    between atoms: C_11  and  C_19 
REMARK    6  A    between atoms: C_18  and  C_19 
ROOT
HETATM    1  N           1     -21.031  -8.494  -2.406  0.00  0.00    -0.344 N 
HETATM    2  C           1     -21.719  -9.578  -1.930  0.00  0.00     0.249 C 
HETATM    3  H           1     -20.544  -7.881  -1.763  0.00  0.00     0.163 HD
HETATM    4  O           1     -22.300 -10.308  -2.696  0.00  0.00    -0.271 OA
ENDROOT
BRANCH   2   5
HETATM    5  C           1     -21.753  -9.858  -0.447  0.00  0.00     0.278 C 
BRANCH   5   6
HETATM    6  C           1     -21.706  -8.543   0.319  0.00  0.00     0.017 C 
HETATM    7  C           1     -23.125  -8.083   0.628  0.00  0.00     0.012 C 
HETATM    8  C           1     -20.943  -8.742   1.623  0.00  0.00     0.012 C 
ENDBRANCH   5   6
BRANCH   5   9
HETATM    9  N           1     -20.571 -10.699  -0.069  0.00  0.00    -0.066 N 
HETATM   10  H           1     -20.899 -11.554   0.434  0.00  0.00     0.275 HD
HETATM   11  H           1     -19.938 -10.149   0.554  0.00  0.00     0.275 HD
HETATM   12  H           1     -20.053 -10.980  -0.932  0.00  0.00     0.275 HD
ENDBRANCH   5   9
ENDBRANCH   2   5
BRANCH   1  13
HETATM   13  C           1     -20.999  -8.224  -3.830  0.00  0.00     0.189 C 
BRANCH  13  14
HETATM   14  C           1     -21.197  -6.732  -4.068  0.00  0.00     0.010 C 
HETATM   15  C           1     -22.296  -6.525  -5.102  0.00  0.00     0.012 C 
HETATM   16  C           1     -21.594  -6.059  -2.761  0.00  0.00     0.012 C 
ENDBRANCH  13  14
BRANCH  13  17
HETATM   17  C           1     -19.665  -8.651  -4.392  0.00  0.00     0.197 C 
HETATM   18  O           1     -18.743  -8.996  -3.621  0.00  0.00    -0.646 OA
HETATM   19  O           1     -19.482  -8.660  -5.629  0.00  0.00    -0.646 OA
ENDBRANCH  13  17
ENDBRANCH   1  13
TORSDOF 6
ENDMDL
MODEL 6
REMARK VINA RESULT:      -5.3      5.810      8.649
REMARK  6 active torsions:
REMARK  status: ('A' for Active; 'I' for Inactive)
REMARK    1  A    between atoms: C_2  and  C_3 
REMARK    2  A    between atoms: C_3  and  C_8 
REMARK    3  A    between atoms: C_3  and  N_16 
REMARK    4  A    between atoms: N_4  and  C_19 
REMARK       I    between atoms: N_4  and  C_8 
REMARK    5  A    between atoms: C_11  and  C_19 
REMARK    6  A    between atoms: C_18  and  C_19 
ROOT
HETATM    1  N           1     -21.425  -8.456  -2.687  0.00  0.00    -0.344 N 
HETATM    2  C           1     -20.310  -8.357  -3.475  0.00  0.00     0.249 C 
HETATM    3  H           1     -22.302  -8.058  -2.998  0.00  0.00     0.163 HD
HETATM    4  O           1     -19.263  -8.831  -3.103  0.00  0.00    -0.271 OA
ENDROOT
BRANCH   2   5
HETATM    5  C           1     -20.388  -7.650  -4.806  0.00  0.00     0.278 C 
BRANCH   5   6
HETATM    6  C           1     -21.096  -6.314  -4.632  0.00  0.00     0.017 C 
HETATM    7  C           1     -20.356  -5.239  -5.418  0.00  0.00     0.012 C 
HETATM    8  C           1     -22.525  -6.425  -5.148  0.00  0.00     0.012 C 
ENDBRANCH   5   6
BRANCH   5   9
HETATM    9  N           1     -21.152  -8.497  -5.778  0.00  0.00    -0.066 N 
HETATM   10  H           1     -20.569  -9.317  -6.060  0.00  0.00     0.275 HD
HETATM   11  H           1     -21.388  -7.930  -6.624  0.00  0.00     0.275 HD
HETATM   12  H           1     -22.034  -8.835  -5.329  0.00  0.00     0.275 HD
ENDBRANCH   5   9
ENDBRANCH   2   5
BRANCH   1  13
HETATM   13  C           1     -21.350  -9.134  -1.407  0.00  0.00     0.189 C 
BRANCH  13  14
HETATM   14  C           1     -22.194  -8.381  -0.385  0.00  0.00     0.010 C 
HETATM   15  C           1     -21.498  -8.415   0.969  0.00  0.00     0.012 C 
HETATM   16  C           1     -22.364  -6.937  -0.834  0.00  0.00     0.012 C 
ENDBRANCH  13  14
BRANCH  13  17
HETATM   17  C           1     -21.872 -10.542  -1.553  0.00  0.00     0.197 C 
HETATM   18  O           1     -23.081 -10.737  -1.808  0.00  0.00    -0.646 OA
HETATM   19  O           1     -21.097 -11.514  -1.418  0.00  0.00    -0.646 OA
ENDBRANCH  13  17
ENDBRANCH   1  13
TORSDOF 6
ENDMDL
MODEL 7
REMARK VINA RESULT:      -5.1      9.163     11.511
REMARK  6 active torsions:
REMARK  status: ('A' for Active; 'I' for Inactive)
REMARK    1  A    between atoms: C_2  and  C_3 
REMARK    2  A    between atoms: C_3  and  C_8 
REMARK    3  A    between atoms: C_3  and  N_16 
REMARK    4  A    between atoms: N_4  and  C_19 
REMARK       I    between atoms: N_4  and  C_8 
REMARK    5  A    between atoms: C_11  and  C_19 
REMARK    6  A    between atoms: C_18  and  C_19 
ROOT
HETATM    1  N           1     -21.538 -10.865  -0.276  0.00  0.00    -0.344 N 
HETATM    2  C           1     -21.001  -9.772   0.348  0.00  0.00     0.249 C 
HETATM    3  H           1     -21.900 -10.783  -1.218  0.00  0.00     0.163 HD
HETATM    4  O           1     -20.569  -9.869   1.472  0.00  0.00    -0.271 OA
ENDROOT
BRANCH   2   5
HETATM    5  C           1     -20.952  -8.443  -0.367  0.00  0.00     0.278 C 
BRANCH   5   6
HETATM    6  C           1     -22.369  -7.981  -0.678  0.00  0.00     0.017 C 
HETATM    7  C           1     -23.173  -7.900   0.613  0.00  0.00     0.012 C 
HETATM    8  C           1     -22.323  -6.607  -1.333  0.00  0.00     0.012 C 
ENDBRANCH   5   6
BRANCH   5   9
HETATM    9  N           1     -20.183  -8.591  -1.645  0.00  0.00    -0.066 N 
HETATM   10  H           1     -20.036  -9.606  -1.848  0.00  0.00     0.275 HD
HETATM   11  H           1     -19.256  -8.117  -1.550  0.00  0.00     0.275 HD
HETATM   12  H           1     -20.719  -8.153  -2.428  0.00  0.00     0.275 HD
ENDBRANCH   5   9
ENDBRANCH   2   5
BRANCH   1  13
HETATM   13  C           1     -21.586 -12.141   0.411  0.00  0.00     0.189 C 
BRANCH  13  14
HETATM   14  C           1     -22.981 -12.739   0.274  0.00  0.00     0.010 C 
HETATM   15  C           1     -23.376 -13.411   1.582  0.00  0.00     0.012 C 
HETATM   16  C           1     -23.976 -11.633  -0.052  0.00  0.00     0.012 C 
ENDBRANCH  13  14
BRANCH  13  17
HETATM   17  C           1     -20.574 -13.079  -0.199  0.00  0.00     0.197 C 
HETATM   18  O           1     -19.374 -13.017   0.149  0.00  0.00    -0.646 OA
HETATM   19  O           1     -20.934 -13.918  -1.053  0.00  0.00    -0.646 OA
ENDBRANCH  13  17
ENDBRANCH   1  13
TORSDOF 6
ENDMDL
MODEL 8
REMARK VINA RESULT:      -5.1      5.918      7.725
REMARK  6 active torsions:
REMARK  status: ('A' for Active; 'I' for Inactive)
REMARK    1  A    between atoms: C_2  and  C_3 
REMARK    2  A    between atoms: C_3  and  C_8 
REMARK    3  A    between atoms: C_3  and  N_16 
REMARK    4  A    between atoms: N_4  and  C_19 
REMARK       I    between atoms: N_4  and  C_8 
REMARK    5  A    between atoms: C_11  and  C_19 
REMARK    6  A    between atoms: C_18  and  C_19 
ROOT
HETATM    1  N           1     -21.596  -8.730  -2.728  0.00  0.00    -0.344 N 
HETATM    2  C           1     -21.045  -9.030  -1.512  0.00  0.00     0.249 C 
HETATM    3  H           1     -22.427  -9.218  -3.041  0.00  0.00     0.163 HD
HETATM    4  O           1     -20.054  -8.450  -1.138  0.00  0.00    -0.271 OA
ENDROOT
BRANCH   2   5
HETATM    5  C           1     -21.673 -10.090  -0.639  0.00  0.00     0.278 C 
BRANCH   5   6
HETATM    6  C           1     -23.160  -9.801  -0.480  0.00  0.00     0.017 C 
HETATM    7  C           1     -23.865 -11.041   0.054  0.00  0.00     0.012 C 
HETATM    8  C           1     -23.351  -8.649   0.499  0.00  0.00     0.012 C 
ENDBRANCH   5   6
BRANCH   5   9
HETATM    9  N           1     -21.016 -10.082   0.709  0.00  0.00    -0.066 N 
HETATM   10  H           1     -21.645 -10.541   1.406  0.00  0.00     0.275 HD
HETATM   11  H           1     -20.833  -9.096   1.001  0.00  0.00     0.275 HD
HETATM   12  H           1     -20.112 -10.603   0.659  0.00  0.00     0.275 HD
ENDBRANCH   5   9
ENDBRANCH   2   5
BRANCH   1  13
HETATM   13  C           1     -20.992  -7.714  -3.567  0.00  0.00     0.189 C 
BRANCH  13  14
HETATM   14  C           1     -20.744  -8.286  -4.957  0.00  0.00     0.010 C 
HETATM   15  C           1     -19.248  -8.485  -5.164  0.00  0.00     0.012 C 
HETATM   16  C           1     -21.458  -9.625  -5.089  0.00  0.00     0.012 C 
ENDBRANCH  13  14
BRANCH  13  17
HETATM   17  C           1     -21.920  -6.529  -3.668  0.00  0.00     0.197 C 
HETATM   18  O           1     -22.384  -6.008  -2.631  0.00  0.00    -0.646 OA
HETATM   19  O           1     -22.226  -6.068  -4.790  0.00  0.00    -0.646 OA
ENDBRANCH  13  17
ENDBRANCH   1  13
TORSDOF 6
ENDMDL
MODEL 9
REMARK VINA RESULT:      -5.1      3.189      4.554
REMARK  6 active torsions:
REMARK  status: ('A' for Active; 'I' for Inactive)
REMARK    1  A    between atoms: C_2  and  C_3 
REMARK    2  A    between atoms: C_3  and  C_8 
REMARK    3  A    between atoms: C_3  and  N_16 
REMARK    4  A    between atoms: N_4  and  C_19 
REMARK       I    between atoms: N_4  and  C_8 
REMARK    5  A    between atoms: C_11  and  C_19 
REMARK    6  A    between atoms: C_18  and  C_19 
ROOT
HETATM    1  N           1     -21.623  -5.933  -5.846  0.00  0.00    -0.344 N 
HETATM    2  C           1     -21.256  -7.165  -5.376  0.00  0.00     0.249 C 
HETATM    3  H           1     -22.308  -5.383  -5.342  0.00  0.00     0.163 HD
HETATM    4  O           1     -20.439  -7.822  -5.976  0.00  0.00    -0.271 OA
ENDROOT
BRANCH   2   5
HETATM    5  C           1     -21.875  -7.705  -4.110  0.00  0.00     0.278 C 
BRANCH   5   6
HETATM    6  C           1     -21.167  -7.105  -2.903  0.00  0.00     0.017 C 
HETATM    7  C           1     -22.135  -6.214  -2.136  0.00  0.00     0.012 C 
HETATM    8  C           1     -20.680  -8.224  -1.991  0.00  0.00     0.012 C 
ENDBRANCH   5   6
BRANCH   5   9
HETATM    9  N           1     -21.734  -9.197  -4.080  0.00  0.00    -0.066 N 
HETATM   10  H           1     -22.660  -9.631  -3.863  0.00  0.00     0.275 HD
HETATM   11  H           1     -21.041  -9.467  -3.346  0.00  0.00     0.275 HD
HETATM   12  H           1     -21.402  -9.535  -5.012  0.00  0.00     0.275 HD
ENDBRANCH   5   9
ENDBRANCH   2   5
BRANCH   1  13
HETATM   13  C           1     -21.029  -5.415  -7.063  0.00  0.00     0.189 C 
BRANCH  13  14
HETATM   14  C           1     -21.981  -4.412  -7.703  0.00  0.00     0.010 C 
HETATM   15  C           1     -22.037  -4.655  -9.206  0.00  0.00     0.012 C 
HETATM   16  C           1     -23.372  -4.581  -7.108  0.00  0.00     0.012 C 
ENDBRANCH  13  14
BRANCH  13  17
HETATM   17  C           1     -19.724  -4.733  -6.735  0.00  0.00     0.197 C 
HETATM   18  O           1     -19.469  -4.406  -5.555  0.00  0.00    -0.646 OA
HETATM   19  O           1     -18.898  -4.493  -7.643  0.00  0.00    -0.646 OA
ENDBRANCH  13  17
ENDBRANCH   1  13
TORSDOF 6
ENDMDL
