MODEL 1
REMARK VINA RESULT:      -7.5      0.000      0.000
REMARK  5 active torsions:
REMARK  status: ('A' for Active; 'I' for Inactive)
REMARK    1  A    between atoms: C_4  and  C_13 
REMARK    2  A    between atoms: C_4  and  C_7 
REMARK    3  A    between atoms: C_4  and  N_20 
REMARK    4  A    between atoms: C_7  and  C_16 
REMARK       I    between atoms: C_18  and  N_20 
REMARK    5  A    between atoms: C_18  and  C_23 
ROOT
HETATM    1  C           1     -19.910  -8.766  -4.699  0.00  0.00     0.189 C 
ENDROOT
BRANCH   1   2
HETATM    2  C           1     -20.063 -10.055  -5.470  0.00  0.00     0.197 C 
HETATM    3  O           1     -19.110 -10.859  -5.539  0.00  0.00    -0.646 OA
HETATM    4  O           1     -21.144 -10.317  -6.041  0.00  0.00    -0.646 OA
ENDBRANCH   1   2
BRANCH   1   5
HETATM    5  C           1     -19.384  -9.069  -3.303  0.00  0.00     0.073 C 
BRANCH   5   6
HETATM    6  C           1     -20.478  -9.665  -2.473  0.00  0.00    -0.047 A 
HETATM    7  C           1     -21.307  -8.968  -1.552  0.00  0.00    -0.006 A 
HETATM    8  C           1     -22.186  -9.902  -1.001  0.00  0.00     0.038 A 
HETATM    9  C           1     -21.394  -7.627  -1.133  0.00  0.00     0.014 A 
HETATM   10  N           1     -21.892 -11.119  -1.574  0.00  0.00    -0.385 N 
HETATM   11  C           1     -23.152  -9.559  -0.048  0.00  0.00     0.030 A 
HETATM   12  H           1     -22.388 -12.020  -1.358  0.00  0.00     0.160 HD
HETATM   13  C           1     -20.860 -10.988  -2.465  0.00  0.00     0.093 A 
HETATM   14  C           1     -23.219  -8.222   0.352  0.00  0.00     0.002 A 
HETATM   15  C           1     -22.355  -7.268  -0.181  0.00  0.00     0.001 A 
ENDBRANCH   5   6
ENDBRANCH   1   5
BRANCH   1  16
HETATM   16  N           1     -21.198  -8.108  -4.598  0.00  0.00    -0.344 N 
HETATM   17  H           1     -21.976  -8.583  -4.160  0.00  0.00     0.163 HD
HETATM   18  C           1     -21.360  -6.842  -5.093  0.00  0.00     0.252 C 
HETATM   19  O           1     -22.433  -6.294  -5.008  0.00  0.00    -0.271 OA
BRANCH  18  20
HETATM   20  C           1     -20.199  -6.132  -5.746  0.00  0.00     0.370 C 
HETATM   21  C           1     -20.337  -4.627  -5.604  0.00  0.00     0.048 C 
HETATM   22  C           1     -21.013  -4.165  -6.889  0.00  0.00     0.033 C 
HETATM   23  C           1     -21.220  -5.431  -7.704  0.00  0.00     0.271 C 
HETATM   24  N           1     -20.205  -6.347  -7.190  0.00  0.00     0.097 N 
HETATM   25  H           1     -19.298  -6.110  -7.594  0.00  0.00     0.317 HD
ENDBRANCH  18  20
ENDBRANCH   1  16
TORSDOF 5
ENDMDL
MODEL 2
REMARK VINA RESULT:      -7.5      2.385      6.872
REMARK  5 active torsions:
REMARK  status: ('A' for Active; 'I' for Inactive)
REMARK    1  A    between atoms: C_4  and  C_13 
REMARK    2  A    between atoms: C_4  and  C_7 
REMARK    3  A    between atoms: C_4  and  N_20 
REMARK    4  A    between atoms: C_7  and  C_16 
REMARK       I    between atoms: C_18  and  N_20 
REMARK    5  A    between atoms: C_18  and  C_23 
ROOT
HETATM    1  C           1     -21.179  -6.874  -4.556  0.00  0.00     0.189 C 
ENDROOT
BRANCH   1   2
HETATM    2  C           1     -21.577  -6.775  -3.103  0.00  0.00     0.197 C 
HETATM    3  O           1     -20.992  -7.472  -2.247  0.00  0.00    -0.646 OA
HETATM    4  O           1     -22.493  -5.999  -2.758  0.00  0.00    -0.646 OA
ENDBRANCH   1   2
BRANCH   1   5
HETATM    5  C           1     -21.919  -5.812  -5.359  0.00  0.00     0.073 C 
BRANCH   5   6
HETATM    6  C           1     -21.062  -5.360  -6.501  0.00  0.00    -0.047 A 
HETATM    7  C           1     -21.524  -4.834  -7.738  0.00  0.00    -0.006 A 
HETATM    8  C           1     -20.396  -4.544  -8.508  0.00  0.00     0.038 A 
HETATM    9  C           1     -22.797  -4.574  -8.279  0.00  0.00     0.014 A 
HETATM   10  N           1     -19.295  -4.887  -7.755  0.00  0.00    -0.385 N 
HETATM   11  C           1     -20.479  -4.006  -9.797  0.00  0.00     0.030 A 
HETATM   12  H           1     -18.297  -4.784  -8.069  0.00  0.00     0.160 HD
HETATM   13  C           1     -19.686  -5.382  -6.539  0.00  0.00     0.093 A 
HETATM   14  C           1     -21.754  -3.757 -10.312  0.00  0.00     0.002 A 
HETATM   15  C           1     -22.898  -4.036  -9.567  0.00  0.00     0.001 A 
ENDBRANCH   5   6
ENDBRANCH   1   5
BRANCH   1  16
HETATM   16  N           1     -21.521  -8.188  -5.063  0.00  0.00    -0.344 N 
HETATM   17  H           1     -22.486  -8.418  -5.262  0.00  0.00     0.163 HD
HETATM   18  C           1     -20.538  -9.118  -5.272  0.00  0.00     0.252 C 
HETATM   19  O           1     -20.824 -10.213  -5.694  0.00  0.00    -0.271 OA
BRANCH  18  20
HETATM   20  C           1     -19.099  -8.775  -4.975  0.00  0.00     0.370 C 
HETATM   21  C           1     -18.157  -9.651  -5.783  0.00  0.00     0.048 C 
HETATM   22  C           1     -17.805 -10.812  -4.861  0.00  0.00     0.033 C 
HETATM   23  C           1     -18.559 -10.536  -3.571  0.00  0.00     0.271 C 
HETATM   24  N           1     -18.765  -9.091  -3.589  0.00  0.00     0.097 N 
HETATM   25  H           1     -17.904  -8.621  -3.309  0.00  0.00     0.317 HD
ENDBRANCH  18  20
ENDBRANCH   1  16
TORSDOF 5
ENDMDL
MODEL 3
REMARK VINA RESULT:      -7.3     16.196     18.170
REMARK  5 active torsions:
REMARK  status: ('A' for Active; 'I' for Inactive)
REMARK    1  A    between atoms: C_4  and  C_13 
REMARK    2  A    between atoms: C_4  and  C_7 
REMARK    3  A    between atoms: C_4  and  N_20 
REMARK    4  A    between atoms: C_7  and  C_16 
REMARK       I    between atoms: C_18  and  N_20 
REMARK    5  A    between atoms: C_18  and  C_23 
ROOT
HETATM    1  C           1     -36.933  -1.128 -10.854  0.00  0.00     0.189 C 
ENDROOT
BRANCH   1   2
HETATM    2  C           1     -36.958  -0.127 -11.983  0.00  0.00     0.197 C 
HETATM    3  O           1     -38.025   0.103 -12.591  0.00  0.00    -0.646 OA
HETATM    4  O           1     -35.910   0.470 -12.312  0.00  0.00    -0.646 OA
ENDBRANCH   1   2
BRANCH   1   5
HETATM    5  C           1     -38.061  -0.820  -9.877  0.00  0.00     0.073 C 
BRANCH   5   6
HETATM    6  C           1     -37.565   0.117  -8.819  0.00  0.00    -0.047 A 
HETATM    7  C           1     -37.609  -0.106  -7.416  0.00  0.00    -0.006 A 
HETATM    8  C           1     -37.046   1.015  -6.804  0.00  0.00     0.038 A 
HETATM    9  C           1     -38.075  -1.157  -6.604  0.00  0.00     0.014 A 
HETATM   10  N           1     -36.677   1.881  -7.810  0.00  0.00    -0.385 N 
HETATM   11  C           1     -36.925   1.137  -5.415  0.00  0.00     0.030 A 
HETATM   12  H           1     -36.223   2.816  -7.660  0.00  0.00     0.160 HD
HETATM   13  C           1     -36.987   1.347  -9.032  0.00  0.00     0.093 A 
HETATM   14  C           1     -37.395   0.080  -4.630  0.00  0.00     0.002 A 
HETATM   15  C           1     -37.962  -1.051  -5.213  0.00  0.00     0.001 A 
ENDBRANCH   5   6
ENDBRANCH   1   5
BRANCH   1  16
HETATM   16  N           1     -35.661  -1.046 -10.163  0.00  0.00    -0.344 N 
HETATM   17  H           1     -35.520  -0.350  -9.444  0.00  0.00     0.163 HD
HETATM   18  C           1     -34.651  -1.912 -10.486  0.00  0.00     0.252 C 
HETATM   19  O           1     -33.591  -1.844  -9.910  0.00  0.00    -0.271 OA
BRANCH  18  20
HETATM   20  C           1     -34.862  -2.952 -11.559  0.00  0.00     0.370 C 
HETATM   21  C           1     -35.127  -4.316 -10.946  0.00  0.00     0.048 C 
HETATM   22  C           1     -33.767  -5.003 -10.903  0.00  0.00     0.033 C 
HETATM   23  C           1     -32.796  -3.999 -11.500  0.00  0.00     0.271 C 
HETATM   24  N           1     -33.641  -3.151 -12.336  0.00  0.00     0.097 N 
HETATM   25  H           1     -33.845  -3.632 -13.212  0.00  0.00     0.317 HD
ENDBRANCH  18  20
ENDBRANCH   1  16
TORSDOF 5
ENDMDL
MODEL 4
REMARK VINA RESULT:      -7.3      1.882      6.206
REMARK  5 active torsions:
REMARK  status: ('A' for Active; 'I' for Inactive)
REMARK    1  A    between atoms: C_4  and  C_13 
REMARK    2  A    between atoms: C_4  and  C_7 
REMARK    3  A    between atoms: C_4  and  N_20 
REMARK    4  A    between atoms: C_7  and  C_16 
REMARK       I    between atoms: C_18  and  N_20 
REMARK    5  A    between atoms: C_18  and  C_23 
ROOT
HETATM    1  C           1     -20.673  -9.409  -4.243  0.00  0.00     0.189 C 
ENDROOT
BRANCH   1   2
HETATM    2  C           1     -20.679 -10.554  -5.226  0.00  0.00     0.197 C 
HETATM    3  O           1     -21.613 -11.384  -5.213  0.00  0.00    -0.646 OA
HETATM    4  O           1     -19.750 -10.673  -6.053  0.00  0.00    -0.646 OA
ENDBRANCH   1   2
BRANCH   1   5
HETATM    5  C           1     -19.922  -8.228  -4.843  0.00  0.00     0.073 C 
BRANCH   5   6
HETATM    6  C           1     -20.898  -7.161  -5.234  0.00  0.00    -0.047 A 
HETATM    7  C           1     -20.685  -6.147  -6.207  0.00  0.00    -0.006 A 
HETATM    8  C           1     -21.845  -5.372  -6.254  0.00  0.00     0.038 A 
HETATM    9  C           1     -19.613  -5.811  -7.056  0.00  0.00     0.014 A 
HETATM   10  N           1     -22.723  -5.905  -5.337  0.00  0.00    -0.385 N 
HETATM   11  C           1     -21.986  -4.274  -7.110  0.00  0.00     0.030 A 
HETATM   12  H           1     -23.688  -5.535  -5.144  0.00  0.00     0.160 HD
HETATM   13  C           1     -22.161  -6.988  -4.715  0.00  0.00     0.093 A 
HETATM   14  C           1     -20.908  -3.961  -7.943  0.00  0.00     0.002 A 
HETATM   15  C           1     -19.738  -4.717  -7.918  0.00  0.00     0.001 A 
ENDBRANCH   5   6
ENDBRANCH   1   5
BRANCH   1  16
HETATM   16  N           1     -20.017  -9.827  -3.020  0.00  0.00    -0.344 N 
HETATM   17  H           1     -19.018  -9.987  -3.010  0.00  0.00     0.163 HD
HETATM   18  C           1     -20.749 -10.004  -1.876  0.00  0.00     0.252 C 
HETATM   19  O           1     -20.201 -10.353  -0.857  0.00  0.00    -0.271 OA
BRANCH  18  20
HETATM   20  C           1     -22.239  -9.765  -1.890  0.00  0.00     0.370 C 
HETATM   21  C           1     -22.785  -9.675  -0.475  0.00  0.00     0.048 C 
HETATM   22  C           1     -23.270 -11.082  -0.146  0.00  0.00     0.033 C 
HETATM   23  C           1     -22.982 -11.902  -1.392  0.00  0.00     0.271 C 
HETATM   24  N           1     -22.944 -10.909  -2.462  0.00  0.00     0.097 N 
HETATM   25  H           1     -23.896 -10.653  -2.723  0.00  0.00     0.317 HD
ENDBRANCH  18  20
ENDBRANCH   1  16
TORSDOF 5
ENDMDL
MODEL 5
REMARK VINA RESULT:      -7.2     15.396     17.572
REMARK  5 active torsions:
REMARK  status: ('A' for Active; 'I' for Inactive)
REMARK    1  A    between atoms: C_4  and  C_13 
REMARK    2  A    between atoms: C_4  and  C_7 
REMARK    3  A    between atoms: C_4  and  N_20 
REMARK    4  A    between atoms: C_7  and  C_16 
REMARK       I    between atoms: C_18  and  N_20 
REMARK    5  A    between atoms: C_18  and  C_23 
ROOT
HETATM    1  C           1     -35.441  -1.514 -11.222  0.00  0.00     0.189 C 
ENDROOT
BRANCH   1   2
HETATM    2  C           1     -36.752  -1.185 -10.550  0.00  0.00     0.197 C 
HETATM    3  O           1     -36.775  -0.893  -9.336  0.00  0.00    -0.646 OA
HETATM    4  O           1     -37.814  -1.206 -11.208  0.00  0.00    -0.646 OA
ENDBRANCH   1   2
BRANCH   1   5
HETATM    5  C           1     -34.484  -2.116 -10.202  0.00  0.00     0.073 C 
BRANCH   5   6
HETATM    6  C           1     -33.833  -3.333 -10.783  0.00  0.00    -0.047 A 
HETATM    7  C           1     -34.169  -4.683 -10.491  0.00  0.00    -0.006 A 
HETATM    8  C           1     -33.318  -5.491 -11.247  0.00  0.00     0.038 A 
HETATM    9  C           1     -35.118  -5.298  -9.652  0.00  0.00     0.014 A 
HETATM   10  N           1     -32.500  -4.651 -11.968  0.00  0.00    -0.385 N 
HETATM   11  C           1     -33.370  -6.889 -11.206  0.00  0.00     0.030 A 
HETATM   12  H           1     -31.750  -4.968 -12.633  0.00  0.00     0.160 HD
HETATM   13  C           1     -32.803  -3.343 -11.695  0.00  0.00     0.093 A 
HETATM   14  C           1     -34.321  -7.476 -10.366  0.00  0.00     0.002 A 
HETATM   15  C           1     -35.183  -6.695  -9.600  0.00  0.00     0.001 A 
ENDBRANCH   5   6
ENDBRANCH   1   5
BRANCH   1  16
HETATM   16  N           1     -34.862  -0.303 -11.770  0.00  0.00    -0.344 N 
HETATM   17  H           1     -34.343   0.326 -11.172  0.00  0.00     0.163 HD
HETATM   18  C           1     -35.018  -0.011 -13.099  0.00  0.00     0.252 C 
HETATM   19  O           1     -34.535   0.998 -13.555  0.00  0.00    -0.271 OA
BRANCH  18  20
HETATM   20  C           1     -35.792  -0.949 -13.992  0.00  0.00     0.370 C 
HETATM   21  C           1     -35.321  -0.837 -15.431  0.00  0.00     0.048 C 
HETATM   22  C           1     -36.269   0.161 -16.084  0.00  0.00     0.033 C 
HETATM   23  C           1     -37.239   0.563 -14.986  0.00  0.00     0.271 C 
HETATM   24  N           1     -37.199  -0.562 -14.056  0.00  0.00     0.097 N 
HETATM   25  H           1     -37.767  -1.327 -14.422  0.00  0.00     0.317 HD
ENDBRANCH  18  20
ENDBRANCH   1  16
TORSDOF 5
ENDMDL
MODEL 6
REMARK VINA RESULT:      -6.8      2.209      2.943
REMARK  5 active torsions:
REMARK  status: ('A' for Active; 'I' for Inactive)
REMARK    1  A    between atoms: C_4  and  C_13 
REMARK    2  A    between atoms: C_4  and  C_7 
REMARK    3  A    between atoms: C_4  and  N_20 
REMARK    4  A    between atoms: C_7  and  C_16 
REMARK       I    between atoms: C_18  and  N_20 
REMARK    5  A    between atoms: C_18  and  C_23 
ROOT
HETATM    1  C           1     -21.016  -6.973  -4.646  0.00  0.00     0.189 C 
ENDROOT
BRANCH   1   2
HETATM    2  C           1     -22.265  -6.390  -4.031  0.00  0.00     0.197 C 
HETATM    3  O           1     -23.318  -6.323  -4.700  0.00  0.00    -0.646 OA
HETATM    4  O           1     -22.245  -5.973  -2.853  0.00  0.00    -0.646 OA
ENDBRANCH   1   2
BRANCH   1   5
HETATM    5  C           1     -20.386  -7.964  -3.676  0.00  0.00     0.073 C 
BRANCH   5   6
HETATM    6  C           1     -21.279  -9.157  -3.529  0.00  0.00    -0.047 A 
HETATM    7  C           1     -21.993  -9.529  -2.358  0.00  0.00    -0.006 A 
HETATM    8  C           1     -22.695 -10.698  -2.658  0.00  0.00     0.038 A 
HETATM    9  C           1     -22.111  -8.983  -1.066  0.00  0.00     0.014 A 
HETATM   10  N           1     -22.408 -11.015  -3.967  0.00  0.00    -0.385 N 
HETATM   11  C           1     -23.511 -11.350  -1.727  0.00  0.00     0.030 A 
HETATM   12  H           1     -22.792 -11.847  -4.481  0.00  0.00     0.160 HD
HETATM   13  C           1     -21.553 -10.089  -4.503  0.00  0.00     0.093 A 
HETATM   14  C           1     -23.612 -10.788  -0.451  0.00  0.00     0.002 A 
HETATM   15  C           1     -22.924  -9.622  -0.123  0.00  0.00     0.001 A 
ENDBRANCH   5   6
ENDBRANCH   1   5
BRANCH   1  16
HETATM   16  N           1     -20.074  -5.908  -4.929  0.00  0.00    -0.344 N 
HETATM   17  H           1     -19.417  -5.612  -4.219  0.00  0.00     0.163 HD
HETATM   18  C           1     -20.073  -5.303  -6.157  0.00  0.00     0.252 C 
HETATM   19  O           1     -19.287  -4.416  -6.391  0.00  0.00    -0.271 OA
BRANCH  18  20
HETATM   20  C           1     -21.052  -5.745  -7.217  0.00  0.00     0.370 C 
HETATM   21  C           1     -20.493  -5.497  -8.607  0.00  0.00     0.048 C 
HETATM   22  C           1     -21.046  -4.138  -9.022  0.00  0.00     0.033 C 
HETATM   23  C           1     -21.898  -3.683  -7.849  0.00  0.00     0.271 C 
HETATM   24  N           1     -22.262  -4.928  -7.178  0.00  0.00     0.097 N 
HETATM   25  H           1     -23.020  -5.381  -7.689  0.00  0.00     0.317 HD
ENDBRANCH  18  20
ENDBRANCH   1  16
TORSDOF 5
ENDMDL
MODEL 7
REMARK VINA RESULT:      -6.8      2.379      4.649
REMARK  5 active torsions:
REMARK  status: ('A' for Active; 'I' for Inactive)
REMARK    1  A    between atoms: C_4  and  C_13 
REMARK    2  A    between atoms: C_4  and  C_7 
REMARK    3  A    between atoms: C_4  and  N_20 
REMARK    4  A    between atoms: C_7  and  C_16 
REMARK       I    between atoms: C_18  and  N_20 
REMARK    5  A    between atoms: C_18  and  C_23 
ROOT
HETATM    1  C           1     -20.126  -9.627  -4.992  0.00  0.00     0.189 C 
ENDROOT
BRANCH   1   2
HETATM    2  C           1     -20.770 -10.935  -5.381  0.00  0.00     0.197 C 
HETATM    3  O           1     -20.759 -11.898  -4.585  0.00  0.00    -0.646 OA
HETATM    4  O           1     -21.313 -11.056  -6.501  0.00  0.00    -0.646 OA
ENDBRANCH   1   2
BRANCH   1   5
HETATM    5  C           1     -21.038  -8.473  -5.389  0.00  0.00     0.073 C 
BRANCH   5   6
HETATM    6  C           1     -21.314  -7.618  -4.191  0.00  0.00    -0.047 A 
HETATM    7  C           1     -21.669  -8.082  -2.895  0.00  0.00    -0.006 A 
HETATM    8  C           1     -21.834  -6.956  -2.087  0.00  0.00     0.038 A 
HETATM    9  C           1     -21.867  -9.355  -2.328  0.00  0.00     0.014 A 
HETATM   10  N           1     -21.587  -5.854  -2.875  0.00  0.00    -0.385 N 
HETATM   11  C           1     -22.188  -7.041  -0.735  0.00  0.00     0.030 A 
HETATM   12  H           1     -21.633  -4.857  -2.545  0.00  0.00     0.160 HD
HETATM   13  C           1     -21.271  -6.243  -4.149  0.00  0.00     0.093 A 
HETATM   14  C           1     -22.379  -8.316  -0.196  0.00  0.00     0.002 A 
HETATM   15  C           1     -22.221  -9.458  -0.979  0.00  0.00     0.001 A 
ENDBRANCH   5   6
ENDBRANCH   1   5
BRANCH   1  16
HETATM   16  N           1     -18.854  -9.493  -5.674  0.00  0.00    -0.344 N 
HETATM   17  H           1     -18.829  -9.303  -6.667  0.00  0.00     0.163 HD
HETATM   18  C           1     -17.685  -9.622  -4.973  0.00  0.00     0.252 C 
HETATM   19  O           1     -16.625  -9.510  -5.541  0.00  0.00    -0.271 OA
BRANCH  18  20
HETATM   20  C           1     -17.721  -9.904  -3.491  0.00  0.00     0.370 C 
HETATM   21  C           1     -16.383  -9.584  -2.847  0.00  0.00     0.048 C 
HETATM   22  C           1     -15.626 -10.906  -2.823  0.00  0.00     0.033 C 
HETATM   23  C           1     -16.573 -11.916  -3.448  0.00  0.00     0.271 C 
HETATM   24  N           1     -17.895 -11.332  -3.238  0.00  0.00     0.097 N 
HETATM   25  H           1     -18.189 -11.495  -2.275  0.00  0.00     0.317 HD
ENDBRANCH  18  20
ENDBRANCH   1  16
TORSDOF 5
ENDMDL
MODEL 8
REMARK VINA RESULT:      -6.7      2.142      4.343
REMARK  5 active torsions:
REMARK  status: ('A' for Active; 'I' for Inactive)
REMARK    1  A    between atoms: C_4  and  C_13 
REMARK    2  A    between atoms: C_4  and  C_7 
REMARK    3  A    between atoms: C_4  and  N_20 
REMARK    4  A    between atoms: C_7  and  C_16 
REMARK       I    between atoms: C_18  and  N_20 
REMARK    5  A    between atoms: C_18  and  C_23 
ROOT
HETATM    1  C           1     -20.963  -7.885  -3.575  0.00  0.00     0.189 C 
ENDROOT
BRANCH   1   2
HETATM    2  C           1     -21.688  -6.566  -3.690  0.00  0.00     0.197 C 
HETATM    3  O           1     -22.640  -6.445  -4.491  0.00  0.00    -0.646 OA
HETATM    4  O           1     -21.337  -5.596  -2.985  0.00  0.00    -0.646 OA
ENDBRANCH   1   2
BRANCH   1   5
HETATM    5  C           1     -20.421  -8.045  -2.161  0.00  0.00     0.073 C 
BRANCH   5   6
HETATM    6  C           1     -21.539  -8.405  -1.233  0.00  0.00    -0.047 A 
HETATM    7  C           1     -22.288  -9.614  -1.252  0.00  0.00    -0.006 A 
HETATM    8  C           1     -23.226  -9.532  -0.222  0.00  0.00     0.038 A 
HETATM    9  C           1     -22.258 -10.774  -2.049  0.00  0.00     0.014 A 
HETATM   10  N           1     -23.045  -8.314   0.393  0.00  0.00    -0.385 N 
HETATM   11  C           1     -24.138 -10.558   0.052  0.00  0.00     0.030 A 
HETATM   12  H           1     -23.607  -7.964   1.209  0.00  0.00     0.160 HD
HETATM   13  C           1     -22.027  -7.624  -0.211  0.00  0.00     0.093 A 
HETATM   14  C           1     -24.088 -11.699  -0.753  0.00  0.00     0.002 A 
HETATM   15  C           1     -23.163 -11.808  -1.788  0.00  0.00     0.001 A 
ENDBRANCH   5   6
ENDBRANCH   1   5
BRANCH   1  16
HETATM   16  N           1     -19.864  -7.916  -4.520  0.00  0.00    -0.344 N 
HETATM   17  H           1     -19.301  -7.089  -4.668  0.00  0.00     0.163 HD
HETATM   18  C           1     -19.588  -9.065  -5.212  0.00  0.00     0.252 C 
HETATM   19  O           1     -18.672  -9.090  -5.999  0.00  0.00    -0.271 OA
BRANCH  18  20
HETATM   20  C           1     -20.428 -10.299  -4.991  0.00  0.00     0.370 C 
HETATM   21  C           1     -19.649 -11.353  -4.223  0.00  0.00     0.048 C 
HETATM   22  C           1     -19.050 -12.261  -5.290  0.00  0.00     0.033 C 
HETATM   23  C           1     -19.523 -11.683  -6.613  0.00  0.00     0.271 C 
HETATM   24  N           1     -20.736 -10.951  -6.260  0.00  0.00     0.097 N 
HETATM   25  H           1     -21.510 -11.608  -6.151  0.00  0.00     0.317 HD
ENDBRANCH  18  20
ENDBRANCH   1  16
TORSDOF 5
ENDMDL
MODEL 9
REMARK VINA RESULT:      -6.7     16.089     18.441
REMARK  5 active torsions:
REMARK  status: ('A' for Active; 'I' for Inactive)
REMARK    1  A    between atoms: C_4  and  C_13 
REMARK    2  A    between atoms: C_4  and  C_7 
REMARK    3  A    between atoms: C_4  and  N_20 
REMARK    4  A    between atoms: C_7  and  C_16 
REMARK       I    between atoms: C_18  and  N_20 
REMARK    5  A    between atoms: C_18  and  C_23 
ROOT
HETATM    1  C           1     -35.957  -0.207 -11.725  0.00  0.00     0.189 C 
ENDROOT
BRANCH   1   2
HETATM    2  C           1     -36.809   0.453 -10.668  0.00  0.00     0.197 C 
HETATM    3  O           1     -38.051   0.485 -10.797  0.00  0.00    -0.646 OA
HETATM    4  O           1     -36.272   0.967  -9.664  0.00  0.00    -0.646 OA
ENDBRANCH   1   2
BRANCH   1   5
HETATM    5  C           1     -34.788  -0.924 -11.062  0.00  0.00     0.073 C 
BRANCH   5   6
HETATM    6  C           1     -35.124  -2.372 -10.885  0.00  0.00    -0.047 A 
HETATM    7  C           1     -34.251  -3.469 -11.118  0.00  0.00    -0.006 A 
HETATM    8  C           1     -34.967  -4.633 -10.831  0.00  0.00     0.038 A 
HETATM    9  C           1     -32.915  -3.586 -11.547  0.00  0.00     0.014 A 
HETATM   10  N           1     -36.228  -4.243 -10.439  0.00  0.00    -0.385 N 
HETATM   11  C           1     -34.411  -5.911 -10.953  0.00  0.00     0.030 A 
HETATM   12  H           1     -36.999  -4.900 -10.158  0.00  0.00     0.160 HD
HETATM   13  C           1     -36.334  -2.878 -10.468  0.00  0.00     0.093 A 
HETATM   14  C           1     -33.083  -6.000 -11.380  0.00  0.00     0.002 A 
HETATM   15  C           1     -32.344  -4.856 -11.674  0.00  0.00     0.001 A 
ENDBRANCH   5   6
ENDBRANCH   1   5
BRANCH   1  16
HETATM   16  N           1     -35.452   0.801 -12.636  0.00  0.00    -0.344 N 
HETATM   17  H           1     -35.079   1.669 -12.274  0.00  0.00     0.163 HD
HETATM   18  C           1     -35.477   0.577 -13.986  0.00  0.00     0.252 C 
HETATM   19  O           1     -35.056   1.417 -14.745  0.00  0.00    -0.271 OA
BRANCH  18  20
HETATM   20  C           1     -36.032  -0.718 -14.526  0.00  0.00     0.370 C 
HETATM   21  C           1     -35.638  -0.911 -15.980  0.00  0.00     0.048 C 
HETATM   22  C           1     -36.812  -0.367 -16.786  0.00  0.00     0.033 C 
HETATM   23  C           1     -37.820   0.102 -15.750  0.00  0.00     0.271 C 
HETATM   24  N           1     -37.492  -0.683 -14.564  0.00  0.00     0.097 N 
HETATM   25  H           1     -37.873  -1.624 -14.662  0.00  0.00     0.317 HD
ENDBRANCH  18  20
ENDBRANCH   1  16
TORSDOF 5
ENDMDL
