MODEL 1
REMARK VINA RESULT:      -6.1      0.000      0.000
REMARK  6 active torsions:
REMARK  status: ('A' for Active; 'I' for Inactive)
REMARK    1  A    between atoms: C_1  and  C_11 
REMARK    2  A    between atoms: C_1  and  C_2 
REMARK    3  A    between atoms: C_2  and  C_17 
REMARK    4  A    between atoms: C_2  and  N_7 
REMARK       I    between atoms: N_7  and  C_8 
REMARK    5  A    between atoms: C_8  and  C_10 
REMARK    6  A    between atoms: C_11  and  Se_13 
ROOT
HETATM    1  H           1     -34.798  -0.976 -11.233  0.00  0.00     0.163 HD
HETATM    2  N           1     -34.940  -1.435 -12.124  0.00  0.00    -0.345 N 
HETATM    3  C           1     -34.237  -2.568 -12.430  0.00  0.00     0.251 C 
HETATM    4  O           1     -34.406  -3.115 -13.493  0.00  0.00    -0.271 OA
ENDROOT
BRANCH   2   5
HETATM    5  C           1     -35.887  -0.890 -13.077  0.00  0.00     0.185 C 
BRANCH   5   6
HETATM    6  C           1     -37.012  -0.186 -12.329  0.00  0.00     0.036 C 
BRANCH   6   7
HETATM    7  C           1     -37.051  -0.680 -10.888  0.00  0.00     0.003 C 
BRANCH   7   8
HETATM    8 Se           1     -37.210   0.843  -9.683  0.00  0.00     0.000 Se
HETATM    9  C           1     -37.497  -0.241  -8.088  0.00  0.00     0.000 C 
ENDBRANCH   7   8
ENDBRANCH   6   7
ENDBRANCH   5   6
BRANCH   5  10
HETATM   10  C           1     -35.185   0.100 -13.974  0.00  0.00     0.196 C 
HETATM   11  O           1     -34.987  -0.177 -15.177  0.00  0.00    -0.646 OA
HETATM   12  O           1     -34.800   1.197 -13.514  0.00  0.00    -0.646 OA
ENDBRANCH   5  10
ENDBRANCH   2   5
BRANCH   3  13
HETATM   13  C           1     -33.250  -3.134 -11.438  0.00  0.00     0.311 C 
HETATM   14  C           1     -32.631  -4.418 -11.963  0.00  0.00     0.047 C 
HETATM   15  C           1     -33.479  -5.537 -11.374  0.00  0.00     0.033 C 
HETATM   16  C           1     -34.536  -4.836 -10.536  0.00  0.00     0.271 C 
HETATM   17  N           1     -33.926  -3.550 -10.212  0.00  0.00     0.097 N 
HETATM   18  H           1     -33.256  -3.672  -9.453  0.00  0.00     0.317 HD
ENDBRANCH   3  13
TORSDOF 6
ENDMDL
MODEL 2
REMARK VINA RESULT:      -5.7      2.559      3.662
REMARK  6 active torsions:
REMARK  status: ('A' for Active; 'I' for Inactive)
REMARK    1  A    between atoms: C_1  and  C_11 
REMARK    2  A    between atoms: C_1  and  C_2 
REMARK    3  A    between atoms: C_2  and  C_17 
REMARK    4  A    between atoms: C_2  and  N_7 
REMARK       I    between atoms: N_7  and  C_8 
REMARK    5  A    between atoms: C_8  and  C_10 
REMARK    6  A    between atoms: C_11  and  Se_13 
ROOT
HETATM    1  H           1     -37.019  -2.188 -10.839  0.00  0.00     0.163 HD
HETATM    2  N           1     -36.257  -1.541 -11.001  0.00  0.00    -0.345 N 
HETATM    3  C           1     -34.965  -1.993 -10.999  0.00  0.00     0.251 C 
HETATM    4  O           1     -34.056  -1.222 -11.193  0.00  0.00    -0.271 OA
ENDROOT
BRANCH   2   5
HETATM    5  C           1     -36.534  -0.138 -11.234  0.00  0.00     0.185 C 
BRANCH   5   6
HETATM    6  C           1     -37.614  -0.003 -12.299  0.00  0.00     0.036 C 
BRANCH   6   7
HETATM    7  C           1     -37.028  -0.347 -13.663  0.00  0.00     0.003 C 
BRANCH   7   8
HETATM    8 Se           1     -35.355   0.620 -13.915  0.00  0.00     0.000 Se
HETATM    9  C           1     -35.863   1.377 -15.638  0.00  0.00     0.000 C 
ENDBRANCH   7   8
ENDBRANCH   6   7
ENDBRANCH   5   6
BRANCH   5  10
HETATM   10  C           1     -37.013   0.499  -9.952  0.00  0.00     0.196 C 
HETATM   11  O           1     -36.346   0.368  -8.902  0.00  0.00    -0.646 OA
HETATM   12  O           1     -38.075   1.157  -9.940  0.00  0.00    -0.646 OA
ENDBRANCH   5  10
ENDBRANCH   2   5
BRANCH   3  13
HETATM   13  C           1     -34.677  -3.454 -10.756  0.00  0.00     0.311 C 
HETATM   14  C           1     -33.189  -3.738 -10.863  0.00  0.00     0.047 C 
HETATM   15  C           1     -32.974  -4.196 -12.300  0.00  0.00     0.033 C 
HETATM   16  C           1     -34.352  -4.157 -12.939  0.00  0.00     0.271 C 
HETATM   17  N           1     -35.265  -4.281 -11.806  0.00  0.00     0.097 N 
HETATM   18  H           1     -35.313  -5.257 -11.514  0.00  0.00     0.317 HD
ENDBRANCH   3  13
TORSDOF 6
ENDMDL
MODEL 3
REMARK VINA RESULT:      -5.2      9.806     12.141
REMARK  6 active torsions:
REMARK  status: ('A' for Active; 'I' for Inactive)
REMARK    1  A    between atoms: C_1  and  C_11 
REMARK    2  A    between atoms: C_1  and  C_2 
REMARK    3  A    between atoms: C_2  and  C_17 
REMARK    4  A    between atoms: C_2  and  N_7 
REMARK       I    between atoms: N_7  and  C_8 
REMARK    5  A    between atoms: C_8  and  C_10 
REMARK    6  A    between atoms: C_11  and  Se_13 
ROOT
HETATM    1  H           1     -26.164  -4.960 -17.041  0.00  0.00     0.163 HD
HETATM    2  N           1     -26.552  -5.890 -16.944  0.00  0.00    -0.345 N 
HETATM    3  C           1     -27.830  -6.053 -16.484  0.00  0.00     0.251 C 
HETATM    4  O           1     -28.293  -7.163 -16.369  0.00  0.00    -0.271 OA
ENDROOT
BRANCH   2   5
HETATM    5  C           1     -25.752  -7.048 -17.290  0.00  0.00     0.185 C 
BRANCH   5   6
HETATM    6  C           1     -24.884  -6.722 -18.499  0.00  0.00     0.036 C 
BRANCH   6   7
HETATM    7  C           1     -25.769  -6.533 -19.724  0.00  0.00     0.003 C 
BRANCH   7   8
HETATM    8 Se           1     -25.346  -7.898 -21.049  0.00  0.00     0.000 Se
HETATM    9  C           1     -27.178  -8.545 -21.205  0.00  0.00     0.000 C 
ENDBRANCH   7   8
ENDBRANCH   6   7
ENDBRANCH   5   6
BRANCH   5  10
HETATM   10  C           1     -24.869  -7.417 -16.123  0.00  0.00     0.196 C 
HETATM   11  O           1     -23.887  -8.171 -16.296  0.00  0.00    -0.646 OA
HETATM   12  O           1     -25.119  -6.967 -14.984  0.00  0.00    -0.646 OA
ENDBRANCH   5  10
ENDBRANCH   2   5
BRANCH   3  13
HETATM   13  C           1     -28.662  -4.847 -16.122  0.00  0.00     0.311 C 
HETATM   14  C           1     -30.134  -5.210 -16.037  0.00  0.00     0.047 C 
HETATM   15  C           1     -30.706  -4.877 -17.409  0.00  0.00     0.033 C 
HETATM   16  C           1     -29.532  -4.333 -18.206  0.00  0.00     0.271 C 
HETATM   17  N           1     -28.612  -3.845 -17.183  0.00  0.00     0.097 N 
HETATM   18  H           1     -28.934  -2.939 -16.841  0.00  0.00     0.317 HD
ENDBRANCH   3  13
TORSDOF 6
ENDMDL
MODEL 4
REMARK VINA RESULT:      -5.2     11.143     13.326
REMARK  6 active torsions:
REMARK  status: ('A' for Active; 'I' for Inactive)
REMARK    1  A    between atoms: C_1  and  C_11 
REMARK    2  A    between atoms: C_1  and  C_2 
REMARK    3  A    between atoms: C_2  and  C_17 
REMARK    4  A    between atoms: C_2  and  N_7 
REMARK       I    between atoms: N_7  and  C_8 
REMARK    5  A    between atoms: C_8  and  C_10 
REMARK    6  A    between atoms: C_11  and  Se_13 
ROOT
HETATM    1  H           1     -26.150  -5.243 -18.090  0.00  0.00     0.163 HD
HETATM    2  N           1     -26.488  -6.058 -18.587  0.00  0.00    -0.345 N 
HETATM    3  C           1     -27.829  -6.218 -18.807  0.00  0.00     0.251 C 
HETATM    4  O           1     -28.232  -7.191 -19.400  0.00  0.00    -0.271 OA
ENDROOT
BRANCH   2   5
HETATM    5  C           1     -25.550  -7.056 -19.063  0.00  0.00     0.185 C 
BRANCH   5   6
HETATM    6  C           1     -25.148  -6.731 -20.496  0.00  0.00     0.036 C 
BRANCH   6   7
HETATM    7  C           1     -25.105  -8.015 -21.315  0.00  0.00     0.003 C 
BRANCH   7   8
HETATM    8 Se           1     -23.697  -7.883 -22.656  0.00  0.00     0.000 Se
HETATM    9  C           1     -22.332  -8.717 -21.541  0.00  0.00     0.000 C 
ENDBRANCH   7   8
ENDBRANCH   6   7
ENDBRANCH   5   6
BRANCH   5  10
HETATM   10  C           1     -24.323  -7.052 -18.185  0.00  0.00     0.196 C 
HETATM   11  O           1     -24.424  -7.328 -16.969  0.00  0.00    -0.646 OA
HETATM   12  O           1     -23.206  -6.775 -18.672  0.00  0.00    -0.646 OA
ENDBRANCH   5  10
ENDBRANCH   2   5
BRANCH   3  13
HETATM   13  C           1     -28.805  -5.180 -18.309  0.00  0.00     0.311 C 
HETATM   14  C           1     -28.229  -4.418 -17.129  0.00  0.00     0.047 C 
HETATM   15  C           1     -28.757  -5.138 -15.895  0.00  0.00     0.033 C 
HETATM   16  C           1     -29.614  -6.272 -16.433  0.00  0.00     0.271 C 
HETATM   17  N           1     -30.003  -5.813 -17.764  0.00  0.00     0.097 N 
HETATM   18  H           1     -30.763  -5.138 -17.682  0.00  0.00     0.317 HD
ENDBRANCH   3  13
TORSDOF 6
ENDMDL
MODEL 5
REMARK VINA RESULT:      -5.1     15.491     17.439
REMARK  6 active torsions:
REMARK  status: ('A' for Active; 'I' for Inactive)
REMARK    1  A    between atoms: C_1  and  C_11 
REMARK    2  A    between atoms: C_1  and  C_2 
REMARK    3  A    between atoms: C_2  and  C_17 
REMARK    4  A    between atoms: C_2  and  N_7 
REMARK       I    between atoms: N_7  and  C_8 
REMARK    5  A    between atoms: C_8  and  C_10 
REMARK    6  A    between atoms: C_11  and  Se_13 
ROOT
HETATM    1  H           1     -19.807  -6.196  -4.612  0.00  0.00     0.163 HD
HETATM    2  N           1     -20.805  -6.255  -4.771  0.00  0.00    -0.345 N 
HETATM    3  C           1     -21.414  -5.381  -5.630  0.00  0.00     0.251 C 
HETATM    4  O           1     -22.605  -5.452  -5.820  0.00  0.00    -0.271 OA
ENDROOT
BRANCH   2   5
HETATM    5  C           1     -21.589  -7.265  -4.087  0.00  0.00     0.185 C 
BRANCH   5   6
HETATM    6  C           1     -20.925  -8.625  -4.259  0.00  0.00     0.036 C 
BRANCH   6   7
HETATM    7  C           1     -19.582  -8.451  -4.956  0.00  0.00     0.003 C 
BRANCH   7   8
HETATM    8 Se           1     -18.485 -10.034  -4.659  0.00  0.00     0.000 Se
HETATM    9  C           1     -17.807  -9.440  -2.931  0.00  0.00     0.000 C 
ENDBRANCH   7   8
ENDBRANCH   6   7
ENDBRANCH   5   6
BRANCH   5  10
HETATM   10  C           1     -21.670  -6.929  -2.618  0.00  0.00     0.196 C 
HETATM   11  O           1     -22.418  -6.006  -2.229  0.00  0.00    -0.646 OA
HETATM   12  O           1     -20.989  -7.573  -1.792  0.00  0.00    -0.646 OA
ENDBRANCH   5  10
ENDBRANCH   2   5
BRANCH   3  13
HETATM   13  C           1     -20.598  -4.330  -6.341  0.00  0.00     0.311 C 
HETATM   14  C           1     -21.432  -3.614  -7.389  0.00  0.00     0.047 C 
HETATM   15  C           1     -21.150  -4.351  -8.692  0.00  0.00     0.033 C 
HETATM   16  C           1     -20.163  -5.445  -8.323  0.00  0.00     0.271 C 
HETATM   17  N           1     -19.520  -4.942  -7.113  0.00  0.00     0.097 N 
HETATM   18  H           1     -18.816  -4.249  -7.365  0.00  0.00     0.317 HD
ENDBRANCH   3  13
TORSDOF 6
ENDMDL
MODEL 6
REMARK VINA RESULT:      -4.9     16.657     18.505
REMARK  6 active torsions:
REMARK  status: ('A' for Active; 'I' for Inactive)
REMARK    1  A    between atoms: C_1  and  C_11 
REMARK    2  A    between atoms: C_1  and  C_2 
REMARK    3  A    between atoms: C_2  and  C_17 
REMARK    4  A    between atoms: C_2  and  N_7 
REMARK       I    between atoms: N_7  and  C_8 
REMARK    5  A    between atoms: C_8  and  C_10 
REMARK    6  A    between atoms: C_11  and  Se_13 
ROOT
HETATM    1  H           1     -22.542  -9.028  -2.821  0.00  0.00     0.163 HD
HETATM    2  N           1     -21.632  -8.590  -2.752  0.00  0.00    -0.345 N 
HETATM    3  C           1     -20.866  -8.776  -1.633  0.00  0.00     0.251 C 
HETATM    4  O           1     -19.780  -8.254  -1.552  0.00  0.00    -0.271 OA
ENDROOT
BRANCH   2   5
HETATM    5  C           1     -21.141  -7.766  -3.839  0.00  0.00     0.185 C 
BRANCH   5   6
HETATM    6  C           1     -21.320  -8.505  -5.158  0.00  0.00     0.036 C 
BRANCH   6   7
HETATM    7  C           1     -20.583  -9.837  -5.099  0.00  0.00     0.003 C 
BRANCH   7   8
HETATM    8 Se           1     -18.669  -9.513  -4.927  0.00  0.00     0.000 Se
HETATM    9  C           1     -18.397 -10.875  -3.559  0.00  0.00     0.000 C 
ENDBRANCH   7   8
ENDBRANCH   6   7
ENDBRANCH   5   6
BRANCH   5  10
HETATM   10  C           1     -21.917  -6.472  -3.879  0.00  0.00     0.196 C 
HETATM   11  O           1     -22.130  -5.904  -4.973  0.00  0.00    -0.646 OA
HETATM   12  O           1     -22.347  -5.969  -2.819  0.00  0.00    -0.646 OA
ENDBRANCH   5  10
ENDBRANCH   2   5
BRANCH   3  13
HETATM   13  C           1     -21.378  -9.633  -0.502  0.00  0.00     0.311 C 
HETATM   14  C           1     -22.896  -9.683  -0.505  0.00  0.00     0.047 C 
HETATM   15  C           1     -23.331  -8.590   0.463  0.00  0.00     0.033 C 
HETATM   16  C           1     -22.039  -7.976   0.975  0.00  0.00     0.271 C 
HETATM   17  N           1     -21.052  -9.036   0.790  0.00  0.00     0.097 N 
HETATM   18  H           1     -21.145  -9.722   1.540  0.00  0.00     0.317 HD
ENDBRANCH   3  13
TORSDOF 6
ENDMDL
MODEL 7
REMARK VINA RESULT:      -4.7     17.327     19.199
REMARK  6 active torsions:
REMARK  status: ('A' for Active; 'I' for Inactive)
REMARK    1  A    between atoms: C_1  and  C_11 
REMARK    2  A    between atoms: C_1  and  C_2 
REMARK    3  A    between atoms: C_2  and  C_17 
REMARK    4  A    between atoms: C_2  and  N_7 
REMARK       I    between atoms: N_7  and  C_8 
REMARK    5  A    between atoms: C_8  and  C_10 
REMARK    6  A    between atoms: C_11  and  Se_13 
ROOT
HETATM    1  H           1     -21.273  -9.851  -2.664  0.00  0.00     0.163 HD
HETATM    2  N           1     -21.165  -8.844  -2.685  0.00  0.00    -0.345 N 
HETATM    3  C           1     -21.725  -8.074  -1.702  0.00  0.00     0.251 C 
HETATM    4  O           1     -21.596  -6.874  -1.728  0.00  0.00    -0.271 OA
ENDROOT
BRANCH   2   5
HETATM    5  C           1     -20.419  -8.219  -3.760  0.00  0.00     0.185 C 
BRANCH   5   6
HETATM    6  C           1     -19.160  -9.028  -4.042  0.00  0.00     0.036 C 
BRANCH   6   7
HETATM    7  C           1     -18.467  -9.365  -2.727  0.00  0.00     0.003 C 
BRANCH   7   8
HETATM    8 Se           1     -16.575  -9.693  -3.056  0.00  0.00     0.000 Se
HETATM    9  C           1     -16.795 -10.017  -4.966  0.00  0.00     0.000 C 
ENDBRANCH   7   8
ENDBRANCH   6   7
ENDBRANCH   5   6
BRANCH   5  10
HETATM   10  C           1     -21.274  -8.171  -5.003  0.00  0.00     0.196 C 
HETATM   11  O           1     -22.095  -7.241  -5.162  0.00  0.00    -0.646 OA
HETATM   12  O           1     -21.160  -9.060  -5.874  0.00  0.00    -0.646 OA
ENDBRANCH   5  10
ENDBRANCH   2   5
BRANCH   3  13
HETATM   13  C           1     -22.502  -8.726  -0.585  0.00  0.00     0.311 C 
HETATM   14  C           1     -22.299  -7.980   0.723  0.00  0.00     0.047 C 
HETATM   15  C           1     -21.164  -8.712   1.426  0.00  0.00     0.033 C 
HETATM   16  C           1     -20.781  -9.845   0.489  0.00  0.00     0.271 C 
HETATM   17  N           1     -21.987 -10.063  -0.305  0.00  0.00     0.097 N 
HETATM   18  H           1     -22.659 -10.603   0.240  0.00  0.00     0.317 HD
ENDBRANCH   3  13
TORSDOF 6
ENDMDL
MODEL 8
REMARK VINA RESULT:      -4.6     16.410     18.192
REMARK  6 active torsions:
REMARK  status: ('A' for Active; 'I' for Inactive)
REMARK    1  A    between atoms: C_1  and  C_11 
REMARK    2  A    between atoms: C_1  and  C_2 
REMARK    3  A    between atoms: C_2  and  C_17 
REMARK    4  A    between atoms: C_2  and  N_7 
REMARK       I    between atoms: N_7  and  C_8 
REMARK    5  A    between atoms: C_8  and  C_10 
REMARK    6  A    between atoms: C_11  and  Se_13 
ROOT
HETATM    1  H           1     -22.858  -8.211  -3.004  0.00  0.00     0.163 HD
HETATM    2  N           1     -21.881  -7.976  -2.881  0.00  0.00    -0.345 N 
HETATM    3  C           1     -21.324  -8.003  -1.631  0.00  0.00     0.251 C 
HETATM    4  O           1     -20.159  -7.721  -1.483  0.00  0.00    -0.271 OA
ENDROOT
BRANCH   2   5
HETATM    5  C           1     -21.074  -7.608  -4.027  0.00  0.00     0.185 C 
BRANCH   5   6
HETATM    6  C           1     -21.182  -8.691  -5.093  0.00  0.00     0.036 C 
BRANCH   6   7
HETATM    7  C           1     -20.218  -9.823  -4.767  0.00  0.00     0.003 C 
BRANCH   7   8
HETATM    8 Se           1     -21.024 -11.527  -5.261  0.00  0.00     0.000 Se
HETATM    9  C           1     -22.472 -11.405  -3.962  0.00  0.00     0.000 C 
ENDBRANCH   7   8
ENDBRANCH   6   7
ENDBRANCH   5   6
BRANCH   5  10
HETATM   10  C           1     -21.568  -6.298  -4.591  0.00  0.00     0.196 C 
HETATM   11  O           1     -20.765  -5.360  -4.790  0.00  0.00    -0.646 OA
HETATM   12  O           1     -22.780  -6.151  -4.857  0.00  0.00    -0.646 OA
ENDBRANCH   5  10
ENDBRANCH   2   5
BRANCH   3  13
HETATM   13  C           1     -22.165  -8.384  -0.438  0.00  0.00     0.311 C 
HETATM   14  C           1     -21.302  -8.560   0.800  0.00  0.00     0.047 C 
HETATM   15  C           1     -20.993 -10.050   0.860  0.00  0.00     0.033 C 
HETATM   16  C           1     -21.703 -10.652  -0.342  0.00  0.00     0.271 C 
HETATM   17  N           1     -22.771  -9.699  -0.628  0.00  0.00     0.097 N 
HETATM   18  H           1     -23.539  -9.842   0.027  0.00  0.00     0.317 HD
ENDBRANCH   3  13
TORSDOF 6
ENDMDL
MODEL 9
REMARK VINA RESULT:      -4.5     18.901     20.297
REMARK  6 active torsions:
REMARK  status: ('A' for Active; 'I' for Inactive)
REMARK    1  A    between atoms: C_1  and  C_11 
REMARK    2  A    between atoms: C_1  and  C_2 
REMARK    3  A    between atoms: C_2  and  C_17 
REMARK    4  A    between atoms: C_2  and  N_7 
REMARK       I    between atoms: N_7  and  C_8 
REMARK    5  A    between atoms: C_8  and  C_10 
REMARK    6  A    between atoms: C_11  and  Se_13 
ROOT
HETATM    1  H           1     -20.300 -10.574  -2.195  0.00  0.00     0.163 HD
HETATM    2  N           1     -20.082  -9.608  -2.405  0.00  0.00    -0.345 N 
HETATM    3  C           1     -20.896  -8.607  -1.949  0.00  0.00     0.251 C 
HETATM    4  O           1     -20.635  -7.455  -2.200  0.00  0.00    -0.271 OA
ENDROOT
BRANCH   2   5
HETATM    5  C           1     -18.907  -9.286  -3.191  0.00  0.00     0.185 C 
BRANCH   5   6
HETATM    6  C           1     -17.717 -10.086  -2.677  0.00  0.00     0.036 C 
BRANCH   6   7
HETATM    7  C           1     -16.449  -9.621  -3.382  0.00  0.00     0.003 C 
BRANCH   7   8
HETATM    8 Se           1     -15.524 -11.160  -4.139  0.00  0.00     0.000 Se
HETATM    9  C           1     -15.855 -10.653  -5.992  0.00  0.00     0.000 C 
ENDBRANCH   7   8
ENDBRANCH   6   7
ENDBRANCH   5   6
BRANCH   5  10
HETATM   10  C           1     -19.159  -9.635  -4.638  0.00  0.00     0.196 C 
HETATM   11  O           1     -19.185  -8.732  -5.503  0.00  0.00    -0.646 OA
HETATM   12  O           1     -19.341 -10.826  -4.971  0.00  0.00    -0.646 OA
ENDBRANCH   5  10
ENDBRANCH   2   5
BRANCH   3  13
HETATM   13  C           1     -22.119  -8.943  -1.132  0.00  0.00     0.311 C 
HETATM   14  C           1     -22.533  -7.766  -0.267  0.00  0.00     0.047 C 
HETATM   15  C           1     -21.874  -8.015   1.084  0.00  0.00     0.033 C 
HETATM   16  C           1     -21.124  -9.326   0.924  0.00  0.00     0.271 C 
HETATM   17  N           1     -21.825  -9.998  -0.166  0.00  0.00     0.097 N 
HETATM   18  H           1     -22.686 -10.415   0.189  0.00  0.00     0.317 HD
ENDBRANCH   3  13
TORSDOF 6
ENDMDL
