MODEL 1
REMARK VINA RESULT:      -5.4      0.000      0.000
REMARK  12 active torsions:
REMARK  status: ('A' for Active; 'I' for Inactive)
REMARK    1  A    between atoms: C_1  and  C_2 
REMARK    2  A    between atoms: C_1  and  C_20 
REMARK    3  A    between atoms: C_1  and  N_17 
REMARK    4  A    between atoms: C_2  and  C_3 
REMARK    5  A    between atoms: C_3  and  C_4 
REMARK    6  A    between atoms: C_4  and  C_5 
REMARK    7  A    between atoms: C_5  and  N_21 
REMARK    8  A    between atoms: N_10  and  C_15 
REMARK    9  A    between atoms: Se_12  and  C_13 
REMARK   10  A    between atoms: C_13  and  C_14 
REMARK   11  A    between atoms: C_14  and  C_15 
REMARK   12  A    between atoms: C_15  and  C_16 
REMARK       I    between atoms: C_16  and  N_17 
ROOT
HETATM    1  O           1     -22.121  -7.326  -4.828  0.00  0.00    -0.271 OA
HETATM    2  C           1     -21.519  -6.388  -4.365  0.00  0.00     0.249 C 
HETATM    3  N           1     -21.099  -5.372  -5.182  0.00  0.00    -0.345 N 
HETATM    4  H           1     -20.595  -4.586  -4.794  0.00  0.00     0.163 HD
ENDROOT
BRANCH   3   5
HETATM    5  C           1     -21.378  -5.425  -6.604  0.00  0.00     0.185 C 
BRANCH   5   6
HETATM    6  C           1     -21.897  -4.071  -7.069  0.00  0.00     0.036 C 
BRANCH   6   7
HETATM    7  C           1     -23.189  -4.264  -7.853  0.00  0.00     0.004 C 
BRANCH   7   8
HETATM    8  C           1     -22.950  -3.923  -9.318  0.00  0.00     0.027 C 
BRANCH   8   9
HETATM    9  C           1     -24.154  -4.357 -10.144  0.00  0.00     0.229 C 
BRANCH   9  10
HETATM   10  N           1     -25.372  -3.616  -9.679  0.00  0.00    -0.079 N 
HETATM   11  H           1     -26.223  -4.035 -10.118  0.00  0.00     0.274 HD
HETATM   12  H           1     -25.295  -2.611  -9.957  0.00  0.00     0.274 HD
HETATM   13  H           1     -25.447  -3.685  -8.639  0.00  0.00     0.274 HD
ENDBRANCH   9  10
ENDBRANCH   8   9
ENDBRANCH   7   8
ENDBRANCH   6   7
ENDBRANCH   5   6
BRANCH   5  14
HETATM   14  C           1     -20.111  -5.763  -7.352  0.00  0.00     0.196 C 
HETATM   15  O           1     -19.682  -4.989  -8.235  0.00  0.00    -0.646 OA
HETATM   16  O           1     -19.491  -6.814  -7.088  0.00  0.00    -0.646 OA
ENDBRANCH   5  14
ENDBRANCH   3   5
BRANCH   2  17
HETATM   17  C           1     -21.229  -6.333  -2.885  0.00  0.00     0.274 C 
BRANCH  17  18
HETATM   18  N           1     -22.456  -5.879  -2.153  0.00  0.00    -0.067 N 
HETATM   19  H           1     -23.277  -5.904  -2.799  0.00  0.00     0.275 HD
HETATM   20  H           1     -22.633  -6.516  -1.342  0.00  0.00     0.275 HD
HETATM   21  H           1     -22.315  -4.904  -1.806  0.00  0.00     0.275 HD
ENDBRANCH  17  18
BRANCH  17  22
HETATM   22  C           1     -20.828  -7.718  -2.394  0.00  0.00     0.042 C 
BRANCH  22  23
HETATM   23  C           1     -21.328  -7.916  -0.968  0.00  0.00     0.003 C 
BRANCH  23  24
HETATM   24 Se           1     -21.227  -9.804  -0.499  0.00  0.00     0.000 Se
HETATM   25  C           1     -22.128 -10.422  -2.113  0.00  0.00     0.000 C 
ENDBRANCH  23  24
ENDBRANCH  22  23
ENDBRANCH  17  22
ENDBRANCH   2  17
TORSDOF 12
ENDMDL
MODEL 2
REMARK VINA RESULT:      -5.4      3.491      7.013
REMARK  12 active torsions:
REMARK  status: ('A' for Active; 'I' for Inactive)
REMARK    1  A    between atoms: C_1  and  C_2 
REMARK    2  A    between atoms: C_1  and  C_20 
REMARK    3  A    between atoms: C_1  and  N_17 
REMARK    4  A    between atoms: C_2  and  C_3 
REMARK    5  A    between atoms: C_3  and  C_4 
REMARK    6  A    between atoms: C_4  and  C_5 
REMARK    7  A    between atoms: C_5  and  N_21 
REMARK    8  A    between atoms: N_10  and  C_15 
REMARK    9  A    between atoms: Se_12  and  C_13 
REMARK   10  A    between atoms: C_13  and  C_14 
REMARK   11  A    between atoms: C_14  and  C_15 
REMARK   12  A    between atoms: C_15  and  C_16 
REMARK       I    between atoms: C_16  and  N_17 
ROOT
HETATM    1  O           1     -19.960  -4.486  -5.154  0.00  0.00    -0.271 OA
HETATM    2  C           1     -20.731  -4.864  -6.004  0.00  0.00     0.249 C 
HETATM    3  N           1     -21.435  -6.024  -5.824  0.00  0.00    -0.345 N 
HETATM    4  H           1     -22.080  -6.340  -6.536  0.00  0.00     0.163 HD
ENDROOT
BRANCH   3   5
HETATM    5  C           1     -21.255  -6.800  -4.613  0.00  0.00     0.185 C 
BRANCH   5   6
HETATM    6  C           1     -22.308  -6.394  -3.590  0.00  0.00     0.036 C 
BRANCH   6   7
HETATM    7  C           1     -21.630  -6.057  -2.269  0.00  0.00     0.004 C 
BRANCH   7   8
HETATM    8  C           1     -22.349  -6.770  -1.132  0.00  0.00     0.027 C 
BRANCH   8   9
HETATM    9  C           1     -21.494  -7.929  -0.637  0.00  0.00     0.229 C 
BRANCH   9  10
HETATM   10  N           1     -22.105  -9.226  -1.080  0.00  0.00    -0.079 N 
HETATM   11  H           1     -21.833  -9.418  -2.071  0.00  0.00     0.274 HD
HETATM   12  H           1     -23.146  -9.162  -1.010  0.00  0.00     0.274 HD
HETATM   13  H           1     -21.762 -10.000  -0.468  0.00  0.00     0.274 HD
ENDBRANCH   9  10
ENDBRANCH   8   9
ENDBRANCH   7   8
ENDBRANCH   6   7
ENDBRANCH   5   6
BRANCH   5  14
HETATM   14  C           1     -21.399  -8.268  -4.930  0.00  0.00     0.196 C 
HETATM   15  O           1     -21.807  -9.060  -4.052  0.00  0.00    -0.646 OA
HETATM   16  O           1     -21.115  -8.693  -6.070  0.00  0.00    -0.646 OA
ENDBRANCH   5  14
ENDBRANCH   3   5
BRANCH   2  17
HETATM   17  C           1     -20.918  -4.056  -7.265  0.00  0.00     0.274 C 
BRANCH  17  18
HETATM   18  N           1     -19.734  -4.253  -8.164  0.00  0.00    -0.067 N 
HETATM   19  H           1     -19.124  -5.008  -7.777  0.00  0.00     0.275 HD
HETATM   20  H           1     -20.063  -4.528  -9.118  0.00  0.00     0.275 HD
HETATM   21  H           1     -19.190  -3.363  -8.225  0.00  0.00     0.275 HD
ENDBRANCH  17  18
BRANCH  17  22
HETATM   22  C           1     -22.181  -4.516  -7.981  0.00  0.00     0.042 C 
BRANCH  22  23
HETATM   23  C           1     -22.042  -4.252  -9.476  0.00  0.00     0.003 C 
BRANCH  23  24
HETATM   24 Se           1     -23.668  -4.817 -10.390  0.00  0.00     0.000 Se
HETATM   25  C           1     -24.748  -3.333  -9.732  0.00  0.00     0.000 C 
ENDBRANCH  23  24
ENDBRANCH  22  23
ENDBRANCH  17  22
ENDBRANCH   2  17
TORSDOF 12
ENDMDL
MODEL 3
REMARK VINA RESULT:      -5.0      3.279      6.595
REMARK  12 active torsions:
REMARK  status: ('A' for Active; 'I' for Inactive)
REMARK    1  A    between atoms: C_1  and  C_2 
REMARK    2  A    between atoms: C_1  and  C_20 
REMARK    3  A    between atoms: C_1  and  N_17 
REMARK    4  A    between atoms: C_2  and  C_3 
REMARK    5  A    between atoms: C_3  and  C_4 
REMARK    6  A    between atoms: C_4  and  C_5 
REMARK    7  A    between atoms: C_5  and  N_21 
REMARK    8  A    between atoms: N_10  and  C_15 
REMARK    9  A    between atoms: Se_12  and  C_13 
REMARK   10  A    between atoms: C_13  and  C_14 
REMARK   11  A    between atoms: C_14  and  C_15 
REMARK   12  A    between atoms: C_15  and  C_16 
REMARK       I    between atoms: C_16  and  N_17 
ROOT
HETATM    1  O           1     -19.527  -7.208  -6.500  0.00  0.00    -0.271 OA
HETATM    2  C           1     -20.574  -7.024  -5.927  0.00  0.00     0.249 C 
HETATM    3  N           1     -20.955  -7.860  -4.911  0.00  0.00    -0.345 N 
HETATM    4  H           1     -21.831  -7.706  -4.431  0.00  0.00     0.163 HD
ENDROOT
BRANCH   3   5
HETATM    5  C           1     -20.100  -8.966  -4.525  0.00  0.00     0.185 C 
BRANCH   5   6
HETATM    6  C           1     -19.904  -8.951  -3.015  0.00  0.00     0.036 C 
BRANCH   6   7
HETATM    7  C           1     -20.597  -7.731  -2.424  0.00  0.00     0.004 C 
BRANCH   7   8
HETATM    8  C           1     -21.603  -8.177  -1.372  0.00  0.00     0.027 C 
BRANCH   8   9
HETATM    9  C           1     -22.372  -6.967  -0.857  0.00  0.00     0.229 C 
BRANCH   9  10
HETATM   10  N           1     -22.335  -5.876  -1.886  0.00  0.00    -0.079 N 
HETATM   11  H           1     -22.551  -4.961  -1.431  0.00  0.00     0.274 HD
HETATM   12  H           1     -23.044  -6.073  -2.628  0.00  0.00     0.274 HD
HETATM   13  H           1     -21.384  -5.835  -2.317  0.00  0.00     0.274 HD
ENDBRANCH   9  10
ENDBRANCH   8   9
ENDBRANCH   7   8
ENDBRANCH   6   7
ENDBRANCH   5   6
BRANCH   5  14
HETATM   14  C           1     -20.745 -10.267  -4.936  0.00  0.00     0.196 C 
HETATM   15  O           1     -21.103 -11.090  -4.065  0.00  0.00    -0.646 OA
HETATM   16  O           1     -20.924 -10.522  -6.146  0.00  0.00    -0.646 OA
ENDBRANCH   5  14
ENDBRANCH   3   5
BRANCH   2  17
HETATM   17  C           1     -21.463  -5.873  -6.329  0.00  0.00     0.274 C 
BRANCH  17  18
HETATM   18  N           1     -22.635  -5.798  -5.397  0.00  0.00    -0.067 N 
HETATM   19  H           1     -23.229  -4.977  -5.649  0.00  0.00     0.275 HD
HETATM   20  H           1     -23.201  -6.674  -5.477  0.00  0.00     0.275 HD
HETATM   21  H           1     -22.294  -5.692  -4.415  0.00  0.00     0.275 HD
ENDBRANCH  17  18
BRANCH  17  22
HETATM   22  C           1     -20.674  -4.572  -6.258  0.00  0.00     0.042 C 
BRANCH  22  23
HETATM   23  C           1     -21.317  -3.538  -7.174  0.00  0.00     0.003 C 
BRANCH  23  24
HETATM   24 Se           1     -21.972  -4.415  -8.786  0.00  0.00     0.000 Se
HETATM   25  C           1     -20.218  -4.544  -9.626  0.00  0.00     0.000 C 
ENDBRANCH  23  24
ENDBRANCH  22  23
ENDBRANCH  17  22
ENDBRANCH   2  17
TORSDOF 12
ENDMDL
MODEL 4
REMARK VINA RESULT:      -5.0      3.454      6.912
REMARK  12 active torsions:
REMARK  status: ('A' for Active; 'I' for Inactive)
REMARK    1  A    between atoms: C_1  and  C_2 
REMARK    2  A    between atoms: C_1  and  C_20 
REMARK    3  A    between atoms: C_1  and  N_17 
REMARK    4  A    between atoms: C_2  and  C_3 
REMARK    5  A    between atoms: C_3  and  C_4 
REMARK    6  A    between atoms: C_4  and  C_5 
REMARK    7  A    between atoms: C_5  and  N_21 
REMARK    8  A    between atoms: N_10  and  C_15 
REMARK    9  A    between atoms: Se_12  and  C_13 
REMARK   10  A    between atoms: C_13  and  C_14 
REMARK   11  A    between atoms: C_14  and  C_15 
REMARK   12  A    between atoms: C_15  and  C_16 
REMARK       I    between atoms: C_16  and  N_17 
ROOT
HETATM    1  O           1     -21.704  -7.750  -5.471  0.00  0.00    -0.271 OA
HETATM    2  C           1     -21.111  -6.769  -5.089  0.00  0.00     0.249 C 
HETATM    3  N           1     -20.842  -6.606  -3.757  0.00  0.00    -0.345 N 
HETATM    4  H           1     -20.346  -5.785  -3.437  0.00  0.00     0.163 HD
ENDROOT
BRANCH   3   5
HETATM    5  C           1     -21.269  -7.612  -2.803  0.00  0.00     0.185 C 
BRANCH   5   6
HETATM    6  C           1     -20.048  -8.316  -2.228  0.00  0.00     0.036 C 
BRANCH   6   7
HETATM    7  C           1     -19.748  -9.564  -3.047  0.00  0.00     0.004 C 
BRANCH   7   8
HETATM    8  C           1     -18.376  -9.430  -3.695  0.00  0.00     0.027 C 
BRANCH   8   9
HETATM    9  C           1     -18.527  -9.425  -5.210  0.00  0.00     0.229 C 
BRANCH   9  10
HETATM   10  N           1     -19.793 -10.135  -5.590  0.00  0.00    -0.079 N 
HETATM   11  H           1     -19.659 -10.619  -6.506  0.00  0.00     0.274 HD
HETATM   12  H           1     -20.570  -9.442  -5.672  0.00  0.00     0.274 HD
HETATM   13  H           1     -20.031 -10.839  -4.856  0.00  0.00     0.274 HD
ENDBRANCH   9  10
ENDBRANCH   8   9
ENDBRANCH   7   8
ENDBRANCH   6   7
ENDBRANCH   5   6
BRANCH   5  14
HETATM   14  C           1     -22.042  -6.951  -1.688  0.00  0.00     0.196 C 
HETATM   15  O           1     -22.524  -5.810  -1.852  0.00  0.00    -0.646 OA
HETATM   16  O           1     -22.203  -7.546  -0.601  0.00  0.00    -0.646 OA
ENDBRANCH   5  14
ENDBRANCH   3   5
BRANCH   2  17
HETATM   17  C           1     -20.667  -5.722  -6.081  0.00  0.00     0.274 C 
BRANCH  17  18
HETATM   18  N           1     -19.878  -6.376  -7.176  0.00  0.00    -0.067 N 
HETATM   19  H           1     -19.525  -7.302  -6.846  0.00  0.00     0.275 HD
HETATM   20  H           1     -20.491  -6.515  -8.012  0.00  0.00     0.275 HD
HETATM   21  H           1     -19.069  -5.767  -7.434  0.00  0.00     0.275 HD
ENDBRANCH  17  18
BRANCH  17  22
HETATM   22  C           1     -21.889  -5.035  -6.677  0.00  0.00     0.042 C 
BRANCH  22  23
HETATM   23  C           1     -21.446  -3.810  -7.468  0.00  0.00     0.003 C 
BRANCH  23  24
HETATM   24 Se           1     -21.852  -4.074  -9.356  0.00  0.00     0.000 Se
HETATM   25  C           1     -23.776  -3.845  -9.143  0.00  0.00     0.000 C 
ENDBRANCH  23  24
ENDBRANCH  22  23
ENDBRANCH  17  22
ENDBRANCH   2  17
TORSDOF 12
ENDMDL
MODEL 5
REMARK VINA RESULT:      -4.9      3.595      7.133
REMARK  12 active torsions:
REMARK  status: ('A' for Active; 'I' for Inactive)
REMARK    1  A    between atoms: C_1  and  C_2 
REMARK    2  A    between atoms: C_1  and  C_20 
REMARK    3  A    between atoms: C_1  and  N_17 
REMARK    4  A    between atoms: C_2  and  C_3 
REMARK    5  A    between atoms: C_3  and  C_4 
REMARK    6  A    between atoms: C_4  and  C_5 
REMARK    7  A    between atoms: C_5  and  N_21 
REMARK    8  A    between atoms: N_10  and  C_15 
REMARK    9  A    between atoms: Se_12  and  C_13 
REMARK   10  A    between atoms: C_13  and  C_14 
REMARK   11  A    between atoms: C_14  and  C_15 
REMARK   12  A    between atoms: C_15  and  C_16 
REMARK       I    between atoms: C_16  and  N_17 
ROOT
HETATM    1  O           1     -22.559  -5.593  -5.838  0.00  0.00    -0.271 OA
HETATM    2  C           1     -21.369  -5.451  -5.685  0.00  0.00     0.249 C 
HETATM    3  N           1     -20.690  -6.259  -4.812  0.00  0.00    -0.345 N 
HETATM    4  H           1     -19.694  -6.141  -4.683  0.00  0.00     0.163 HD
ENDROOT
BRANCH   3   5
HETATM    5  C           1     -21.401  -7.284  -4.072  0.00  0.00     0.185 C 
BRANCH   5   6
HETATM    6  C           1     -20.584  -8.569  -4.075  0.00  0.00     0.036 C 
BRANCH   6   7
HETATM    7  C           1     -21.449  -9.719  -4.575  0.00  0.00     0.004 C 
BRANCH   7   8
HETATM    8  C           1     -22.109 -10.411  -3.390  0.00  0.00     0.027 C 
BRANCH   8   9
HETATM    9  C           1     -21.045 -10.808  -2.375  0.00  0.00     0.229 C 
BRANCH   9  10
HETATM   10  N           1     -21.428 -10.291  -1.020  0.00  0.00    -0.079 N 
HETATM   11  H           1     -21.430  -9.246  -1.035  0.00  0.00     0.274 HD
HETATM   12  H           1     -20.739 -10.629  -0.311  0.00  0.00     0.274 HD
HETATM   13  H           1     -22.382 -10.637  -0.771  0.00  0.00     0.274 HD
ENDBRANCH   9  10
ENDBRANCH   8   9
ENDBRANCH   7   8
ENDBRANCH   6   7
ENDBRANCH   5   6
BRANCH   5  14
HETATM   14  C           1     -21.610  -6.824  -2.650  0.00  0.00     0.196 C 
HETATM   15  O           1     -20.947  -7.338  -1.723  0.00  0.00    -0.646 OA
HETATM   16  O           1     -22.444  -5.927  -2.399  0.00  0.00    -0.646 OA
ENDBRANCH   5  14
ENDBRANCH   3   5
BRANCH   2  17
HETATM   17  C           1     -20.630  -4.385  -6.455  0.00  0.00     0.274 C 
BRANCH  17  18
HETATM   18  N           1     -19.392  -4.974  -7.062  0.00  0.00    -0.067 N 
HETATM   19  H           1     -19.484  -6.015  -7.101  0.00  0.00     0.275 HD
HETATM   20  H           1     -19.266  -4.600  -8.030  0.00  0.00     0.275 HD
HETATM   21  H           1     -18.563  -4.721  -6.479  0.00  0.00     0.275 HD
ENDBRANCH  17  18
BRANCH  17  22
HETATM   22  C           1     -21.527  -3.841  -7.559  0.00  0.00     0.042 C 
BRANCH  22  23
HETATM   23  C           1     -20.907  -4.152  -8.916  0.00  0.00     0.003 C 
BRANCH  23  24
HETATM   24 Se           1     -22.295  -4.138 -10.284  0.00  0.00     0.000 Se
HETATM   25  C           1     -23.766  -3.938  -9.021  0.00  0.00     0.000 C 
ENDBRANCH  23  24
ENDBRANCH  22  23
ENDBRANCH  17  22
ENDBRANCH   2  17
TORSDOF 12
ENDMDL
MODEL 6
REMARK VINA RESULT:      -4.7      3.635      4.606
REMARK  12 active torsions:
REMARK  status: ('A' for Active; 'I' for Inactive)
REMARK    1  A    between atoms: C_1  and  C_2 
REMARK    2  A    between atoms: C_1  and  C_20 
REMARK    3  A    between atoms: C_1  and  N_17 
REMARK    4  A    between atoms: C_2  and  C_3 
REMARK    5  A    between atoms: C_3  and  C_4 
REMARK    6  A    between atoms: C_4  and  C_5 
REMARK    7  A    between atoms: C_5  and  N_21 
REMARK    8  A    between atoms: N_10  and  C_15 
REMARK    9  A    between atoms: Se_12  and  C_13 
REMARK   10  A    between atoms: C_13  and  C_14 
REMARK   11  A    between atoms: C_14  and  C_15 
REMARK   12  A    between atoms: C_15  and  C_16 
REMARK       I    between atoms: C_16  and  N_17 
ROOT
HETATM    1  O           1     -19.594  -8.791  -3.714  0.00  0.00    -0.271 OA
HETATM    2  C           1     -20.249  -9.170  -4.656  0.00  0.00     0.249 C 
HETATM    3  N           1     -20.848  -8.259  -5.484  0.00  0.00    -0.345 N 
HETATM    4  H           1     -21.397  -8.576  -6.272  0.00  0.00     0.163 HD
ENDROOT
BRANCH   3   5
HETATM    5  C           1     -20.697  -6.840  -5.229  0.00  0.00     0.185 C 
BRANCH   5   6
HETATM    6  C           1     -20.671  -6.087  -6.553  0.00  0.00     0.036 C 
BRANCH   6   7
HETATM    7  C           1     -20.225  -4.651  -6.312  0.00  0.00     0.004 C 
BRANCH   7   8
HETATM    8  C           1     -20.975  -3.721  -7.257  0.00  0.00     0.027 C 
BRANCH   8   9
HETATM    9  C           1     -22.340  -4.314  -7.578  0.00  0.00     0.229 C 
BRANCH   9  10
HETATM   10  N           1     -23.009  -3.487  -8.636  0.00  0.00    -0.079 N 
HETATM   11  H           1     -22.951  -3.983  -9.554  0.00  0.00     0.274 HD
HETATM   12  H           1     -22.530  -2.561  -8.708  0.00  0.00     0.274 HD
HETATM   13  H           1     -24.012  -3.341  -8.382  0.00  0.00     0.274 HD
ENDBRANCH   9  10
ENDBRANCH   8   9
ENDBRANCH   7   8
ENDBRANCH   6   7
ENDBRANCH   5   6
BRANCH   5  14
HETATM   14  C           1     -21.857  -6.352  -4.396  0.00  0.00     0.196 C 
HETATM   15  O           1     -21.660  -5.937  -3.233  0.00  0.00    -0.646 OA
HETATM   16  O           1     -23.014  -6.360  -4.868  0.00  0.00    -0.646 OA
ENDBRANCH   5  14
ENDBRANCH   3   5
BRANCH   2  17
HETATM   17  C           1     -20.406 -10.647  -4.921  0.00  0.00     0.274 C 
BRANCH  17  18
HETATM   18  N           1     -20.741 -10.862  -6.366  0.00  0.00    -0.067 N 
HETATM   19  H           1     -19.861 -11.012  -6.910  0.00  0.00     0.275 HD
HETATM   20  H           1     -21.354 -11.704  -6.460  0.00  0.00     0.275 HD
HETATM   21  H           1     -21.240 -10.023  -6.737  0.00  0.00     0.275 HD
ENDBRANCH  17  18
BRANCH  17  22
HETATM   22  C           1     -19.103 -11.365  -4.589  0.00  0.00     0.042 C 
BRANCH  22  23
HETATM   23  C           1     -18.253 -11.480  -5.848  0.00  0.00     0.003 C 
BRANCH  23  24
HETATM   24 Se           1     -16.723 -10.279  -5.712  0.00  0.00     0.000 Se
HETATM   25  C           1     -15.446 -11.560  -6.436  0.00  0.00     0.000 C 
ENDBRANCH  23  24
ENDBRANCH  22  23
ENDBRANCH  17  22
ENDBRANCH   2  17
TORSDOF 12
ENDMDL
MODEL 7
REMARK VINA RESULT:      -4.7      3.714      6.112
REMARK  12 active torsions:
REMARK  status: ('A' for Active; 'I' for Inactive)
REMARK    1  A    between atoms: C_1  and  C_2 
REMARK    2  A    between atoms: C_1  and  C_20 
REMARK    3  A    between atoms: C_1  and  N_17 
REMARK    4  A    between atoms: C_2  and  C_3 
REMARK    5  A    between atoms: C_3  and  C_4 
REMARK    6  A    between atoms: C_4  and  C_5 
REMARK    7  A    between atoms: C_5  and  N_21 
REMARK    8  A    between atoms: N_10  and  C_15 
REMARK    9  A    between atoms: Se_12  and  C_13 
REMARK   10  A    between atoms: C_13  and  C_14 
REMARK   11  A    between atoms: C_14  and  C_15 
REMARK   12  A    between atoms: C_15  and  C_16 
REMARK       I    between atoms: C_16  and  N_17 
ROOT
HETATM    1  O           1     -21.851  -9.842  -3.929  0.00  0.00    -0.271 OA
HETATM    2  C           1     -20.826  -9.338  -4.320  0.00  0.00     0.249 C 
HETATM    3  N           1     -20.708  -7.975  -4.370  0.00  0.00    -0.345 N 
HETATM    4  H           1     -19.849  -7.552  -4.697  0.00  0.00     0.163 HD
ENDROOT
BRANCH   3   5
HETATM    5  C           1     -21.815  -7.137  -3.952  0.00  0.00     0.185 C 
BRANCH   5   6
HETATM    6  C           1     -21.373  -6.255  -2.791  0.00  0.00     0.036 C 
BRANCH   6   7
HETATM    7  C           1     -22.202  -6.588  -1.557  0.00  0.00     0.004 C 
BRANCH   7   8
HETATM    8  C           1     -21.544  -7.731  -0.796  0.00  0.00     0.027 C 
BRANCH   8   9
HETATM    9  C           1     -22.618  -8.658  -0.241  0.00  0.00     0.229 C 
BRANCH   9  10
HETATM   10  N           1     -22.662  -9.917  -1.056  0.00  0.00    -0.079 N 
HETATM   11  H           1     -22.002  -9.833  -1.861  0.00  0.00     0.274 HD
HETATM   12  H           1     -23.632 -10.066  -1.414  0.00  0.00     0.274 HD
HETATM   13  H           1     -22.383 -10.728  -0.459  0.00  0.00     0.274 HD
ENDBRANCH   9  10
ENDBRANCH   8   9
ENDBRANCH   7   8
ENDBRANCH   6   7
ENDBRANCH   5   6
BRANCH   5  14
HETATM   14  C           1     -22.252  -6.268  -5.106  0.00  0.00     0.196 C 
HETATM   15  O           1     -23.461  -5.991  -5.257  0.00  0.00    -0.646 OA
HETATM   16  O           1     -21.405  -5.824  -5.910  0.00  0.00    -0.646 OA
ENDBRANCH   5  14
ENDBRANCH   3   5
BRANCH   2  17
HETATM   17  C           1     -19.674 -10.210  -4.755  0.00  0.00     0.274 C 
BRANCH  17  18
HETATM   18  N           1     -19.980 -10.811  -6.094  0.00  0.00    -0.067 N 
HETATM   19  H           1     -19.088 -11.064  -6.576  0.00  0.00     0.275 HD
HETATM   20  H           1     -20.562 -11.670  -5.966  0.00  0.00     0.275 HD
HETATM   21  H           1     -20.504 -10.118  -6.676  0.00  0.00     0.275 HD
ENDBRANCH  17  18
BRANCH  17  22
HETATM   22  C           1     -18.407  -9.369  -4.854  0.00  0.00     0.042 C 
BRANCH  22  23
HETATM   23  C           1     -17.296 -10.197  -5.486  0.00  0.00     0.003 C 
BRANCH  23  24
HETATM   24 Se           1     -16.297 -11.120  -4.090  0.00  0.00     0.000 Se
HETATM   25  C           1     -16.157  -9.559  -2.931  0.00  0.00     0.000 C 
ENDBRANCH  23  24
ENDBRANCH  22  23
ENDBRANCH  17  22
ENDBRANCH   2  17
TORSDOF 12
ENDMDL
MODEL 8
REMARK VINA RESULT:      -4.7     21.237     22.786
REMARK  12 active torsions:
REMARK  status: ('A' for Active; 'I' for Inactive)
REMARK    1  A    between atoms: C_1  and  C_2 
REMARK    2  A    between atoms: C_1  and  C_20 
REMARK    3  A    between atoms: C_1  and  N_17 
REMARK    4  A    between atoms: C_2  and  C_3 
REMARK    5  A    between atoms: C_3  and  C_4 
REMARK    6  A    between atoms: C_4  and  C_5 
REMARK    7  A    between atoms: C_5  and  N_21 
REMARK    8  A    between atoms: N_10  and  C_15 
REMARK    9  A    between atoms: Se_12  and  C_13 
REMARK   10  A    between atoms: C_13  and  C_14 
REMARK   11  A    between atoms: C_14  and  C_15 
REMARK   12  A    between atoms: C_15  and  C_16 
REMARK       I    between atoms: C_16  and  N_17 
ROOT
HETATM    1  O           1     -12.983   7.827 -19.291  0.00  0.00    -0.271 OA
HETATM    2  C           1     -12.282   8.385 -20.101  0.00  0.00     0.249 C 
HETATM    3  N           1     -11.315   7.683 -20.770  0.00  0.00    -0.345 N 
HETATM    4  H           1     -10.728   8.151 -21.448  0.00  0.00     0.163 HD
ENDROOT
BRANCH   3   5
HETATM    5  C           1     -11.134   6.269 -20.506  0.00  0.00     0.185 C 
BRANCH   5   6
HETATM    6  C           1     -11.008   5.519 -21.826  0.00  0.00     0.036 C 
BRANCH   6   7
HETATM    7  C           1     -11.478   4.083 -21.640  0.00  0.00     0.004 C 
BRANCH   7   8
HETATM    8  C           1     -12.743   4.067 -20.791  0.00  0.00     0.027 C 
BRANCH   8   9
HETATM    9  C           1     -13.963   4.184 -21.695  0.00  0.00     0.229 C 
BRANCH   9  10
HETATM   10  N           1     -14.006   3.014 -22.632  0.00  0.00    -0.079 N 
HETATM   11  H           1     -13.068   2.889 -23.076  0.00  0.00     0.274 HD
HETATM   12  H           1     -14.723   3.187 -23.373  0.00  0.00     0.274 HD
HETATM   13  H           1     -14.258   2.150 -22.101  0.00  0.00     0.274 HD
ENDBRANCH   9  10
ENDBRANCH   8   9
ENDBRANCH   7   8
ENDBRANCH   6   7
ENDBRANCH   5   6
BRANCH   5  14
HETATM   14  C           1      -9.881   6.066 -19.690  0.00  0.00     0.196 C 
HETATM   15  O           1      -9.965   5.786 -18.474  0.00  0.00    -0.646 OA
HETATM   16  O           1      -8.759   6.176 -20.229  0.00  0.00    -0.646 OA
ENDBRANCH   5  14
ENDBRANCH   3   5
BRANCH   2  17
HETATM   17  C           1     -12.470   9.857 -20.375  0.00  0.00     0.274 C 
BRANCH  17  18
HETATM   18  N           1     -13.135  10.035 -21.707  0.00  0.00    -0.067 N 
HETATM   19  H           1     -13.404   9.101 -22.091  0.00  0.00     0.275 HD
HETATM   20  H           1     -13.992  10.623 -21.593  0.00  0.00     0.275 HD
HETATM   21  H           1     -12.475  10.505 -22.367  0.00  0.00     0.275 HD
ENDBRANCH  17  18
BRANCH  17  22
HETATM   22  C           1     -13.343  10.470 -19.287  0.00  0.00     0.042 C 
BRANCH  22  23
HETATM   23  C           1     -14.294  11.484 -19.910  0.00  0.00     0.003 C 
BRANCH  23  24
HETATM   24 Se           1     -15.662  11.975 -18.612  0.00  0.00     0.000 Se
HETATM   25  C           1     -15.059  10.714 -17.254  0.00  0.00     0.000 C 
ENDBRANCH  23  24
ENDBRANCH  22  23
ENDBRANCH  17  22
ENDBRANCH   2  17
TORSDOF 12
ENDMDL
MODEL 9
REMARK VINA RESULT:      -4.7      3.619      6.759
REMARK  12 active torsions:
REMARK  status: ('A' for Active; 'I' for Inactive)
REMARK    1  A    between atoms: C_1  and  C_2 
REMARK    2  A    between atoms: C_1  and  C_20 
REMARK    3  A    between atoms: C_1  and  N_17 
REMARK    4  A    between atoms: C_2  and  C_3 
REMARK    5  A    between atoms: C_3  and  C_4 
REMARK    6  A    between atoms: C_4  and  C_5 
REMARK    7  A    between atoms: C_5  and  N_21 
REMARK    8  A    between atoms: N_10  and  C_15 
REMARK    9  A    between atoms: Se_12  and  C_13 
REMARK   10  A    between atoms: C_13  and  C_14 
REMARK   11  A    between atoms: C_14  and  C_15 
REMARK   12  A    between atoms: C_15  and  C_16 
REMARK       I    between atoms: C_16  and  N_17 
ROOT
HETATM    1  O           1     -20.693  -5.385  -4.642  0.00  0.00    -0.271 OA
HETATM    2  C           1     -20.371  -5.700  -5.763  0.00  0.00     0.249 C 
HETATM    3  N           1     -19.990  -6.988  -6.029  0.00  0.00    -0.345 N 
HETATM    4  H           1     -19.721  -7.252  -6.968  0.00  0.00     0.163 HD
ENDROOT
BRANCH   3   5
HETATM    5  C           1     -19.972  -7.973  -4.965  0.00  0.00     0.185 C 
BRANCH   5   6
HETATM    6  C           1     -21.284  -8.745  -4.967  0.00  0.00     0.036 C 
BRANCH   6   7
HETATM    7  C           1     -21.635  -9.155  -3.542  0.00  0.00     0.004 C 
BRANCH   7   8
HETATM    8  C           1     -21.155  -8.083  -2.573  0.00  0.00     0.027 C 
BRANCH   8   9
HETATM    9  C           1     -21.901  -8.222  -1.251  0.00  0.00     0.229 C 
BRANCH   9  10
HETATM   10  N           1     -22.414  -6.879  -0.823  0.00  0.00    -0.079 N 
HETATM   11  H           1     -21.850  -6.129  -1.281  0.00  0.00     0.274 HD
HETATM   12  H           1     -22.334  -6.791   0.215  0.00  0.00     0.274 HD
HETATM   13  H           1     -23.416  -6.783  -1.104  0.00  0.00     0.274 HD
ENDBRANCH   9  10
ENDBRANCH   8   9
ENDBRANCH   7   8
ENDBRANCH   6   7
ENDBRANCH   5   6
BRANCH   5  14
HETATM   14  C           1     -18.824  -8.929  -5.184  0.00  0.00     0.196 C 
HETATM   15  O           1     -18.169  -9.351  -4.207  0.00  0.00    -0.646 OA
HETATM   16  O           1     -18.531  -9.299  -6.340  0.00  0.00    -0.646 OA
ENDBRANCH   5  14
ENDBRANCH   3   5
BRANCH   2  17
HETATM   17  C           1     -20.390  -4.675  -6.870  0.00  0.00     0.274 C 
BRANCH  17  18
HETATM   18  N           1     -18.998  -4.479  -7.392  0.00  0.00    -0.067 N 
HETATM   19  H           1     -18.597  -5.402  -7.673  0.00  0.00     0.275 HD
HETATM   20  H           1     -19.024  -3.843  -8.222  0.00  0.00     0.275 HD
HETATM   21  H           1     -18.403  -4.054  -6.645  0.00  0.00     0.275 HD
ENDBRANCH  17  18
BRANCH  17  22
HETATM   22  C           1     -21.291  -5.162  -7.998  0.00  0.00     0.042 C 
BRANCH  22  23
HETATM   23  C           1     -20.797  -4.594  -9.323  0.00  0.00     0.003 C 
BRANCH  23  24
HETATM   24 Se           1     -22.281  -3.749 -10.263  0.00  0.00     0.000 Se
HETATM   25  C           1     -23.570  -4.045  -8.832  0.00  0.00     0.000 C 
ENDBRANCH  23  24
ENDBRANCH  22  23
ENDBRANCH  17  22
ENDBRANCH   2  17
TORSDOF 12
ENDMDL
