MODEL 1
REMARK VINA RESULT:      -4.9      0.000      0.000
REMARK  6 active torsions:
REMARK  status: ('A' for Active; 'I' for Inactive)
REMARK    1  A    between atoms: N_1  and  C_14 
REMARK    2  A    between atoms: C_5  and  C_12 
REMARK    3  A    between atoms: Se_10  and  C_11 
REMARK    4  A    between atoms: C_11  and  C_12 
REMARK    5  A    between atoms: C_12  and  N_16 
REMARK       I    between atoms: C_13  and  N_16 
REMARK    6  A    between atoms: C_13  and  C_14 
ROOT
HETATM    1  O           1     -24.182  -6.475 -18.529  0.00  0.00    -0.272 OA
HETATM    2  H           1     -27.280  -6.950 -18.650  0.00  0.00     0.163 HD
HETATM    3  C           1     -25.240  -6.841 -18.980  0.00  0.00     0.243 C 
HETATM    4  N           1     -26.393  -6.644 -18.270  0.00  0.00    -0.345 N 
ENDROOT
BRANCH   4   5
HETATM    5  C           1     -26.344  -5.997 -16.974  0.00  0.00     0.185 C 
BRANCH   5   6
HETATM    6  C           1     -26.326  -7.046 -15.889  0.00  0.00     0.196 C 
HETATM    7  O           1     -25.239  -7.531 -15.507  0.00  0.00    -0.646 OA
HETATM    8  O           1     -27.397  -7.430 -15.373  0.00  0.00    -0.646 OA
ENDBRANCH   5   6
BRANCH   5   9
HETATM    9  C           1     -27.571  -5.110 -16.802  0.00  0.00     0.039 C 
BRANCH   9  10
HETATM   10 Se           1     -28.734  -5.300 -18.355  0.00  0.00     0.000 Se
HETATM   11  H           1     -28.579  -3.902 -18.786  0.00  0.00     0.000 HD
ENDBRANCH   9  10
ENDBRANCH   5   9
ENDBRANCH   4   5
BRANCH   3  12
HETATM   12  C           1     -25.291  -7.515 -20.330  0.00  0.00     0.332 C 
BRANCH  12  13
HETATM   13  N           1     -26.715  -7.823 -20.684  0.00  0.00    -0.071 N 
HETATM   14  H           1     -26.832  -8.856 -20.796  0.00  0.00     0.274 HD
HETATM   15  H           1     -27.345  -7.483 -19.922  0.00  0.00     0.274 HD
HETATM   16  H           1     -26.963  -7.345 -21.580  0.00  0.00     0.274 HD
ENDBRANCH  12  13
ENDBRANCH   3  12
TORSDOF 6
ENDMDL
MODEL 2
REMARK VINA RESULT:      -4.7     11.889     13.660
REMARK  6 active torsions:
REMARK  status: ('A' for Active; 'I' for Inactive)
REMARK    1  A    between atoms: N_1  and  C_14 
REMARK    2  A    between atoms: C_5  and  C_12 
REMARK    3  A    between atoms: Se_10  and  C_11 
REMARK    4  A    between atoms: C_11  and  C_12 
REMARK    5  A    between atoms: C_12  and  N_16 
REMARK       I    between atoms: C_13  and  N_16 
REMARK    6  A    between atoms: C_13  and  C_14 
ROOT
HETATM    1  O           1     -38.073  -0.729 -11.266  0.00  0.00    -0.272 OA
HETATM    2  H           1     -35.450   0.968 -10.989  0.00  0.00     0.163 HD
HETATM    3  C           1     -37.292   0.051 -10.775  0.00  0.00     0.243 C 
HETATM    4  N           1     -36.104   0.314 -11.400  0.00  0.00    -0.345 N 
ENDROOT
BRANCH   4   5
HETATM    5  C           1     -35.781  -0.343 -12.652  0.00  0.00     0.185 C 
BRANCH   5   6
HETATM    6  C           1     -34.829  -1.483 -12.389  0.00  0.00     0.196 C 
HETATM    7  O           1     -34.718  -2.409 -13.221  0.00  0.00    -0.646 OA
HETATM    8  O           1     -34.149  -1.501 -11.340  0.00  0.00    -0.646 OA
ENDBRANCH   5   6
BRANCH   5   9
HETATM    9  C           1     -35.128   0.658 -13.597  0.00  0.00     0.039 C 
BRANCH   9  10
HETATM   10 Se           1     -35.963   0.536 -15.353  0.00  0.00     0.000 Se
HETATM   11  H           1     -35.069  -0.530 -15.832  0.00  0.00     0.000 HD
ENDBRANCH   9  10
ENDBRANCH   5   9
ENDBRANCH   4   5
BRANCH   3  12
HETATM   12  C           1     -37.628   0.734  -9.472  0.00  0.00     0.332 C 
BRANCH  12  13
HETATM   13  N           1     -36.376   1.290  -8.860  0.00  0.00    -0.071 N 
HETATM   14  H           1     -36.503   1.379  -7.827  0.00  0.00     0.274 HD
HETATM   15  H           1     -35.576   0.647  -9.058  0.00  0.00     0.274 HD
HETATM   16  H           1     -36.177   2.231  -9.270  0.00  0.00     0.274 HD
ENDBRANCH  12  13
ENDBRANCH   3  12
TORSDOF 6
ENDMDL
MODEL 3
REMARK VINA RESULT:      -4.6     11.898     12.526
REMARK  6 active torsions:
REMARK  status: ('A' for Active; 'I' for Inactive)
REMARK    1  A    between atoms: N_1  and  C_14 
REMARK    2  A    between atoms: C_5  and  C_12 
REMARK    3  A    between atoms: Se_10  and  C_11 
REMARK    4  A    between atoms: C_11  and  C_12 
REMARK    5  A    between atoms: C_12  and  N_16 
REMARK       I    between atoms: C_13  and  N_16 
REMARK    6  A    between atoms: C_13  and  C_14 
ROOT
HETATM    1  O           1     -35.936  -1.068 -13.956  0.00  0.00    -0.272 OA
HETATM    2  H           1     -34.144   0.235 -11.735  0.00  0.00     0.163 HD
HETATM    3  C           1     -35.187  -0.266 -13.450  0.00  0.00     0.243 C 
HETATM    4  N           1     -34.772  -0.437 -12.158  0.00  0.00    -0.345 N 
ENDROOT
BRANCH   4   5
HETATM    5  C           1     -35.230  -1.581 -11.394  0.00  0.00     0.185 C 
BRANCH   5   6
HETATM    6  C           1     -36.358  -1.158 -10.486  0.00  0.00     0.196 C 
HETATM    7  O           1     -37.544  -1.369 -10.822  0.00  0.00    -0.646 OA
HETATM    8  O           1     -36.108  -0.599  -9.397  0.00  0.00    -0.646 OA
ENDBRANCH   5   6
BRANCH   5   9
HETATM    9  C           1     -34.080  -2.126 -10.556  0.00  0.00     0.039 C 
BRANCH   9  10
HETATM   10 Se           1     -33.174  -3.544 -11.540  0.00  0.00     0.000 Se
HETATM   11  H           1     -34.377  -4.381 -11.670  0.00  0.00     0.000 HD
ENDBRANCH   9  10
ENDBRANCH   5   9
ENDBRANCH   4   5
BRANCH   3  12
HETATM   12  C           1     -34.710   0.924 -14.245  0.00  0.00     0.332 C 
BRANCH  12  13
HETATM   13  N           1     -35.813   1.403 -15.142  0.00  0.00    -0.071 N 
HETATM   14  H           1     -36.547   1.879 -14.570  0.00  0.00     0.274 HD
HETATM   15  H           1     -35.425   2.078 -15.840  0.00  0.00     0.274 HD
HETATM   16  H           1     -36.234   0.588 -15.643  0.00  0.00     0.274 HD
ENDBRANCH  12  13
ENDBRANCH   3  12
TORSDOF 6
ENDMDL
MODEL 4
REMARK VINA RESULT:      -4.5      9.183     10.469
REMARK  6 active torsions:
REMARK  status: ('A' for Active; 'I' for Inactive)
REMARK    1  A    between atoms: N_1  and  C_14 
REMARK    2  A    between atoms: C_5  and  C_12 
REMARK    3  A    between atoms: Se_10  and  C_11 
REMARK    4  A    between atoms: C_11  and  C_12 
REMARK    5  A    between atoms: C_12  and  N_16 
REMARK       I    between atoms: C_13  and  N_16 
REMARK    6  A    between atoms: C_13  and  C_14 
ROOT
HETATM    1  O           1     -21.790  -3.294  -7.450  0.00  0.00    -0.272 OA
HETATM    2  H           1     -22.457  -5.786  -9.235  0.00  0.00     0.163 HD
HETATM    3  C           1     -21.876  -4.459  -7.758  0.00  0.00     0.243 C 
HETATM    4  N           1     -22.386  -4.809  -8.978  0.00  0.00    -0.345 N 
ENDROOT
BRANCH   4   5
HETATM    5  C           1     -22.824  -3.782  -9.903  0.00  0.00     0.185 C 
BRANCH   5   6
HETATM    6  C           1     -24.301  -3.942 -10.167  0.00  0.00     0.196 C 
HETATM    7  O           1     -24.914  -3.081 -10.835  0.00  0.00    -0.646 OA
HETATM    8  O           1     -24.912  -4.936  -9.719  0.00  0.00    -0.646 OA
ENDBRANCH   5   6
BRANCH   5   9
HETATM    9  C           1     -22.056  -3.917 -11.212  0.00  0.00     0.039 C 
BRANCH   9  10
HETATM   10 Se           1     -20.196  -4.359 -10.834  0.00  0.00     0.000 Se
HETATM   11  H           1     -20.407  -5.814 -10.907  0.00  0.00     0.000 HD
ENDBRANCH   9  10
ENDBRANCH   5   9
ENDBRANCH   4   5
BRANCH   3  12
HETATM   12  C           1     -21.419  -5.528  -6.795  0.00  0.00     0.332 C 
BRANCH  12  13
HETATM   13  N           1     -20.203  -6.212  -7.344  0.00  0.00    -0.071 N 
HETATM   14  H           1     -19.697  -5.562  -7.988  0.00  0.00     0.274 HD
HETATM   15  H           1     -19.571  -6.483  -6.557  0.00  0.00     0.274 HD
HETATM   16  H           1     -20.492  -7.069  -7.869  0.00  0.00     0.274 HD
ENDBRANCH  12  13
ENDBRANCH   3  12
TORSDOF 6
ENDMDL
MODEL 5
REMARK VINA RESULT:      -4.3      2.064      2.362
REMARK  6 active torsions:
REMARK  status: ('A' for Active; 'I' for Inactive)
REMARK    1  A    between atoms: N_1  and  C_14 
REMARK    2  A    between atoms: C_5  and  C_12 
REMARK    3  A    between atoms: Se_10  and  C_11 
REMARK    4  A    between atoms: C_11  and  C_12 
REMARK    5  A    between atoms: C_12  and  N_16 
REMARK       I    between atoms: C_13  and  N_16 
REMARK    6  A    between atoms: C_13  and  C_14 
ROOT
HETATM    1  O           1     -26.548  -5.721 -20.729  0.00  0.00    -0.272 OA
HETATM    2  H           1     -27.815  -7.760 -18.711  0.00  0.00     0.163 HD
HETATM    3  C           1     -26.863  -6.794 -20.273  0.00  0.00     0.243 C 
HETATM    4  N           1     -27.550  -6.861 -19.092  0.00  0.00    -0.345 N 
ENDROOT
BRANCH   4   5
HETATM    5  C           1     -27.900  -5.644 -18.387  0.00  0.00     0.185 C 
BRANCH   5   6
HETATM    6  C           1     -27.169  -5.600 -17.068  0.00  0.00     0.196 C 
HETATM    7  O           1     -27.726  -5.115 -16.059  0.00  0.00    -0.646 OA
HETATM    8  O           1     -26.006  -6.050 -16.983  0.00  0.00    -0.646 OA
ENDBRANCH   5   6
BRANCH   5   9
HETATM    9  C           1     -29.403  -5.616 -18.135  0.00  0.00     0.039 C 
BRANCH   9  10
HETATM   10 Se           1     -30.092  -7.439 -18.113  0.00  0.00     0.000 Se
HETATM   11  H           1     -30.191  -7.507 -16.646  0.00  0.00     0.000 HD
ENDBRANCH   9  10
ENDBRANCH   5   9
ENDBRANCH   4   5
BRANCH   3  12
HETATM   12  C           1     -26.499  -8.061 -21.008  0.00  0.00     0.332 C 
BRANCH  12  13
HETATM   13  N           1     -27.694  -8.964 -21.074  0.00  0.00    -0.071 N 
HETATM   14  H           1     -27.394  -9.954 -20.922  0.00  0.00     0.274 HD
HETATM   15  H           1     -28.378  -8.692 -20.332  0.00  0.00     0.274 HD
HETATM   16  H           1     -28.146  -8.876 -22.013  0.00  0.00     0.274 HD
ENDBRANCH  12  13
ENDBRANCH   3  12
TORSDOF 6
ENDMDL
MODEL 6
REMARK VINA RESULT:      -4.1      9.274     10.667
REMARK  6 active torsions:
REMARK  status: ('A' for Active; 'I' for Inactive)
REMARK    1  A    between atoms: N_1  and  C_14 
REMARK    2  A    between atoms: C_5  and  C_12 
REMARK    3  A    between atoms: Se_10  and  C_11 
REMARK    4  A    between atoms: C_11  and  C_12 
REMARK    5  A    between atoms: C_12  and  N_16 
REMARK       I    between atoms: C_13  and  N_16 
REMARK    6  A    between atoms: C_13  and  C_14 
ROOT
HETATM    1  O           1     -20.582  -5.686  -8.287  0.00  0.00    -0.272 OA
HETATM    2  H           1     -22.381  -3.171  -8.811  0.00  0.00     0.163 HD
HETATM    3  C           1     -21.136  -4.639  -8.053  0.00  0.00     0.243 C 
HETATM    4  N           1     -21.916  -4.048  -9.008  0.00  0.00    -0.345 N 
ENDROOT
BRANCH   4   5
HETATM    5  C           1     -22.077  -4.678 -10.304  0.00  0.00     0.185 C 
BRANCH   5   6
HETATM    6  C           1     -21.436  -3.817 -11.364  0.00  0.00     0.196 C 
HETATM    7  O           1     -21.968  -3.712 -12.491  0.00  0.00    -0.646 OA
HETATM    8  O           1     -20.374  -3.207 -11.116  0.00  0.00    -0.646 OA
ENDBRANCH   5   6
BRANCH   5   9
HETATM    9  C           1     -23.561  -4.840 -10.610  0.00  0.00     0.039 C 
BRANCH   9  10
HETATM   10 Se           1     -24.568  -3.435  -9.708  0.00  0.00     0.000 Se
HETATM   11  H           1     -25.008  -2.790 -10.955  0.00  0.00     0.000 HD
ENDBRANCH   9  10
ENDBRANCH   5   9
ENDBRANCH   4   5
BRANCH   3  12
HETATM   12  C           1     -20.968  -3.983  -6.704  0.00  0.00     0.332 C 
BRANCH  12  13
HETATM   13  N           1     -19.992  -4.770  -5.881  0.00  0.00    -0.071 N 
HETATM   14  H           1     -19.718  -4.216  -5.038  0.00  0.00     0.274 HD
HETATM   15  H           1     -20.435  -5.667  -5.578  0.00  0.00     0.274 HD
HETATM   16  H           1     -19.142  -4.978  -6.453  0.00  0.00     0.274 HD
ENDBRANCH  12  13
ENDBRANCH   3  12
TORSDOF 6
ENDMDL
MODEL 7
REMARK VINA RESULT:      -4.1      1.689      2.103
REMARK  6 active torsions:
REMARK  status: ('A' for Active; 'I' for Inactive)
REMARK    1  A    between atoms: N_1  and  C_14 
REMARK    2  A    between atoms: C_5  and  C_12 
REMARK    3  A    between atoms: Se_10  and  C_11 
REMARK    4  A    between atoms: C_11  and  C_12 
REMARK    5  A    between atoms: C_12  and  N_16 
REMARK       I    between atoms: C_13  and  N_16 
REMARK    6  A    between atoms: C_13  and  C_14 
ROOT
HETATM    1  O           1     -25.336  -6.320 -17.379  0.00  0.00    -0.272 OA
HETATM    2  H           1     -27.560  -6.637 -19.568  0.00  0.00     0.163 HD
HETATM    3  C           1     -25.818  -6.589 -18.454  0.00  0.00     0.243 C 
HETATM    4  N           1     -27.157  -6.412 -18.667  0.00  0.00    -0.345 N 
ENDROOT
BRANCH   4   5
HETATM    5  C           1     -28.000  -5.901 -17.604  0.00  0.00     0.185 C 
BRANCH   5   6
HETATM    6  C           1     -28.648  -7.055 -16.879  0.00  0.00     0.196 C 
HETATM    7  O           1     -29.636  -7.633 -17.381  0.00  0.00    -0.646 OA
HETATM    8  O           1     -28.196  -7.434 -15.777  0.00  0.00    -0.646 OA
ENDBRANCH   5   6
BRANCH   5   9
HETATM    9  C           1     -29.078  -5.004 -18.197  0.00  0.00     0.039 C 
BRANCH   9  10
HETATM   10 Se           1     -29.077  -3.287 -17.274  0.00  0.00     0.000 Se
HETATM   11  H           1     -28.638  -2.523 -18.453  0.00  0.00     0.000 HD
ENDBRANCH   9  10
ENDBRANCH   5   9
ENDBRANCH   4   5
BRANCH   3  12
HETATM   12  C           1     -24.940  -7.121 -19.560  0.00  0.00     0.332 C 
BRANCH  12  13
HETATM   13  N           1     -25.790  -7.807 -20.588  0.00  0.00    -0.071 N 
HETATM   14  H           1     -26.502  -8.405 -20.110  0.00  0.00     0.274 HD
HETATM   15  H           1     -26.275  -7.091 -21.174  0.00  0.00     0.274 HD
HETATM   16  H           1     -25.185  -8.404 -21.198  0.00  0.00     0.274 HD
ENDBRANCH  12  13
ENDBRANCH   3  12
TORSDOF 6
ENDMDL
MODEL 8
REMARK VINA RESULT:      -4.0      9.295     10.528
REMARK  6 active torsions:
REMARK  status: ('A' for Active; 'I' for Inactive)
REMARK    1  A    between atoms: N_1  and  C_14 
REMARK    2  A    between atoms: C_5  and  C_12 
REMARK    3  A    between atoms: Se_10  and  C_11 
REMARK    4  A    between atoms: C_11  and  C_12 
REMARK    5  A    between atoms: C_12  and  N_16 
REMARK       I    between atoms: C_13  and  N_16 
REMARK    6  A    between atoms: C_13  and  C_14 
ROOT
HETATM    1  O           1     -23.728  -5.118 -10.107  0.00  0.00    -0.272 OA
HETATM    2  H           1     -22.267  -3.230  -8.073  0.00  0.00     0.163 HD
HETATM    3  C           1     -23.546  -4.142  -9.419  0.00  0.00     0.243 C 
HETATM    4  N           1     -22.419  -4.048  -8.649  0.00  0.00    -0.345 N 
ENDROOT
BRANCH   4   5
HETATM    5  C           1     -21.443  -5.120  -8.657  0.00  0.00     0.185 C 
BRANCH   5   6
HETATM    6  C           1     -21.239  -5.624  -7.250  0.00  0.00     0.196 C 
HETATM    7  O           1     -20.333  -6.451  -7.007  0.00  0.00    -0.646 OA
HETATM    8  O           1     -21.975  -5.216  -6.327  0.00  0.00    -0.646 OA
ENDBRANCH   5   6
BRANCH   5   9
HETATM    9  C           1     -20.121  -4.599  -9.207  0.00  0.00     0.039 C 
BRANCH   9  10
HETATM   10 Se           1     -20.363  -4.030 -11.056  0.00  0.00     0.000 Se
HETATM   11  H           1     -20.322  -5.396 -11.602  0.00  0.00     0.000 HD
ENDBRANCH   9  10
ENDBRANCH   5   9
ENDBRANCH   4   5
BRANCH   3  12
HETATM   12  C           1     -24.562  -3.027  -9.410  0.00  0.00     0.332 C 
BRANCH  12  13
HETATM   13  N           1     -25.934  -3.596  -9.616  0.00  0.00    -0.071 N 
HETATM   14  H           1     -26.049  -4.451  -9.027  0.00  0.00     0.274 HD
HETATM   15  H           1     -26.650  -2.886  -9.341  0.00  0.00     0.274 HD
HETATM   16  H           1     -26.060  -3.845 -10.623  0.00  0.00     0.274 HD
ENDBRANCH  12  13
ENDBRANCH   3  12
TORSDOF 6
ENDMDL
MODEL 9
REMARK VINA RESULT:      -4.0     10.618     12.059
REMARK  6 active torsions:
REMARK  status: ('A' for Active; 'I' for Inactive)
REMARK    1  A    between atoms: N_1  and  C_14 
REMARK    2  A    between atoms: C_5  and  C_12 
REMARK    3  A    between atoms: Se_10  and  C_11 
REMARK    4  A    between atoms: C_11  and  C_12 
REMARK    5  A    between atoms: C_12  and  N_16 
REMARK       I    between atoms: C_13  and  N_16 
REMARK    6  A    between atoms: C_13  and  C_14 
ROOT
HETATM    1  O           1     -21.034  -6.943  -6.780  0.00  0.00    -0.272 OA
HETATM    2  H           1     -21.688  -3.896  -6.425  0.00  0.00     0.163 HD
HETATM    3  C           1     -21.210  -5.897  -6.203  0.00  0.00     0.243 C 
HETATM    4  N           1     -21.540  -4.773  -6.909  0.00  0.00    -0.345 N 
ENDROOT
BRANCH   4   5
HETATM    5  C           1     -21.679  -4.837  -8.351  0.00  0.00     0.185 C 
BRANCH   5   6
HETATM    6  C           1     -20.398  -4.372  -8.999  0.00  0.00     0.196 C 
HETATM    7  O           1     -20.157  -4.665 -10.191  0.00  0.00    -0.646 OA
HETATM    8  O           1     -19.577  -3.692  -8.346  0.00  0.00    -0.646 OA
ENDBRANCH   5   6
BRANCH   5   9
HETATM    9  C           1     -22.826  -3.937  -8.791  0.00  0.00     0.039 C 
BRANCH   9  10
HETATM   10 Se           1     -23.723  -4.730 -10.329  0.00  0.00     0.000 Se
HETATM   11  H           1     -24.888  -5.191  -9.558  0.00  0.00     0.000 HD
ENDBRANCH   9  10
ENDBRANCH   5   9
ENDBRANCH   4   5
BRANCH   3  12
HETATM   12  C           1     -21.066  -5.831  -4.703  0.00  0.00     0.332 C 
BRANCH  12  13
HETATM   13  N           1     -22.349  -6.261  -4.055  0.00  0.00    -0.071 N 
HETATM   14  H           1     -22.148  -6.656  -3.109  0.00  0.00     0.274 HD
HETATM   15  H           1     -22.984  -5.436  -3.959  0.00  0.00     0.274 HD
HETATM   16  H           1     -22.811  -6.988  -4.647  0.00  0.00     0.274 HD
ENDBRANCH  12  13
ENDBRANCH   3  12
TORSDOF 6
ENDMDL
