MODEL 1
REMARK VINA RESULT:      -6.8      0.000      0.000
REMARK  9 active torsions:
REMARK  status: ('A' for Active; 'I' for Inactive)
REMARK    1  A    between atoms: N_1  and  C_20 
REMARK       I    between atoms: N_1  and  C_19 
REMARK    2  A    between atoms: N_7  and  C_18 
REMARK    3  A    between atoms: C_10  and  C_11 
REMARK       I    between atoms: C_10  and  N_16 
REMARK    4  A    between atoms: C_11  and  C_17 
REMARK       I    between atoms: C_12  and  N_15 
REMARK    5  A    between atoms: C_12  and  C_14 
REMARK    6  A    between atoms: C_14  and  C_20 
REMARK    7  A    between atoms: C_17  and  C_18 
REMARK    8  A    between atoms: C_18  and  C_19 
REMARK    9  A    between atoms: C_20  and  C_21 
ROOT
HETATM    1  N           1     -27.371  -7.092 -19.174  0.00  0.00    -0.344 N 
HETATM    2  O           1     -28.526  -5.181 -19.200  0.00  0.00    -0.271 OA
HETATM    3  C           1     -28.234  -6.192 -18.608  0.00  0.00     0.249 C 
HETATM    4  H           1     -27.125  -7.939 -18.677  0.00  0.00     0.163 HD
ENDROOT
BRANCH   3   5
HETATM    5  C           1     -28.820  -6.464 -17.244  0.00  0.00     0.275 C 
BRANCH   5   6
HETATM    6  N           1     -27.788  -7.127 -16.381  0.00  0.00    -0.066 N 
HETATM    7  H           1     -26.925  -7.306 -16.944  0.00  0.00     0.275 HD
HETATM    8  H           1     -27.554  -6.503 -15.575  0.00  0.00     0.275 HD
HETATM    9  H           1     -28.163  -8.033 -16.022  0.00  0.00     0.275 HD
ENDBRANCH   5   6
BRANCH   5  10
HETATM   10  C           1     -29.248  -5.149 -16.604  0.00  0.00     0.052 C 
BRANCH  10  11
HETATM   11  C           1     -30.756  -4.982 -16.745  0.00  0.00     0.105 C 
BRANCH  11  12
HETATM   12  C           1     -31.057  -3.651 -17.388  0.00  0.00     0.215 C 
HETATM   13  O           1     -32.203  -3.296 -17.534  0.00  0.00    -0.274 OA
HETATM   14  N           1     -30.033  -2.845 -17.805  0.00  0.00    -0.370 N 
HETATM   15  H           1     -30.235  -1.952 -18.237  0.00  0.00     0.159 HD
HETATM   16  H           1     -29.073  -3.142 -17.683  0.00  0.00     0.159 HD
ENDBRANCH  11  12
ENDBRANCH  10  11
ENDBRANCH   5  10
ENDBRANCH   3   5
BRANCH   1  17
HETATM   17  C           1     -26.807  -6.832 -20.484  0.00  0.00     0.194 C 
BRANCH  17  18
HETATM   18  C           1     -25.436  -6.189 -20.328  0.00  0.00     0.138 C 
BRANCH  18  19
HETATM   19  C           1     -24.689  -6.862 -19.203  0.00  0.00     0.217 C 
HETATM   20  O           1     -24.940  -6.578 -18.056  0.00  0.00    -0.274 OA
HETATM   21  N           1     -23.727  -7.795 -19.481  0.00  0.00    -0.370 N 
HETATM   22  H           1     -23.226  -8.247 -18.726  0.00  0.00     0.159 HD
HETATM   23  H           1     -23.517  -8.034 -20.442  0.00  0.00     0.159 HD
ENDBRANCH  18  19
ENDBRANCH  17  18
BRANCH  17  24
HETATM   24  C           1     -26.672  -8.131 -21.240  0.00  0.00     0.197 C 
HETATM   25  O           1     -25.574  -8.447 -21.747  0.00  0.00    -0.646 OA
HETATM   26  O           1     -27.658  -8.891 -21.358  0.00  0.00    -0.646 OA
ENDBRANCH  17  24
ENDBRANCH   1  17
TORSDOF 9
ENDMDL
MODEL 2
REMARK VINA RESULT:      -6.6      2.128      5.947
REMARK  9 active torsions:
REMARK  status: ('A' for Active; 'I' for Inactive)
REMARK    1  A    between atoms: N_1  and  C_20 
REMARK       I    between atoms: N_1  and  C_19 
REMARK    2  A    between atoms: N_7  and  C_18 
REMARK    3  A    between atoms: C_10  and  C_11 
REMARK       I    between atoms: C_10  and  N_16 
REMARK    4  A    between atoms: C_11  and  C_17 
REMARK       I    between atoms: C_12  and  N_15 
REMARK    5  A    between atoms: C_12  and  C_14 
REMARK    6  A    between atoms: C_14  and  C_20 
REMARK    7  A    between atoms: C_17  and  C_18 
REMARK    8  A    between atoms: C_18  and  C_19 
REMARK    9  A    between atoms: C_20  and  C_21 
ROOT
HETATM    1  N           1     -27.607  -6.554 -17.083  0.00  0.00    -0.344 N 
HETATM    2  O           1     -26.515  -7.343 -15.302  0.00  0.00    -0.271 OA
HETATM    3  C           1     -26.458  -6.904 -16.426  0.00  0.00     0.249 C 
HETATM    4  H           1     -27.559  -6.185 -18.024  0.00  0.00     0.163 HD
ENDROOT
BRANCH   3   5
HETATM    5  C           1     -25.120  -6.742 -17.105  0.00  0.00     0.275 C 
BRANCH   5   6
HETATM    6  N           1     -24.208  -7.854 -16.681  0.00  0.00    -0.066 N 
HETATM    7  H           1     -24.502  -8.208 -15.742  0.00  0.00     0.275 HD
HETATM    8  H           1     -24.259  -8.631 -17.378  0.00  0.00     0.275 HD
HETATM    9  H           1     -23.227  -7.498 -16.627  0.00  0.00     0.275 HD
ENDBRANCH   5   6
BRANCH   5  10
HETATM   10  C           1     -25.309  -6.788 -18.616  0.00  0.00     0.052 C 
BRANCH  10  11
HETATM   11  C           1     -23.994  -7.173 -19.282  0.00  0.00     0.105 C 
BRANCH  11  12
HETATM   12  C           1     -24.275  -7.978 -20.526  0.00  0.00     0.215 C 
HETATM   13  O           1     -25.375  -7.955 -21.025  0.00  0.00    -0.274 OA
HETATM   14  N           1     -23.285  -8.736 -21.089  0.00  0.00    -0.370 N 
HETATM   15  H           1     -23.473  -9.277 -21.924  0.00  0.00     0.159 HD
HETATM   16  H           1     -22.363  -8.756 -20.671  0.00  0.00     0.159 HD
ENDBRANCH  11  12
ENDBRANCH  10  11
ENDBRANCH   5  10
ENDBRANCH   3   5
BRANCH   1  17
HETATM   17  C           1     -28.892  -6.709 -16.430  0.00  0.00     0.194 C 
BRANCH  17  18
HETATM   18  C           1     -29.388  -5.349 -15.955  0.00  0.00     0.138 C 
BRANCH  18  19
HETATM   19  C           1     -28.883  -4.275 -16.887  0.00  0.00     0.217 C 
HETATM   20  O           1     -27.827  -3.733 -16.667  0.00  0.00    -0.274 OA
HETATM   21  N           1     -29.622  -3.916 -17.981  0.00  0.00    -0.370 N 
HETATM   22  H           1     -29.283  -3.195 -18.606  0.00  0.00     0.159 HD
HETATM   23  H           1     -30.507  -4.370 -18.166  0.00  0.00     0.159 HD
ENDBRANCH  18  19
ENDBRANCH  17  18
BRANCH  17  24
HETATM   24  C           1     -29.884  -7.293 -17.406  0.00  0.00     0.197 C 
HETATM   25  O           1     -31.039  -6.821 -17.483  0.00  0.00    -0.646 OA
HETATM   26  O           1     -29.550  -8.251 -18.138  0.00  0.00    -0.646 OA
ENDBRANCH  17  24
ENDBRANCH   1  17
TORSDOF 9
ENDMDL
MODEL 3
REMARK VINA RESULT:      -6.3     11.707     13.377
REMARK  9 active torsions:
REMARK  status: ('A' for Active; 'I' for Inactive)
REMARK    1  A    between atoms: N_1  and  C_20 
REMARK       I    between atoms: N_1  and  C_19 
REMARK    2  A    between atoms: N_7  and  C_18 
REMARK    3  A    between atoms: C_10  and  C_11 
REMARK       I    between atoms: C_10  and  N_16 
REMARK    4  A    between atoms: C_11  and  C_17 
REMARK       I    between atoms: C_12  and  N_15 
REMARK    5  A    between atoms: C_12  and  C_14 
REMARK    6  A    between atoms: C_14  and  C_20 
REMARK    7  A    between atoms: C_17  and  C_18 
REMARK    8  A    between atoms: C_18  and  C_19 
REMARK    9  A    between atoms: C_20  and  C_21 
ROOT
HETATM    1  N           1     -22.319  -5.007  -8.829  0.00  0.00    -0.344 N 
HETATM    2  O           1     -21.493  -3.649  -7.259  0.00  0.00    -0.271 OA
HETATM    3  C           1     -21.679  -4.781  -7.639  0.00  0.00     0.249 C 
HETATM    4  H           1     -22.474  -5.955  -9.147  0.00  0.00     0.163 HD
ENDROOT
BRANCH   3   5
HETATM    5  C           1     -21.205  -5.945  -6.803  0.00  0.00     0.275 C 
BRANCH   5   6
HETATM    6  N           1     -19.792  -6.282  -7.174  0.00  0.00    -0.066 N 
HETATM    7  H           1     -19.504  -5.716  -8.005  0.00  0.00     0.275 HD
HETATM    8  H           1     -19.160  -6.065  -6.370  0.00  0.00     0.275 HD
HETATM    9  H           1     -19.725  -7.298  -7.406  0.00  0.00     0.275 HD
ENDBRANCH   5   6
BRANCH   5  10
HETATM   10  C           1     -21.269  -5.570  -5.329  0.00  0.00     0.052 C 
BRANCH  10  11
HETATM   11  C           1     -22.129  -6.582  -4.583  0.00  0.00     0.105 C 
BRANCH  11  12
HETATM   12  C           1     -21.711  -6.629  -3.134  0.00  0.00     0.215 C 
HETATM   13  O           1     -20.810  -7.356  -2.788  0.00  0.00    -0.274 OA
HETATM   14  N           1     -22.352  -5.847  -2.211  0.00  0.00    -0.370 N 
HETATM   15  H           1     -22.072  -5.879  -1.239  0.00  0.00     0.159 HD
HETATM   16  H           1     -23.107  -5.238  -2.501  0.00  0.00     0.159 HD
ENDBRANCH  11  12
ENDBRANCH  10  11
ENDBRANCH   5  10
ENDBRANCH   3   5
BRANCH   1  17
HETATM   17  C           1     -22.774  -3.888  -9.632  0.00  0.00     0.194 C 
BRANCH  17  18
HETATM   18  C           1     -22.255  -4.042 -11.055  0.00  0.00     0.138 C 
BRANCH  18  19
HETATM   19  C           1     -20.756  -3.863 -11.068  0.00  0.00     0.217 C 
HETATM   20  O           1     -20.037  -4.771 -10.725  0.00  0.00    -0.274 OA
HETATM   21  N           1     -20.212  -2.673 -11.467  0.00  0.00    -0.370 N 
HETATM   22  H           1     -19.207  -2.553 -11.476  0.00  0.00     0.159 HD
HETATM   23  H           1     -20.815  -1.913 -11.755  0.00  0.00     0.159 HD
ENDBRANCH  18  19
ENDBRANCH  17  18
BRANCH  17  24
HETATM   24  C           1     -24.282  -3.861  -9.646  0.00  0.00     0.197 C 
HETATM   25  O           1     -24.925  -4.921  -9.808  0.00  0.00    -0.646 OA
HETATM   26  O           1     -24.889  -2.778  -9.496  0.00  0.00    -0.646 OA
ENDBRANCH  17  24
ENDBRANCH   1  17
TORSDOF 9
ENDMDL
MODEL 4
REMARK VINA RESULT:      -6.2      1.365      1.683
REMARK  9 active torsions:
REMARK  status: ('A' for Active; 'I' for Inactive)
REMARK    1  A    between atoms: N_1  and  C_20 
REMARK       I    between atoms: N_1  and  C_19 
REMARK    2  A    between atoms: N_7  and  C_18 
REMARK    3  A    between atoms: C_10  and  C_11 
REMARK       I    between atoms: C_10  and  N_16 
REMARK    4  A    between atoms: C_11  and  C_17 
REMARK       I    between atoms: C_12  and  N_15 
REMARK    5  A    between atoms: C_12  and  C_14 
REMARK    6  A    between atoms: C_14  and  C_20 
REMARK    7  A    between atoms: C_17  and  C_18 
REMARK    8  A    between atoms: C_18  and  C_19 
REMARK    9  A    between atoms: C_20  and  C_21 
ROOT
HETATM    1  N           1     -27.375  -6.965 -18.643  0.00  0.00    -0.344 N 
HETATM    2  O           1     -28.447  -5.056 -19.087  0.00  0.00    -0.271 OA
HETATM    3  C           1     -28.474  -6.150 -18.575  0.00  0.00     0.249 C 
HETATM    4  H           1     -27.397  -7.881 -18.213  0.00  0.00     0.163 HD
ENDROOT
BRANCH   3   5
HETATM    5  C           1     -29.718  -6.619 -17.860  0.00  0.00     0.275 C 
BRANCH   5   6
HETATM    6  N           1     -29.468  -7.970 -17.258  0.00  0.00    -0.066 N 
HETATM    7  H           1     -30.206  -8.637 -17.580  0.00  0.00     0.275 HD
HETATM    8  H           1     -28.530  -8.317 -17.559  0.00  0.00     0.275 HD
HETATM    9  H           1     -29.496  -7.897 -16.217  0.00  0.00     0.275 HD
ENDBRANCH   5   6
BRANCH   5  10
HETATM   10  C           1     -30.073  -5.630 -16.758  0.00  0.00     0.052 C 
BRANCH  10  11
HETATM   11  C           1     -31.481  -5.095 -16.989  0.00  0.00     0.105 C 
BRANCH  11  12
HETATM   12  C           1     -31.406  -3.665 -17.463  0.00  0.00     0.215 C 
HETATM   13  O           1     -32.421  -3.051 -17.693  0.00  0.00    -0.274 OA
HETATM   14  N           1     -30.189  -3.064 -17.634  0.00  0.00    -0.370 N 
HETATM   15  H           1     -30.138  -2.104 -17.952  0.00  0.00     0.159 HD
HETATM   16  H           1     -29.339  -3.579 -17.441  0.00  0.00     0.159 HD
ENDBRANCH  11  12
ENDBRANCH  10  11
ENDBRANCH   5  10
ENDBRANCH   3   5
BRANCH   1  17
HETATM   17  C           1     -26.180  -6.515 -19.329  0.00  0.00     0.194 C 
BRANCH  17  18
HETATM   18  C           1     -24.967  -6.741 -18.436  0.00  0.00     0.138 C 
BRANCH  18  19
HETATM   19  C           1     -25.367  -6.572 -16.991  0.00  0.00     0.217 C 
HETATM   20  O           1     -25.901  -5.551 -16.628  0.00  0.00    -0.274 OA
HETATM   21  N           1     -25.124  -7.574 -16.091  0.00  0.00    -0.370 N 
HETATM   22  H           1     -25.392  -7.460 -15.122  0.00  0.00     0.159 HD
HETATM   23  H           1     -24.676  -8.429 -16.396  0.00  0.00     0.159 HD
ENDBRANCH  18  19
ENDBRANCH  17  18
BRANCH  17  24
HETATM   24  C           1     -26.013  -7.294 -20.611  0.00  0.00     0.197 C 
HETATM   25  O           1     -26.940  -8.024 -21.023  0.00  0.00    -0.646 OA
HETATM   26  O           1     -24.947  -7.210 -21.259  0.00  0.00    -0.646 OA
ENDBRANCH  17  24
ENDBRANCH   1  17
TORSDOF 9
ENDMDL
MODEL 5
REMARK VINA RESULT:      -6.1      2.050      3.275
REMARK  9 active torsions:
REMARK  status: ('A' for Active; 'I' for Inactive)
REMARK    1  A    between atoms: N_1  and  C_20 
REMARK       I    between atoms: N_1  and  C_19 
REMARK    2  A    between atoms: N_7  and  C_18 
REMARK    3  A    between atoms: C_10  and  C_11 
REMARK       I    between atoms: C_10  and  N_16 
REMARK    4  A    between atoms: C_11  and  C_17 
REMARK       I    between atoms: C_12  and  N_15 
REMARK    5  A    between atoms: C_12  and  C_14 
REMARK    6  A    between atoms: C_14  and  C_20 
REMARK    7  A    between atoms: C_17  and  C_18 
REMARK    8  A    between atoms: C_18  and  C_19 
REMARK    9  A    between atoms: C_20  and  C_21 
ROOT
HETATM    1  N           1     -26.867  -5.731 -17.668  0.00  0.00    -0.344 N 
HETATM    2  O           1     -28.445  -6.919 -16.628  0.00  0.00    -0.271 OA
HETATM    3  C           1     -28.112  -5.865 -17.114  0.00  0.00     0.249 C 
HETATM    4  H           1     -26.588  -4.848 -18.077  0.00  0.00     0.163 HD
ENDROOT
BRANCH   3   5
HETATM    5  C           1     -29.068  -4.697 -17.112  0.00  0.00     0.275 C 
BRANCH   5   6
HETATM    6  N           1     -29.494  -4.399 -18.519  0.00  0.00    -0.066 N 
HETATM    7  H           1     -30.531  -4.513 -18.601  0.00  0.00     0.275 HD
HETATM    8  H           1     -29.232  -3.418 -18.762  0.00  0.00     0.275 HD
HETATM    9  H           1     -29.020  -5.060 -19.174  0.00  0.00     0.275 HD
ENDBRANCH   5   6
BRANCH   5  10
HETATM   10  C           1     -30.291  -5.043 -16.273  0.00  0.00     0.052 C 
BRANCH  10  11
HETATM   11  C           1     -31.488  -5.267 -17.188  0.00  0.00     0.105 C 
BRANCH  11  12
HETATM   12  C           1     -32.475  -4.140 -17.011  0.00  0.00     0.215 C 
HETATM   13  O           1     -32.343  -3.117 -17.641  0.00  0.00    -0.274 OA
HETATM   14  N           1     -33.521  -4.275 -16.139  0.00  0.00    -0.370 N 
HETATM   15  H           1     -34.183  -3.519 -16.020  0.00  0.00     0.159 HD
HETATM   16  H           1     -33.632  -5.132 -15.611  0.00  0.00     0.159 HD
ENDBRANCH  11  12
ENDBRANCH  10  11
ENDBRANCH   5  10
ENDBRANCH   3   5
BRANCH   1  17
HETATM   17  C           1     -25.949  -6.853 -17.671  0.00  0.00     0.194 C 
BRANCH  17  18
HETATM   18  C           1     -25.028  -6.752 -18.880  0.00  0.00     0.138 C 
BRANCH  18  19
HETATM   19  C           1     -25.782  -7.158 -20.122  0.00  0.00     0.217 C 
HETATM   20  O           1     -26.804  -6.588 -20.422  0.00  0.00    -0.274 OA
HETATM   21  N           1     -25.308  -8.172 -20.910  0.00  0.00    -0.370 N 
HETATM   22  H           1     -25.814  -8.444 -21.744  0.00  0.00     0.159 HD
HETATM   23  H           1     -24.452  -8.649 -20.659  0.00  0.00     0.159 HD
ENDBRANCH  18  19
ENDBRANCH  17  18
BRANCH  17  24
HETATM   24  C           1     -25.124  -6.830 -16.407  0.00  0.00     0.197 C 
HETATM   25  O           1     -24.994  -5.765 -15.765  0.00  0.00    -0.646 OA
HETATM   26  O           1     -24.572  -7.876 -16.002  0.00  0.00    -0.646 OA
ENDBRANCH  17  24
ENDBRANCH   1  17
TORSDOF 9
ENDMDL
MODEL 6
REMARK VINA RESULT:      -6.0     11.129     12.983
REMARK  9 active torsions:
REMARK  status: ('A' for Active; 'I' for Inactive)
REMARK    1  A    between atoms: N_1  and  C_20 
REMARK       I    between atoms: N_1  and  C_19 
REMARK    2  A    between atoms: N_7  and  C_18 
REMARK    3  A    between atoms: C_10  and  C_11 
REMARK       I    between atoms: C_10  and  N_16 
REMARK    4  A    between atoms: C_11  and  C_17 
REMARK       I    between atoms: C_12  and  N_15 
REMARK    5  A    between atoms: C_12  and  C_14 
REMARK    6  A    between atoms: C_14  and  C_20 
REMARK    7  A    between atoms: C_17  and  C_18 
REMARK    8  A    between atoms: C_18  and  C_19 
REMARK    9  A    between atoms: C_20  and  C_21 
ROOT
HETATM    1  N           1     -22.930  -3.940  -8.405  0.00  0.00    -0.344 N 
HETATM    2  O           1     -20.730  -3.564  -8.339  0.00  0.00    -0.271 OA
HETATM    3  C           1     -21.724  -3.924  -7.756  0.00  0.00     0.249 C 
HETATM    4  H           1     -23.763  -4.243  -7.917  0.00  0.00     0.163 HD
ENDROOT
BRANCH   3   5
HETATM    5  C           1     -21.638  -4.356  -6.312  0.00  0.00     0.275 C 
BRANCH   5   6
HETATM    6  N           1     -22.709  -5.367  -6.030  0.00  0.00    -0.066 N 
HETATM    7  H           1     -23.104  -5.200  -5.076  0.00  0.00     0.275 HD
HETATM    8  H           1     -23.469  -5.278  -6.742  0.00  0.00     0.275 HD
HETATM    9  H           1     -22.301  -6.328  -6.073  0.00  0.00     0.275 HD
ENDBRANCH   5   6
BRANCH   5  10
HETATM   10  C           1     -20.273  -4.975  -6.048  0.00  0.00     0.052 C 
BRANCH  10  11
HETATM   11  C           1     -20.253  -6.406  -6.572  0.00  0.00     0.105 C 
BRANCH  11  12
HETATM   12  C           1     -20.151  -7.366  -5.413  0.00  0.00     0.215 C 
HETATM   13  O           1     -20.684  -7.102  -4.361  0.00  0.00    -0.274 OA
HETATM   14  N           1     -19.456  -8.536  -5.552  0.00  0.00    -0.370 N 
HETATM   15  H           1     -19.387  -9.180  -4.774  0.00  0.00     0.159 HD
HETATM   16  H           1     -19.009  -8.757  -6.433  0.00  0.00     0.159 HD
ENDBRANCH  11  12
ENDBRANCH  10  11
ENDBRANCH   5  10
ENDBRANCH   3   5
BRANCH   1  17
HETATM   17  C           1     -23.013  -3.526  -9.792  0.00  0.00     0.194 C 
BRANCH  17  18
HETATM   18  C           1     -22.432  -4.616 -10.683  0.00  0.00     0.138 C 
BRANCH  18  19
HETATM   19  C           1     -21.500  -3.996 -11.695  0.00  0.00     0.217 C 
HETATM   20  O           1     -21.903  -3.729 -12.802  0.00  0.00    -0.274 OA
HETATM   21  N           1     -20.199  -3.736 -11.359  0.00  0.00    -0.370 N 
HETATM   22  H           1     -19.574  -3.320 -12.038  0.00  0.00     0.159 HD
HETATM   23  H           1     -19.862  -3.959 -10.432  0.00  0.00     0.159 HD
ENDBRANCH  18  19
ENDBRANCH  17  18
BRANCH  17  24
HETATM   24  C           1     -24.458  -3.291 -10.160  0.00  0.00     0.197 C 
HETATM   25  O           1     -24.876  -3.622 -11.291  0.00  0.00    -0.646 OA
HETATM   26  O           1     -25.236  -2.766  -9.334  0.00  0.00    -0.646 OA
ENDBRANCH  17  24
ENDBRANCH   1  17
TORSDOF 9
ENDMDL
MODEL 7
REMARK VINA RESULT:      -5.9     13.405     15.130
REMARK  9 active torsions:
REMARK  status: ('A' for Active; 'I' for Inactive)
REMARK    1  A    between atoms: N_1  and  C_20 
REMARK       I    between atoms: N_1  and  C_19 
REMARK    2  A    between atoms: N_7  and  C_18 
REMARK    3  A    between atoms: C_10  and  C_11 
REMARK       I    between atoms: C_10  and  N_16 
REMARK    4  A    between atoms: C_11  and  C_17 
REMARK       I    between atoms: C_12  and  N_15 
REMARK    5  A    between atoms: C_12  and  C_14 
REMARK    6  A    between atoms: C_14  and  C_20 
REMARK    7  A    between atoms: C_17  and  C_18 
REMARK    8  A    between atoms: C_18  and  C_19 
REMARK    9  A    between atoms: C_20  and  C_21 
ROOT
HETATM    1  N           1     -20.936  -6.568  -4.985  0.00  0.00    -0.344 N 
HETATM    2  O           1     -22.683  -5.488  -5.861  0.00  0.00    -0.271 OA
HETATM    3  C           1     -21.487  -5.655  -5.844  0.00  0.00     0.249 C 
HETATM    4  H           1     -19.934  -6.708  -4.971  0.00  0.00     0.163 HD
ENDROOT
BRANCH   3   5
HETATM    5  C           1     -20.600  -4.859  -6.770  0.00  0.00     0.275 C 
BRANCH   5   6
HETATM    6  N           1     -20.059  -5.760  -7.840  0.00  0.00    -0.066 N 
HETATM    7  H           1     -19.100  -5.443  -8.112  0.00  0.00     0.275 HD
HETATM    8  H           1     -20.012  -6.740  -7.479  0.00  0.00     0.275 HD
HETATM    9  H           1     -20.686  -5.725  -8.675  0.00  0.00     0.275 HD
ENDBRANCH   5   6
BRANCH   5  10
HETATM   10  C           1     -21.410  -3.740  -7.411  0.00  0.00     0.052 C 
BRANCH  10  11
HETATM   11  C           1     -21.631  -4.052  -8.885  0.00  0.00     0.105 C 
BRANCH  11  12
HETATM   12  C           1     -23.062  -3.748  -9.255  0.00  0.00     0.215 C 
HETATM   13  O           1     -23.325  -3.324 -10.356  0.00  0.00    -0.274 OA
HETATM   14  N           1     -24.063  -3.954  -8.344  0.00  0.00    -0.370 N 
HETATM   15  H           1     -25.023  -3.750  -8.592  0.00  0.00     0.159 HD
HETATM   16  H           1     -23.843  -4.309  -7.423  0.00  0.00     0.159 HD
ENDBRANCH  11  12
ENDBRANCH  10  11
ENDBRANCH   5  10
ENDBRANCH   3   5
BRANCH   1  17
HETATM   17  C           1     -21.787  -7.333  -4.095  0.00  0.00     0.194 C 
BRANCH  17  18
HETATM   18  C           1     -21.388  -8.802  -4.150  0.00  0.00     0.138 C 
BRANCH  18  19
HETATM   19  C           1     -19.967  -8.920  -4.644  0.00  0.00     0.217 C 
HETATM   20  O           1     -19.742  -8.954  -5.830  0.00  0.00    -0.274 OA
HETATM   21  N           1     -18.935  -8.989  -3.749  0.00  0.00    -0.370 N 
HETATM   22  H           1     -17.981  -9.068  -4.081  0.00  0.00     0.159 HD
HETATM   23  H           1     -19.124  -8.960  -2.755  0.00  0.00     0.159 HD
ENDBRANCH  18  19
ENDBRANCH  17  18
BRANCH  17  24
HETATM   24  C           1     -21.629  -6.820  -2.684  0.00  0.00     0.197 C 
HETATM   25  O           1     -20.827  -7.377  -1.904  0.00  0.00    -0.646 OA
HETATM   26  O           1     -22.301  -5.839  -2.297  0.00  0.00    -0.646 OA
ENDBRANCH  17  24
ENDBRANCH   1  17
TORSDOF 9
ENDMDL
MODEL 8
REMARK VINA RESULT:      -5.6      1.787      2.950
REMARK  9 active torsions:
REMARK  status: ('A' for Active; 'I' for Inactive)
REMARK    1  A    between atoms: N_1  and  C_20 
REMARK       I    between atoms: N_1  and  C_19 
REMARK    2  A    between atoms: N_7  and  C_18 
REMARK    3  A    between atoms: C_10  and  C_11 
REMARK       I    between atoms: C_10  and  N_16 
REMARK    4  A    between atoms: C_11  and  C_17 
REMARK       I    between atoms: C_12  and  N_15 
REMARK    5  A    between atoms: C_12  and  C_14 
REMARK    6  A    between atoms: C_14  and  C_20 
REMARK    7  A    between atoms: C_17  and  C_18 
REMARK    8  A    between atoms: C_18  and  C_19 
REMARK    9  A    between atoms: C_20  and  C_21 
ROOT
HETATM    1  N           1     -27.744  -6.304 -18.460  0.00  0.00    -0.344 N 
HETATM    2  O           1     -29.072  -8.036 -18.932  0.00  0.00    -0.271 OA
HETATM    3  C           1     -28.973  -6.907 -18.516  0.00  0.00     0.249 C 
HETATM    4  H           1     -27.661  -5.357 -18.112  0.00  0.00     0.163 HD
ENDROOT
BRANCH   3   5
HETATM    5  C           1     -30.202  -6.160 -18.058  0.00  0.00     0.275 C 
BRANCH   5   6
HETATM    6  N           1     -31.280  -7.142 -17.707  0.00  0.00    -0.066 N 
HETATM    7  H           1     -31.046  -8.077 -18.114  0.00  0.00     0.275 HD
HETATM    8  H           1     -31.353  -7.223 -16.668  0.00  0.00     0.275 HD
HETATM    9  H           1     -32.192  -6.813 -18.097  0.00  0.00     0.275 HD
ENDBRANCH   5   6
BRANCH   5  10
HETATM   10  C           1     -29.861  -5.322 -16.833  0.00  0.00     0.052 C 
BRANCH  10  11
HETATM   11  C           1     -30.317  -3.886 -17.056  0.00  0.00     0.105 C 
BRANCH  11  12
HETATM   12  C           1     -29.115  -2.974 -17.086  0.00  0.00     0.215 C 
HETATM   13  O           1     -28.025  -3.401 -16.783  0.00  0.00    -0.274 OA
HETATM   14  N           1     -29.258  -1.665 -17.457  0.00  0.00    -0.370 N 
HETATM   15  H           1     -28.451  -1.053 -17.477  0.00  0.00     0.159 HD
HETATM   16  H           1     -30.170  -1.308 -17.711  0.00  0.00     0.159 HD
ENDBRANCH  11  12
ENDBRANCH  10  11
ENDBRANCH   5  10
ENDBRANCH   3   5
BRANCH   1  17
HETATM   17  C           1     -26.563  -7.021 -18.899  0.00  0.00     0.194 C 
BRANCH  17  18
HETATM   18  C           1     -26.306  -6.720 -20.370  0.00  0.00     0.138 C 
BRANCH  18  19
HETATM   19  C           1     -26.023  -8.007 -21.105  0.00  0.00     0.217 C 
HETATM   20  O           1     -26.937  -8.696 -21.490  0.00  0.00    -0.274 OA
HETATM   21  N           1     -24.731  -8.394 -21.336  0.00  0.00    -0.370 N 
HETATM   22  H           1     -24.541  -9.257 -21.830  0.00  0.00     0.159 HD
HETATM   23  H           1     -23.965  -7.817 -21.014  0.00  0.00     0.159 HD
ENDBRANCH  18  19
ENDBRANCH  17  18
BRANCH  17  24
HETATM   24  C           1     -25.375  -6.581 -18.080  0.00  0.00     0.197 C 
HETATM   25  O           1     -25.543  -6.141 -16.922  0.00  0.00    -0.646 OA
HETATM   26  O           1     -24.223  -6.656 -18.559  0.00  0.00    -0.646 OA
ENDBRANCH  17  24
ENDBRANCH   1  17
TORSDOF 9
ENDMDL
MODEL 9
REMARK VINA RESULT:      -5.6      3.542      5.195
REMARK  9 active torsions:
REMARK  status: ('A' for Active; 'I' for Inactive)
REMARK    1  A    between atoms: N_1  and  C_20 
REMARK       I    between atoms: N_1  and  C_19 
REMARK    2  A    between atoms: N_7  and  C_18 
REMARK    3  A    between atoms: C_10  and  C_11 
REMARK       I    between atoms: C_10  and  N_16 
REMARK    4  A    between atoms: C_11  and  C_17 
REMARK       I    between atoms: C_12  and  N_15 
REMARK    5  A    between atoms: C_12  and  C_14 
REMARK    6  A    between atoms: C_14  and  C_20 
REMARK    7  A    between atoms: C_17  and  C_18 
REMARK    8  A    between atoms: C_18  and  C_19 
REMARK    9  A    between atoms: C_20  and  C_21 
ROOT
HETATM    1  N           1     -31.692  -5.651 -16.846  0.00  0.00    -0.344 N 
HETATM    2  O           1     -31.478  -3.483 -17.335  0.00  0.00    -0.271 OA
HETATM    3  C           1     -32.179  -4.373 -16.917  0.00  0.00     0.249 C 
HETATM    4  H           1     -32.280  -6.397 -16.495  0.00  0.00     0.163 HD
ENDROOT
BRANCH   3   5
HETATM    5  C           1     -33.591  -4.077 -16.474  0.00  0.00     0.275 C 
BRANCH   5   6
HETATM    6  N           1     -33.664  -4.123 -14.977  0.00  0.00    -0.066 N 
HETATM    7  H           1     -32.922  -4.762 -14.611  0.00  0.00     0.275 HD
HETATM    8  H           1     -33.517  -3.163 -14.591  0.00  0.00     0.275 HD
HETATM    9  H           1     -34.602  -4.477 -14.684  0.00  0.00     0.275 HD
ENDBRANCH   5   6
BRANCH   5  10
HETATM   10  C           1     -33.996  -2.691 -16.960  0.00  0.00     0.052 C 
BRANCH  10  11
HETATM   11  C           1     -35.421  -2.392 -16.513  0.00  0.00     0.105 C 
BRANCH  11  12
HETATM   12  C           1     -35.560  -0.917 -16.227  0.00  0.00     0.215 C 
HETATM   13  O           1     -36.351  -0.252 -16.854  0.00  0.00    -0.274 OA
HETATM   14  N           1     -34.791  -0.331 -15.258  0.00  0.00    -0.370 N 
HETATM   15  H           1     -34.884   0.658 -15.067  0.00  0.00     0.159 HD
HETATM   16  H           1     -34.129  -0.888 -14.733  0.00  0.00     0.159 HD
ENDBRANCH  11  12
ENDBRANCH  10  11
ENDBRANCH   5  10
ENDBRANCH   3   5
BRANCH   1  17
HETATM   17  C           1     -30.336  -5.936 -17.271  0.00  0.00     0.194 C 
BRANCH  17  18
HETATM   18  C           1     -29.388  -5.765 -16.092  0.00  0.00     0.138 C 
BRANCH  18  19
HETATM   19  C           1     -28.115  -5.103 -16.559  0.00  0.00     0.217 C 
HETATM   20  O           1     -28.007  -3.901 -16.510  0.00  0.00    -0.274 OA
HETATM   21  N           1     -27.084  -5.863 -17.038  0.00  0.00    -0.370 N 
HETATM   22  H           1     -26.230  -5.419 -17.352  0.00  0.00     0.159 HD
HETATM   23  H           1     -27.175  -6.871 -17.079  0.00  0.00     0.159 HD
ENDBRANCH  18  19
ENDBRANCH  17  18
BRANCH  17  24
HETATM   24  C           1     -30.257  -7.354 -17.780  0.00  0.00     0.197 C 
HETATM   25  O           1     -29.516  -8.183 -17.208  0.00  0.00    -0.646 OA
HETATM   26  O           1     -30.932  -7.700 -18.773  0.00  0.00    -0.646 OA
ENDBRANCH  17  24
ENDBRANCH   1  17
TORSDOF 9
ENDMDL
