MODEL 1
REMARK VINA RESULT:      -6.8      0.000      0.000
REMARK  9 active torsions:
REMARK  status: ('A' for Active; 'I' for Inactive)
REMARK    1  A    between atoms: C_2  and  C_24 
REMARK    2  A    between atoms: S_6  and  C_9 
REMARK    3  A    between atoms: N_8  and  C_16 
REMARK    4  A    between atoms: C_9  and  C_11 
REMARK    5  A    between atoms: C_11  and  C_16 
REMARK    6  A    between atoms: N_14  and  C_24 
REMARK       I    between atoms: N_14  and  C_15 
REMARK    7  A    between atoms: C_15  and  C_16 
REMARK    8  A    between atoms: C_22  and  C_23 
REMARK    9  A    between atoms: C_23  and  C_24 
ROOT
HETATM    1  O           1     -33.598  -1.620 -10.521  0.00  0.00    -0.271 OA
HETATM    2  N           1     -35.764  -1.226 -10.144  0.00  0.00    -0.344 N 
HETATM    3  C           1     -34.747  -1.892 -10.774  0.00  0.00     0.249 C 
HETATM    4  H           1     -36.138  -1.580  -9.274  0.00  0.00     0.163 HD
ENDROOT
BRANCH   2   5
HETATM    5  C           1     -36.306  -0.013 -10.726  0.00  0.00     0.189 C 
BRANCH   5   6
HETATM    6  C           1     -36.945   0.821  -9.644  0.00  0.00     0.197 C 
HETATM    7  O           1     -38.074   1.325  -9.829  0.00  0.00    -0.646 OA
HETATM    8  O           1     -36.348   1.008  -8.562  0.00  0.00    -0.646 OA
ENDBRANCH   5   6
BRANCH   5   9
HETATM    9  C           1     -37.350  -0.375 -11.774  0.00  0.00     0.074 C 
BRANCH   9  10
HETATM   10  C           1     -36.859   0.026 -13.129  0.00  0.00    -0.056 A 
HETATM   11  C           1     -35.551   0.485 -13.289  0.00  0.00     0.007 A 
HETATM   12  C           1     -35.092   0.858 -14.553  0.00  0.00     0.001 A 
HETATM   13  C           1     -35.942   0.773 -15.656  0.00  0.00     0.000 A 
HETATM   14  C           1     -37.249   0.313 -15.496  0.00  0.00     0.001 A 
HETATM   15  C           1     -37.708  -0.061 -14.233  0.00  0.00     0.007 A 
ENDBRANCH   9  10
ENDBRANCH   5   9
ENDBRANCH   2   5
BRANCH   3  16
HETATM   16  C           1     -35.062  -2.969 -11.784  0.00  0.00     0.275 C 
BRANCH  16  17
HETATM   17  N           1     -33.879  -3.170 -12.684  0.00  0.00    -0.066 N 
HETATM   18  H           1     -33.700  -2.294 -13.226  0.00  0.00     0.275 HD
HETATM   19  H           1     -34.073  -3.956 -13.343  0.00  0.00     0.275 HD
HETATM   20  H           1     -33.038  -3.398 -12.107  0.00  0.00     0.275 HD
ENDBRANCH  16  17
BRANCH  16  21
HETATM   21  C           1     -35.375  -4.270 -11.059  0.00  0.00     0.053 C 
BRANCH  21  22
HETATM   22  C           1     -34.799  -5.442 -11.844  0.00  0.00     0.076 C 
BRANCH  22  23
HETATM   23  S           1     -33.654  -6.374 -10.788  0.00  0.00    -0.173 SA
HETATM   24  C           1     -34.879  -7.557 -10.162  0.00  0.00     0.089 C 
ENDBRANCH  22  23
ENDBRANCH  21  22
ENDBRANCH  16  21
ENDBRANCH   3  16
TORSDOF 9
ENDMDL
MODEL 2
REMARK VINA RESULT:      -6.2     14.553     16.327
REMARK  9 active torsions:
REMARK  status: ('A' for Active; 'I' for Inactive)
REMARK    1  A    between atoms: C_2  and  C_24 
REMARK    2  A    between atoms: S_6  and  C_9 
REMARK    3  A    between atoms: N_8  and  C_16 
REMARK    4  A    between atoms: C_9  and  C_11 
REMARK    5  A    between atoms: C_11  and  C_16 
REMARK    6  A    between atoms: N_14  and  C_24 
REMARK       I    between atoms: N_14  and  C_15 
REMARK    7  A    between atoms: C_15  and  C_16 
REMARK    8  A    between atoms: C_22  and  C_23 
REMARK    9  A    between atoms: C_23  and  C_24 
ROOT
HETATM    1  O           1     -21.051  -5.761  -3.762  0.00  0.00    -0.271 OA
HETATM    2  N           1     -22.276  -5.745  -5.629  0.00  0.00    -0.344 N 
HETATM    3  C           1     -21.669  -6.391  -4.586  0.00  0.00     0.249 C 
HETATM    4  H           1     -23.228  -5.417  -5.537  0.00  0.00     0.163 HD
ENDROOT
BRANCH   2   5
HETATM    5  C           1     -21.552  -5.532  -6.868  0.00  0.00     0.189 C 
BRANCH   5   6
HETATM    6  C           1     -20.069  -5.577  -6.598  0.00  0.00     0.197 C 
HETATM    7  O           1     -19.420  -6.616  -6.847  0.00  0.00    -0.646 OA
HETATM    8  O           1     -19.488  -4.576  -6.125  0.00  0.00    -0.646 OA
ENDBRANCH   5   6
BRANCH   5   9
HETATM    9  C           1     -21.923  -4.172  -7.445  0.00  0.00     0.074 C 
BRANCH   9  10
HETATM   10  C           1     -21.900  -4.240  -8.940  0.00  0.00    -0.056 A 
HETATM   11  C           1     -20.706  -4.030  -9.630  0.00  0.00     0.007 A 
HETATM   12  C           1     -20.685  -4.094 -11.023  0.00  0.00     0.001 A 
HETATM   13  C           1     -21.858  -4.368 -11.727  0.00  0.00     0.000 A 
HETATM   14  C           1     -23.052  -4.579 -11.037  0.00  0.00     0.001 A 
HETATM   15  C           1     -23.073  -4.515  -9.643  0.00  0.00     0.007 A 
ENDBRANCH   9  10
ENDBRANCH   5   9
ENDBRANCH   2   5
BRANCH   3  16
HETATM   16  C           1     -21.775  -7.892  -4.463  0.00  0.00     0.275 C 
BRANCH  16  17
HETATM   17  N           1     -21.239  -8.532  -5.710  0.00  0.00    -0.066 N 
HETATM   18  H           1     -21.383  -7.889  -6.521  0.00  0.00     0.275 HD
HETATM   19  H           1     -21.743  -9.430  -5.884  0.00  0.00     0.275 HD
HETATM   20  H           1     -20.219  -8.721  -5.594  0.00  0.00     0.275 HD
ENDBRANCH  16  17
BRANCH  16  21
HETATM   21  C           1     -20.964  -8.362  -3.264  0.00  0.00     0.053 C 
BRANCH  21  22
HETATM   22  C           1     -21.783  -9.360  -2.456  0.00  0.00     0.076 C 
BRANCH  22  23
HETATM   23  S           1     -21.642  -8.970  -0.689  0.00  0.00    -0.173 SA
HETATM   24  C           1     -22.249  -7.265  -0.812  0.00  0.00     0.089 C 
ENDBRANCH  22  23
ENDBRANCH  21  22
ENDBRANCH  16  21
ENDBRANCH   3  16
TORSDOF 9
ENDMDL
MODEL 3
REMARK VINA RESULT:      -6.2     15.344     18.533
REMARK  9 active torsions:
REMARK  status: ('A' for Active; 'I' for Inactive)
REMARK    1  A    between atoms: C_2  and  C_24 
REMARK    2  A    between atoms: S_6  and  C_9 
REMARK    3  A    between atoms: N_8  and  C_16 
REMARK    4  A    between atoms: C_9  and  C_11 
REMARK    5  A    between atoms: C_11  and  C_16 
REMARK    6  A    between atoms: N_14  and  C_24 
REMARK       I    between atoms: N_14  and  C_15 
REMARK    7  A    between atoms: C_15  and  C_16 
REMARK    8  A    between atoms: C_22  and  C_23 
REMARK    9  A    between atoms: C_23  and  C_24 
ROOT
HETATM    1  O           1     -19.609  -6.702  -7.010  0.00  0.00    -0.271 OA
HETATM    2  N           1     -20.853  -7.986  -5.672  0.00  0.00    -0.344 N 
HETATM    3  C           1     -20.489  -6.770  -6.187  0.00  0.00     0.249 C 
HETATM    4  H           1     -21.578  -8.529  -6.121  0.00  0.00     0.163 HD
ENDROOT
BRANCH   2   5
HETATM    5  C           1     -20.198  -8.493  -4.481  0.00  0.00     0.189 C 
BRANCH   5   6
HETATM    6  C           1     -18.975  -9.282  -4.878  0.00  0.00     0.197 C 
HETATM    7  O           1     -17.988  -9.330  -4.112  0.00  0.00    -0.646 OA
HETATM    8  O           1     -18.948  -9.887  -5.970  0.00  0.00    -0.646 OA
ENDBRANCH   5   6
BRANCH   5   9
HETATM    9  C           1     -21.160  -9.395  -3.719  0.00  0.00     0.074 C 
BRANCH   9  10
HETATM   10  C           1     -21.636  -8.690  -2.487  0.00  0.00    -0.056 A 
HETATM   11  C           1     -21.697  -7.297  -2.460  0.00  0.00     0.007 A 
HETATM   12  C           1     -22.141  -6.640  -1.313  0.00  0.00     0.001 A 
HETATM   13  C           1     -22.524  -7.377  -0.191  0.00  0.00     0.000 A 
HETATM   14  C           1     -22.464  -8.770  -0.219  0.00  0.00     0.001 A 
HETATM   15  C           1     -22.020  -9.427  -1.367  0.00  0.00     0.007 A 
ENDBRANCH   9  10
ENDBRANCH   5   9
ENDBRANCH   2   5
BRANCH   3  16
HETATM   16  C           1     -21.190  -5.515  -5.727  0.00  0.00     0.275 C 
BRANCH  16  17
HETATM   17  N           1     -20.171  -4.454  -5.433  0.00  0.00    -0.066 N 
HETATM   18  H           1     -20.441  -3.944  -4.562  0.00  0.00     0.275 HD
HETATM   19  H           1     -20.127  -3.783  -6.232  0.00  0.00     0.275 HD
HETATM   20  H           1     -19.235  -4.898  -5.298  0.00  0.00     0.275 HD
ENDBRANCH  16  17
BRANCH  16  21
HETATM   21  C           1     -22.129  -5.027  -6.821  0.00  0.00     0.053 C 
BRANCH  21  22
HETATM   22  C           1     -21.518  -3.814  -7.512  0.00  0.00     0.076 C 
BRANCH  22  23
HETATM   23  S           1     -21.163  -4.219  -9.245  0.00  0.00    -0.173 SA
HETATM   24  C           1     -22.882  -4.537  -9.732  0.00  0.00     0.089 C 
ENDBRANCH  22  23
ENDBRANCH  21  22
ENDBRANCH  16  21
ENDBRANCH   3  16
TORSDOF 9
ENDMDL
MODEL 4
REMARK VINA RESULT:      -6.1     14.631     16.490
REMARK  9 active torsions:
REMARK  status: ('A' for Active; 'I' for Inactive)
REMARK    1  A    between atoms: C_2  and  C_24 
REMARK    2  A    between atoms: S_6  and  C_9 
REMARK    3  A    between atoms: N_8  and  C_16 
REMARK    4  A    between atoms: C_9  and  C_11 
REMARK    5  A    between atoms: C_11  and  C_16 
REMARK    6  A    between atoms: N_14  and  C_24 
REMARK       I    between atoms: N_14  and  C_15 
REMARK    7  A    between atoms: C_15  and  C_16 
REMARK    8  A    between atoms: C_22  and  C_23 
REMARK    9  A    between atoms: C_23  and  C_24 
ROOT
HETATM    1  O           1     -20.805  -5.858  -3.959  0.00  0.00    -0.271 OA
HETATM    2  N           1     -22.167  -5.563  -5.704  0.00  0.00    -0.344 N 
HETATM    3  C           1     -21.590  -6.343  -4.738  0.00  0.00     0.249 C 
HETATM    4  H           1     -23.039  -5.087  -5.515  0.00  0.00     0.163 HD
ENDROOT
BRANCH   2   5
HETATM    5  C           1     -21.528  -5.422  -6.998  0.00  0.00     0.189 C 
BRANCH   5   6
HETATM    6  C           1     -20.032  -5.517  -6.833  0.00  0.00     0.197 C 
HETATM    7  O           1     -19.377  -4.512  -6.481  0.00  0.00    -0.646 OA
HETATM    8  O           1     -19.447  -6.600  -7.047  0.00  0.00    -0.646 OA
ENDBRANCH   5   6
BRANCH   5   9
HETATM    9  C           1     -21.889  -4.068  -7.597  0.00  0.00     0.074 C 
BRANCH   9  10
HETATM   10  C           1     -21.895  -4.168  -9.090  0.00  0.00    -0.056 A 
HETATM   11  C           1     -23.066  -4.521  -9.761  0.00  0.00     0.007 A 
HETATM   12  C           1     -23.073  -4.614 -11.153  0.00  0.00     0.001 A 
HETATM   13  C           1     -21.908  -4.354 -11.874  0.00  0.00     0.000 A 
HETATM   14  C           1     -20.737  -4.000 -11.204  0.00  0.00     0.001 A 
HETATM   15  C           1     -20.730  -3.907  -9.812  0.00  0.00     0.007 A 
ENDBRANCH   9  10
ENDBRANCH   5   9
ENDBRANCH   2   5
BRANCH   3  16
HETATM   16  C           1     -21.935  -7.810  -4.646  0.00  0.00     0.275 C 
BRANCH  16  17
HETATM   17  N           1     -21.172  -8.568  -5.692  0.00  0.00    -0.066 N 
HETATM   18  H           1     -21.035  -7.961  -6.532  0.00  0.00     0.275 HD
HETATM   19  H           1     -21.707  -9.423  -5.962  0.00  0.00     0.275 HD
HETATM   20  H           1     -20.240  -8.846  -5.311  0.00  0.00     0.275 HD
ENDBRANCH  16  17
BRANCH  16  21
HETATM   21  C           1     -21.561  -8.334  -3.267  0.00  0.00     0.053 C 
BRANCH  21  22
HETATM   22  C           1     -20.723  -9.598  -3.412  0.00  0.00     0.076 C 
BRANCH  22  23
HETATM   23  S           1     -19.097  -9.338  -2.649  0.00  0.00    -0.173 SA
HETATM   24  C           1     -18.133  -9.489  -4.180  0.00  0.00     0.089 C 
ENDBRANCH  22  23
ENDBRANCH  21  22
ENDBRANCH  16  21
ENDBRANCH   3  16
TORSDOF 9
ENDMDL
MODEL 5
REMARK VINA RESULT:      -6.0     15.245     17.266
REMARK  9 active torsions:
REMARK  status: ('A' for Active; 'I' for Inactive)
REMARK    1  A    between atoms: C_2  and  C_24 
REMARK    2  A    between atoms: S_6  and  C_9 
REMARK    3  A    between atoms: N_8  and  C_16 
REMARK    4  A    between atoms: C_9  and  C_11 
REMARK    5  A    between atoms: C_11  and  C_16 
REMARK    6  A    between atoms: N_14  and  C_24 
REMARK       I    between atoms: N_14  and  C_15 
REMARK    7  A    between atoms: C_15  and  C_16 
REMARK    8  A    between atoms: C_22  and  C_23 
REMARK    9  A    between atoms: C_23  and  C_24 
ROOT
HETATM    1  O           1     -21.135  -5.588  -2.631  0.00  0.00    -0.271 OA
HETATM    2  N           1     -22.387  -6.450  -4.266  0.00  0.00    -0.344 N 
HETATM    3  C           1     -21.635  -6.567  -3.128  0.00  0.00     0.249 C 
HETATM    4  H           1     -23.383  -6.288  -4.200  0.00  0.00     0.163 HD
ENDROOT
BRANCH   2   5
HETATM    5  C           1     -21.755  -6.561  -5.567  0.00  0.00     0.189 C 
BRANCH   5   6
HETATM    6  C           1     -20.913  -7.812  -5.612  0.00  0.00     0.197 C 
HETATM    7  O           1     -19.668  -7.730  -5.538  0.00  0.00    -0.646 OA
HETATM    8  O           1     -21.460  -8.930  -5.721  0.00  0.00    -0.646 OA
ENDBRANCH   5   6
BRANCH   5   9
HETATM    9  C           1     -20.871  -5.344  -5.807  0.00  0.00     0.074 C 
BRANCH   9  10
HETATM   10  C           1     -21.052  -4.863  -7.212  0.00  0.00    -0.056 A 
HETATM   11  C           1     -22.244  -4.246  -7.590  0.00  0.00     0.007 A 
HETATM   12  C           1     -22.414  -3.797  -8.900  0.00  0.00     0.001 A 
HETATM   13  C           1     -21.390  -3.967  -9.833  0.00  0.00     0.000 A 
HETATM   14  C           1     -20.198  -4.584  -9.455  0.00  0.00     0.001 A 
HETATM   15  C           1     -20.028  -5.032  -8.144  0.00  0.00     0.007 A 
ENDBRANCH   9  10
ENDBRANCH   5   9
ENDBRANCH   2   5
BRANCH   3  16
HETATM   16  C           1     -21.432  -7.922  -2.494  0.00  0.00     0.275 C 
BRANCH  16  17
HETATM   17  N           1     -19.962  -8.192  -2.355  0.00  0.00    -0.066 N 
HETATM   18  H           1     -19.531  -7.465  -1.741  0.00  0.00     0.275 HD
HETATM   19  H           1     -19.513  -8.165  -3.298  0.00  0.00     0.275 HD
HETATM   20  H           1     -19.820  -9.135  -1.928  0.00  0.00     0.275 HD
ENDBRANCH  16  17
BRANCH  16  21
HETATM   21  C           1     -22.083  -7.942  -1.118  0.00  0.00     0.053 C 
BRANCH  21  22
HETATM   22  C           1     -21.160  -8.639  -0.128  0.00  0.00     0.076 C 
BRANCH  22  23
HETATM   23  S           1     -21.672 -10.370   0.063  0.00  0.00    -0.173 SA
HETATM   24  C           1     -23.444 -10.084  -0.202  0.00  0.00     0.089 C 
ENDBRANCH  22  23
ENDBRANCH  21  22
ENDBRANCH  16  21
ENDBRANCH   3  16
TORSDOF 9
ENDMDL
MODEL 6
REMARK VINA RESULT:      -6.0     15.798     19.307
REMARK  9 active torsions:
REMARK  status: ('A' for Active; 'I' for Inactive)
REMARK    1  A    between atoms: C_2  and  C_24 
REMARK    2  A    between atoms: S_6  and  C_9 
REMARK    3  A    between atoms: N_8  and  C_16 
REMARK    4  A    between atoms: C_9  and  C_11 
REMARK    5  A    between atoms: C_11  and  C_16 
REMARK    6  A    between atoms: N_14  and  C_24 
REMARK       I    between atoms: N_14  and  C_15 
REMARK    7  A    between atoms: C_15  and  C_16 
REMARK    8  A    between atoms: C_22  and  C_23 
REMARK    9  A    between atoms: C_23  and  C_24 
ROOT
HETATM    1  O           1     -22.090  -5.644  -2.411  0.00  0.00    -0.271 OA
HETATM    2  N           1     -21.062  -7.566  -1.923  0.00  0.00    -0.344 N 
HETATM    3  C           1     -21.670  -6.708  -2.799  0.00  0.00     0.249 C 
HETATM    4  H           1     -20.063  -7.513  -1.775  0.00  0.00     0.163 HD
ENDROOT
BRANCH   2   5
HETATM    5  C           1     -21.851  -8.551  -1.209  0.00  0.00     0.189 C 
BRANCH   5   6
HETATM    6  C           1     -22.285  -7.981   0.119  0.00  0.00     0.197 C 
HETATM    7  O           1     -21.491  -7.973   1.085  0.00  0.00    -0.646 OA
HETATM    8  O           1     -23.437  -7.515   0.253  0.00  0.00    -0.646 OA
ENDBRANCH   5   6
BRANCH   5   9
HETATM    9  C           1     -21.012  -9.801  -0.975  0.00  0.00     0.074 C 
BRANCH   9  10
HETATM   10  C           1     -21.892 -10.912  -0.497  0.00  0.00    -0.056 A 
HETATM   11  C           1     -21.475 -11.730   0.553  0.00  0.00     0.007 A 
HETATM   12  C           1     -22.296 -12.766   0.999  0.00  0.00     0.001 A 
HETATM   13  C           1     -23.535 -12.983   0.396  0.00  0.00     0.000 A 
HETATM   14  C           1     -23.953 -12.164  -0.653  0.00  0.00     0.001 A 
HETATM   15  C           1     -23.132 -11.128  -1.099  0.00  0.00     0.007 A 
ENDBRANCH   9  10
ENDBRANCH   5   9
ENDBRANCH   2   5
BRANCH   3  16
HETATM   16  C           1     -21.815  -7.090  -4.252  0.00  0.00     0.275 C 
BRANCH  16  17
HETATM   17  N           1     -22.895  -6.259  -4.881  0.00  0.00    -0.066 N 
HETATM   18  H           1     -23.331  -5.647  -4.155  0.00  0.00     0.275 HD
HETATM   19  H           1     -23.622  -6.887  -5.291  0.00  0.00     0.275 HD
HETATM   20  H           1     -22.483  -5.664  -5.634  0.00  0.00     0.275 HD
ENDBRANCH  16  17
BRANCH  16  21
HETATM   21  C           1     -20.499  -6.843  -4.977  0.00  0.00     0.053 C 
BRANCH  21  22
HETATM   22  C           1     -20.527  -5.466  -5.627  0.00  0.00     0.076 C 
BRANCH  22  23
HETATM   23  S           1     -20.144  -5.622  -7.394  0.00  0.00    -0.173 SA
HETATM   24  C           1     -21.519  -4.598  -7.988  0.00  0.00     0.089 C 
ENDBRANCH  22  23
ENDBRANCH  21  22
ENDBRANCH  16  21
ENDBRANCH   3  16
TORSDOF 9
ENDMDL
MODEL 7
REMARK VINA RESULT:      -6.0     17.677     19.650
REMARK  9 active torsions:
REMARK  status: ('A' for Active; 'I' for Inactive)
REMARK    1  A    between atoms: C_2  and  C_24 
REMARK    2  A    between atoms: S_6  and  C_9 
REMARK    3  A    between atoms: N_8  and  C_16 
REMARK    4  A    between atoms: C_9  and  C_11 
REMARK    5  A    between atoms: C_11  and  C_16 
REMARK    6  A    between atoms: N_14  and  C_24 
REMARK       I    between atoms: N_14  and  C_15 
REMARK    7  A    between atoms: C_15  and  C_16 
REMARK    8  A    between atoms: C_22  and  C_23 
REMARK    9  A    between atoms: C_23  and  C_24 
ROOT
HETATM    1  O           1     -19.891  -7.975  -5.928  0.00  0.00    -0.271 OA
HETATM    2  N           1     -20.012  -7.759  -3.709  0.00  0.00    -0.344 N 
HETATM    3  C           1     -19.706  -8.466  -4.841  0.00  0.00     0.249 C 
HETATM    4  H           1     -19.315  -7.167  -3.278  0.00  0.00     0.163 HD
ENDROOT
BRANCH   2   5
HETATM    5  C           1     -21.337  -7.862  -3.126  0.00  0.00     0.189 C 
BRANCH   5   6
HETATM    6  C           1     -22.026  -6.522  -3.206  0.00  0.00     0.197 C 
HETATM    7  O           1     -22.374  -5.935  -2.158  0.00  0.00    -0.646 OA
HETATM    8  O           1     -22.247  -5.998  -4.319  0.00  0.00    -0.646 OA
ENDBRANCH   5   6
BRANCH   5   9
HETATM    9  C           1     -21.219  -8.288  -1.669  0.00  0.00     0.074 C 
BRANCH   9  10
HETATM   10  C           1     -22.167  -9.413  -1.399  0.00  0.00    -0.056 A 
HETATM   11  C           1     -22.278 -10.465  -2.308  0.00  0.00     0.007 A 
HETATM   12  C           1     -23.162 -11.515  -2.056  0.00  0.00     0.001 A 
HETATM   13  C           1     -23.934 -11.513  -0.894  0.00  0.00     0.000 A 
HETATM   14  C           1     -23.822 -10.461   0.015  0.00  0.00     0.001 A 
HETATM   15  C           1     -22.939  -9.411  -0.236  0.00  0.00     0.007 A 
ENDBRANCH   9  10
ENDBRANCH   5   9
ENDBRANCH   2   5
BRANCH   3  16
HETATM   16  C           1     -19.136  -9.859  -4.730  0.00  0.00     0.275 C 
BRANCH  16  17
HETATM   17  N           1     -18.530 -10.256  -6.043  0.00  0.00    -0.066 N 
HETATM   18  H           1     -18.584 -11.294  -6.153  0.00  0.00     0.275 HD
HETATM   19  H           1     -17.531  -9.953  -6.071  0.00  0.00     0.275 HD
HETATM   20  H           1     -19.054  -9.797  -6.822  0.00  0.00     0.275 HD
ENDBRANCH  16  17
BRANCH  16  21
HETATM   21  C           1     -18.065  -9.885  -3.648  0.00  0.00     0.053 C 
BRANCH  21  22
HETATM   22  C           1     -18.499 -10.818  -2.525  0.00  0.00     0.076 C 
BRANCH  22  23
HETATM   23  S           1     -17.032 -11.511  -1.712  0.00  0.00    -0.173 SA
HETATM   24  C           1     -15.836 -10.356  -2.441  0.00  0.00     0.089 C 
ENDBRANCH  22  23
ENDBRANCH  21  22
ENDBRANCH  16  21
ENDBRANCH   3  16
TORSDOF 9
ENDMDL
MODEL 8
REMARK VINA RESULT:      -5.9     17.573     19.661
REMARK  9 active torsions:
REMARK  status: ('A' for Active; 'I' for Inactive)
REMARK    1  A    between atoms: C_2  and  C_24 
REMARK    2  A    between atoms: S_6  and  C_9 
REMARK    3  A    between atoms: N_8  and  C_16 
REMARK    4  A    between atoms: C_9  and  C_11 
REMARK    5  A    between atoms: C_11  and  C_16 
REMARK    6  A    between atoms: N_14  and  C_24 
REMARK       I    between atoms: N_14  and  C_15 
REMARK    7  A    between atoms: C_15  and  C_16 
REMARK    8  A    between atoms: C_22  and  C_23 
REMARK    9  A    between atoms: C_23  and  C_24 
ROOT
HETATM    1  O           1     -22.032  -5.758  -2.345  0.00  0.00    -0.271 OA
HETATM    2  N           1     -21.701  -7.446  -3.769  0.00  0.00    -0.344 N 
HETATM    3  C           1     -21.763  -6.924  -2.505  0.00  0.00     0.249 C 
HETATM    4  H           1     -22.530  -7.841  -4.195  0.00  0.00     0.163 HD
ENDROOT
BRANCH   2   5
HETATM    5  C           1     -20.447  -7.435  -4.497  0.00  0.00     0.189 C 
BRANCH   5   6
HETATM    6  C           1     -20.531  -6.438  -5.627  0.00  0.00     0.197 C 
HETATM    7  O           1     -20.634  -6.838  -6.807  0.00  0.00    -0.646 OA
HETATM    8  O           1     -20.500  -5.213  -5.383  0.00  0.00    -0.646 OA
ENDBRANCH   5   6
BRANCH   5   9
HETATM    9  C           1     -20.176  -8.823  -5.062  0.00  0.00     0.074 C 
BRANCH   9  10
HETATM   10  C           1     -18.768  -9.223  -4.749  0.00  0.00    -0.056 A 
HETATM   11  C           1     -17.889  -9.549  -5.781  0.00  0.00     0.007 A 
HETATM   12  C           1     -16.577  -9.922  -5.490  0.00  0.00     0.001 A 
HETATM   13  C           1     -16.144  -9.970  -4.164  0.00  0.00     0.000 A 
HETATM   14  C           1     -17.023  -9.643  -3.132  0.00  0.00     0.001 A 
HETATM   15  C           1     -18.335  -9.270  -3.423  0.00  0.00     0.007 A 
ENDBRANCH   9  10
ENDBRANCH   5   9
ENDBRANCH   2   5
BRANCH   3  16
HETATM   16  C           1     -21.498  -7.807  -1.310  0.00  0.00     0.275 C 
BRANCH  16  17
HETATM   17  N           1     -22.354  -7.362  -0.161  0.00  0.00    -0.066 N 
HETATM   18  H           1     -23.184  -6.841  -0.526  0.00  0.00     0.275 HD
HETATM   19  H           1     -21.799  -6.738   0.466  0.00  0.00     0.275 HD
HETATM   20  H           1     -22.678  -8.197   0.376  0.00  0.00     0.275 HD
ENDBRANCH  16  17
BRANCH  16  21
HETATM   21  C           1     -21.830  -9.251  -1.661  0.00  0.00     0.053 C 
BRANCH  21  22
HETATM   22  C           1     -22.720  -9.846  -0.577  0.00  0.00     0.076 C 
BRANCH  22  23
HETATM   23  S           1     -21.963 -11.367   0.061  0.00  0.00    -0.173 SA
HETATM   24  C           1     -20.630 -10.554   0.986  0.00  0.00     0.089 C 
ENDBRANCH  22  23
ENDBRANCH  21  22
ENDBRANCH  16  21
ENDBRANCH   3  16
TORSDOF 9
ENDMDL
MODEL 9
REMARK VINA RESULT:      -5.9     17.400     20.012
REMARK  9 active torsions:
REMARK  status: ('A' for Active; 'I' for Inactive)
REMARK    1  A    between atoms: C_2  and  C_24 
REMARK    2  A    between atoms: S_6  and  C_9 
REMARK    3  A    between atoms: N_8  and  C_16 
REMARK    4  A    between atoms: C_9  and  C_11 
REMARK    5  A    between atoms: C_11  and  C_16 
REMARK    6  A    between atoms: N_14  and  C_24 
REMARK       I    between atoms: N_14  and  C_15 
REMARK    7  A    between atoms: C_15  and  C_16 
REMARK    8  A    between atoms: C_22  and  C_23 
REMARK    9  A    between atoms: C_23  and  C_24 
ROOT
HETATM    1  O           1     -19.235 -10.522  -4.697  0.00  0.00    -0.271 OA
HETATM    2  N           1     -19.673  -8.344  -4.465  0.00  0.00    -0.344 N 
HETATM    3  C           1     -19.099  -9.515  -4.045  0.00  0.00     0.249 C 
HETATM    4  H           1     -19.160  -7.718  -5.071  0.00  0.00     0.163 HD
ENDROOT
BRANCH   2   5
HETATM    5  C           1     -21.016  -8.002  -4.038  0.00  0.00     0.189 C 
BRANCH   5   6
HETATM    6  C           1     -21.686  -7.172  -5.105  0.00  0.00     0.197 C 
HETATM    7  O           1     -22.625  -6.405  -4.802  0.00  0.00    -0.646 OA
HETATM    8  O           1     -21.302  -7.251  -6.291  0.00  0.00    -0.646 OA
ENDBRANCH   5   6
BRANCH   5   9
HETATM    9  C           1     -20.949  -7.206  -2.741  0.00  0.00     0.074 C 
BRANCH   9  10
HETATM   10  C           1     -21.749  -7.902  -1.685  0.00  0.00    -0.056 A 
HETATM   11  C           1     -21.959  -9.279  -1.764  0.00  0.00     0.007 A 
HETATM   12  C           1     -22.705  -9.929  -0.780  0.00  0.00     0.001 A 
HETATM   13  C           1     -23.240  -9.201   0.284  0.00  0.00     0.000 A 
HETATM   14  C           1     -23.029  -7.824   0.362  0.00  0.00     0.001 A 
HETATM   15  C           1     -22.283  -7.175  -0.622  0.00  0.00     0.007 A 
ENDBRANCH   9  10
ENDBRANCH   5   9
ENDBRANCH   2   5
BRANCH   3  16
HETATM   16  C           1     -18.294  -9.546  -2.769  0.00  0.00     0.275 C 
BRANCH  16  17
HETATM   17  N           1     -18.696 -10.740  -1.955  0.00  0.00    -0.066 N 
HETATM   18  H           1     -18.071 -11.545  -2.184  0.00  0.00     0.275 HD
HETATM   19  H           1     -19.686 -10.992  -2.174  0.00  0.00     0.275 HD
HETATM   20  H           1     -18.611 -10.513  -0.938  0.00  0.00     0.275 HD
ENDBRANCH  16  17
BRANCH  16  21
HETATM   21  C           1     -16.812  -9.638  -3.105  0.00  0.00     0.053 C 
BRANCH  21  22
HETATM   22  C           1     -16.284 -11.011  -2.710  0.00  0.00     0.076 C 
BRANCH  22  23
HETATM   23  S           1     -15.194 -11.640  -4.018  0.00  0.00    -0.173 SA
HETATM   24  C           1     -15.709 -10.457  -5.294  0.00  0.00     0.089 C 
ENDBRANCH  22  23
ENDBRANCH  21  22
ENDBRANCH  16  21
ENDBRANCH   3  16
TORSDOF 9
ENDMDL
