MODEL 1
REMARK VINA RESULT:      -6.4      0.000      0.000
REMARK  5 active torsions:
REMARK  status: ('A' for Active; 'I' for Inactive)
REMARK    1  A    between atoms: C_2  and  C_24 
REMARK    2  A    between atoms: C_5  and  C_6 
REMARK    3  A    between atoms: C_6  and  C_20 
REMARK    4  A    between atoms: C_6  and  N_23 
REMARK    5  A    between atoms: O_18  and  C_20 
REMARK       I    between atoms: N_23  and  C_24 
ROOT
HETATM    1  C           1     -35.275  -1.289 -11.270  0.00  0.00     0.274 C 
HETATM    2  C           1     -33.395  -4.246 -11.866  0.00  0.00     0.027 C 
HETATM    3  C           1     -34.029  -3.032 -12.532  0.00  0.00     0.004 C 
HETATM    4  C           1     -34.100  -4.525 -10.544  0.00  0.00     0.229 C 
HETATM    5  H           1     -37.008  -1.992 -10.328  0.00  0.00     0.275 HD
HETATM    6  H           1     -36.153  -3.188 -11.196  0.00  0.00     0.275 HD
HETATM    7  C           1     -33.891  -1.821 -11.619  0.00  0.00     0.042 C 
HETATM    8  N           1     -36.059  -2.358 -10.568  0.00  0.00    -0.067 N 
HETATM    9  H           1     -35.987  -3.962 -11.255  0.00  0.00     0.274 HD
HETATM   10  H           1     -35.561  -2.638  -9.692  0.00  0.00     0.275 HD
HETATM   11  H           1     -35.647  -5.626 -11.426  0.00  0.00     0.274 HD
HETATM   12  H           1     -36.036  -4.988  -9.892  0.00  0.00     0.274 HD
HETATM   13  N           1     -35.553  -4.796 -10.798  0.00  0.00    -0.079 N 
ENDROOT
BRANCH   1  14
HETATM   14  C           1     -35.994  -0.885 -12.533  0.00  0.00     0.249 C 
HETATM   15  O           1     -37.189  -1.040 -12.623  0.00  0.00    -0.271 OA
HETATM   16  N           1     -35.293  -0.346 -13.577  0.00  0.00    -0.343 N 
HETATM   17  H           1     -34.292  -0.217 -13.503  0.00  0.00     0.163 HD
BRANCH  16  18
HETATM   18  C           1     -35.985   0.042 -14.791  0.00  0.00     0.209 C 
BRANCH  18  19
HETATM   19  C           1     -35.693  -0.963 -15.879  0.00  0.00     0.198 C 
HETATM   20  O           1     -34.973  -1.954 -15.636  0.00  0.00    -0.646 OA
HETATM   21  O           1     -36.170  -0.801 -17.024  0.00  0.00    -0.646 OA
ENDBRANCH  18  19
BRANCH  18  22
HETATM   22  C           1     -35.507   1.420 -15.230  0.00  0.00     0.200 C 
BRANCH  22  23
HETATM   23  O           1     -36.432   1.974 -16.126  0.00  0.00    -0.398 OA
HETATM   24  H           1     -37.071   2.435 -15.609  0.00  0.00     0.209 HD
ENDBRANCH  22  23
ENDBRANCH  18  22
ENDBRANCH  16  18
ENDBRANCH   1  14
TORSDOF 5
ENDMDL
MODEL 2
REMARK VINA RESULT:      -6.1      9.524     11.195
REMARK  5 active torsions:
REMARK  status: ('A' for Active; 'I' for Inactive)
REMARK    1  A    between atoms: C_2  and  C_24 
REMARK    2  A    between atoms: C_5  and  C_6 
REMARK    3  A    between atoms: C_6  and  C_20 
REMARK    4  A    between atoms: C_6  and  N_23 
REMARK    5  A    between atoms: O_18  and  C_20 
REMARK       I    between atoms: N_23  and  C_24 
ROOT
HETATM    1  C           1     -28.941  -6.289 -17.890  0.00  0.00     0.274 C 
HETATM    2  C           1     -30.776  -3.266 -17.534  0.00  0.00     0.027 C 
HETATM    3  C           1     -29.376  -3.851 -17.657  0.00  0.00     0.004 C 
HETATM    4  C           1     -31.727  -4.331 -17.002  0.00  0.00     0.229 C 
HETATM    5  H           1     -29.544  -7.426 -16.237  0.00  0.00     0.275 HD
HETATM    6  H           1     -29.842  -5.751 -16.077  0.00  0.00     0.275 HD
HETATM    7  C           1     -29.401  -5.033 -18.618  0.00  0.00     0.042 C 
HETATM    8  N           1     -29.860  -6.563 -16.736  0.00  0.00    -0.067 N 
HETATM    9  H           1     -30.297  -5.196 -15.740  0.00  0.00     0.274 HD
HETATM   10  H           1     -30.833  -6.701 -17.091  0.00  0.00     0.275 HD
HETATM   11  H           1     -31.240  -3.982 -14.996  0.00  0.00     0.274 HD
HETATM   12  H           1     -31.910  -5.524 -15.290  0.00  0.00     0.274 HD
HETATM   13  N           1     -31.258  -4.794 -15.655  0.00  0.00    -0.079 N 
ENDROOT
BRANCH   1  14
HETATM   14  C           1     -27.536  -6.089 -17.377  0.00  0.00     0.249 C 
HETATM   15  O           1     -27.341  -5.402 -16.402  0.00  0.00    -0.271 OA
HETATM   16  N           1     -26.483  -6.685 -18.016  0.00  0.00    -0.343 N 
HETATM   17  H           1     -26.646  -7.260 -18.833  0.00  0.00     0.163 HD
BRANCH  16  18
HETATM   18  C           1     -25.133  -6.493 -17.522  0.00  0.00     0.209 C 
BRANCH  18  19
HETATM   19  C           1     -24.145  -6.980 -18.554  0.00  0.00     0.198 C 
HETATM   20  O           1     -22.925  -6.762 -18.401  0.00  0.00    -0.646 OA
HETATM   21  O           1     -24.549  -7.600 -19.562  0.00  0.00    -0.646 OA
ENDBRANCH  18  19
BRANCH  18  22
HETATM   22  C           1     -24.948  -7.281 -16.231  0.00  0.00     0.200 C 
BRANCH  22  23
HETATM   23  O           1     -24.179  -8.424 -16.487  0.00  0.00    -0.398 OA
HETATM   24  H           1     -23.285  -8.140 -16.570  0.00  0.00     0.209 HD
ENDBRANCH  22  23
ENDBRANCH  18  22
ENDBRANCH  16  18
ENDBRANCH   1  14
TORSDOF 5
ENDMDL
MODEL 3
REMARK VINA RESULT:      -6.0     13.651     15.154
REMARK  5 active torsions:
REMARK  status: ('A' for Active; 'I' for Inactive)
REMARK    1  A    between atoms: C_2  and  C_24 
REMARK    2  A    between atoms: C_5  and  C_6 
REMARK    3  A    between atoms: C_6  and  C_20 
REMARK    4  A    between atoms: C_6  and  N_23 
REMARK    5  A    between atoms: O_18  and  C_20 
REMARK       I    between atoms: N_23  and  C_24 
ROOT
HETATM    1  C           1     -20.922  -4.063  -6.939  0.00  0.00     0.274 C 
HETATM    2  C           1     -20.604  -6.990  -4.948  0.00  0.00     0.027 C 
HETATM    3  C           1     -20.343  -6.404  -6.329  0.00  0.00     0.004 C 
HETATM    4  C           1     -21.721  -6.209  -4.268  0.00  0.00     0.229 C 
HETATM    5  H           1     -22.973  -3.646  -6.872  0.00  0.00     0.275 HD
HETATM    6  H           1     -22.575  -5.254  -6.455  0.00  0.00     0.275 HD
HETATM    7  C           1     -19.930  -4.945  -6.191  0.00  0.00     0.042 C 
HETATM    8  N           1     -22.293  -4.252  -6.359  0.00  0.00    -0.067 N 
HETATM    9  H           1     -22.791  -5.895  -6.040  0.00  0.00     0.274 HD
HETATM   10  H           1     -22.284  -3.987  -5.348  0.00  0.00     0.275 HD
HETATM   11  H           1     -23.253  -7.301  -5.189  0.00  0.00     0.274 HD
HETATM   12  H           1     -23.736  -5.764  -4.627  0.00  0.00     0.274 HD
HETATM   13  N           1     -22.970  -6.299  -5.093  0.00  0.00    -0.079 N 
ENDROOT
BRANCH   1  14
HETATM   14  C           1     -20.936  -4.445  -8.398  0.00  0.00     0.249 C 
HETATM   15  O           1     -19.968  -4.971  -8.895  0.00  0.00    -0.271 OA
HETATM   16  N           1     -22.046  -4.196  -9.160  0.00  0.00    -0.343 N 
HETATM   17  H           1     -22.856  -3.755  -8.745  0.00  0.00     0.163 HD
BRANCH  16  18
HETATM   18  C           1     -22.058  -4.564 -10.563  0.00  0.00     0.209 C 
BRANCH  18  19
HETATM   19  C           1     -21.360  -3.496 -11.369  0.00  0.00     0.198 C 
HETATM   20  O           1     -20.191  -3.681 -11.768  0.00  0.00    -0.646 OA
HETATM   21  O           1     -21.952  -2.428 -11.637  0.00  0.00    -0.646 OA
ENDBRANCH  18  19
BRANCH  18  22
HETATM   22  C           1     -23.500  -4.698 -11.038  0.00  0.00     0.200 C 
BRANCH  22  23
HETATM   23  O           1     -23.528  -4.751 -12.439  0.00  0.00    -0.398 OA
HETATM   24  H           1     -22.680  -4.471 -12.741  0.00  0.00     0.209 HD
ENDBRANCH  22  23
ENDBRANCH  18  22
ENDBRANCH  16  18
ENDBRANCH   1  14
TORSDOF 5
ENDMDL
MODEL 4
REMARK VINA RESULT:      -5.9     10.490     11.915
REMARK  5 active torsions:
REMARK  status: ('A' for Active; 'I' for Inactive)
REMARK    1  A    between atoms: C_2  and  C_24 
REMARK    2  A    between atoms: C_5  and  C_6 
REMARK    3  A    between atoms: C_6  and  C_20 
REMARK    4  A    between atoms: C_6  and  N_23 
REMARK    5  A    between atoms: O_18  and  C_20 
REMARK       I    between atoms: N_23  and  C_24 
ROOT
HETATM    1  C           1     -28.692  -6.307 -18.879  0.00  0.00     0.274 C 
HETATM    2  C           1     -28.368  -4.746 -15.702  0.00  0.00     0.027 C 
HETATM    3  C           1     -27.802  -4.797 -17.114  0.00  0.00     0.004 C 
HETATM    4  C           1     -29.072  -6.061 -15.389  0.00  0.00     0.229 C 
HETATM    5  H           1     -28.476  -8.345 -18.447  0.00  0.00     0.275 HD
HETATM    6  H           1     -27.864  -7.308 -17.236  0.00  0.00     0.275 HD
HETATM    7  C           1     -28.934  -5.015 -18.109  0.00  0.00     0.042 C 
HETATM    8  N           1     -28.642  -7.459 -17.918  0.00  0.00    -0.067 N 
HETATM    9  H           1     -27.703  -7.226 -16.463  0.00  0.00     0.274 HD
HETATM   10  H           1     -29.549  -7.524 -17.403  0.00  0.00     0.275 HD
HETATM   11  H           1     -27.314  -7.041 -14.812  0.00  0.00     0.274 HD
HETATM   12  H           1     -28.573  -8.092 -15.279  0.00  0.00     0.274 HD
HETATM   13  N           1     -28.091  -7.191 -15.494  0.00  0.00    -0.079 N 
ENDROOT
BRANCH   1  14
HETATM   14  C           1     -27.382  -6.214 -19.622  0.00  0.00     0.249 C 
HETATM   15  O           1     -27.277  -5.474 -20.571  0.00  0.00    -0.271 OA
HETATM   16  N           1     -26.314  -6.970 -19.221  0.00  0.00    -0.343 N 
HETATM   17  H           1     -26.402  -7.591 -18.427  0.00  0.00     0.163 HD
BRANCH  16  18
HETATM   18  C           1     -25.055  -6.880 -19.936  0.00  0.00     0.209 C 
BRANCH  18  19
HETATM   19  C           1     -25.009  -7.941 -21.008  0.00  0.00     0.198 C 
HETATM   20  O           1     -23.916  -8.263 -21.521  0.00  0.00    -0.646 OA
HETATM   21  O           1     -26.064  -8.497 -21.383  0.00  0.00    -0.646 OA
ENDBRANCH  18  19
BRANCH  18  22
HETATM   22  C           1     -23.903  -7.092 -18.962  0.00  0.00     0.200 C 
BRANCH  22  23
HETATM   23  O           1     -24.260  -6.599 -17.699  0.00  0.00    -0.398 OA
HETATM   24  H           1     -24.912  -5.933 -17.839  0.00  0.00     0.209 HD
ENDBRANCH  22  23
ENDBRANCH  18  22
ENDBRANCH  16  18
ENDBRANCH   1  14
TORSDOF 5
ENDMDL
MODEL 5
REMARK VINA RESULT:      -5.9     14.071     15.558
REMARK  5 active torsions:
REMARK  status: ('A' for Active; 'I' for Inactive)
REMARK    1  A    between atoms: C_2  and  C_24 
REMARK    2  A    between atoms: C_5  and  C_6 
REMARK    3  A    between atoms: C_6  and  C_20 
REMARK    4  A    between atoms: C_6  and  N_23 
REMARK    5  A    between atoms: O_18  and  C_20 
REMARK       I    between atoms: N_23  and  C_24 
ROOT
HETATM    1  C           1     -19.759  -4.909  -6.540  0.00  0.00     0.274 C 
HETATM    2  C           1     -21.528  -7.753  -5.350  0.00  0.00     0.027 C 
HETATM    3  C           1     -21.441  -6.741  -6.484  0.00  0.00     0.004 C 
HETATM    4  C           1     -20.907  -7.160  -4.091  0.00  0.00     0.229 C 
HETATM    5  H           1     -19.952  -3.525  -4.980  0.00  0.00     0.275 HD
HETATM    6  H           1     -21.108  -4.781  -4.943  0.00  0.00     0.275 HD
HETATM    7  C           1     -19.981  -6.401  -6.752  0.00  0.00     0.042 C 
HETATM    8  N           1     -20.106  -4.548  -5.125  0.00  0.00    -0.067 N 
HETATM    9  H           1     -21.586  -5.219  -4.484  0.00  0.00     0.274 HD
HETATM   10  H           1     -19.498  -5.088  -4.468  0.00  0.00     0.275 HD
HETATM   11  H           1     -22.649  -6.147  -3.524  0.00  0.00     0.274 HD
HETATM   12  H           1     -21.221  -5.508  -2.843  0.00  0.00     0.274 HD
HETATM   13  N           1     -21.646  -5.914  -3.706  0.00  0.00    -0.079 N 
ENDROOT
BRANCH   1  14
HETATM   14  C           1     -20.637  -4.129  -7.487  0.00  0.00     0.249 C 
HETATM   15  O           1     -21.292  -3.200  -7.076  0.00  0.00    -0.271 OA
HETATM   16  N           1     -20.693  -4.475  -8.810  0.00  0.00    -0.343 N 
HETATM   17  H           1     -20.146  -5.253  -9.154  0.00  0.00     0.163 HD
BRANCH  16  18
HETATM   18  C           1     -21.537  -3.724  -9.719  0.00  0.00     0.209 C 
BRANCH  18  19
HETATM   19  C           1     -22.871  -4.417  -9.854  0.00  0.00     0.198 C 
HETATM   20  O           1     -23.136  -5.065 -10.889  0.00  0.00    -0.646 OA
HETATM   21  O           1     -23.711  -4.341  -8.931  0.00  0.00    -0.646 OA
ENDBRANCH  18  19
BRANCH  18  22
HETATM   22  C           1     -20.866  -3.644 -11.085  0.00  0.00     0.200 C 
BRANCH  22  23
HETATM   23  O           1     -21.593  -2.778 -11.914  0.00  0.00    -0.398 OA
HETATM   24  H           1     -22.448  -2.685 -11.530  0.00  0.00     0.209 HD
ENDBRANCH  22  23
ENDBRANCH  18  22
ENDBRANCH  16  18
ENDBRANCH   1  14
TORSDOF 5
ENDMDL
MODEL 6
REMARK VINA RESULT:      -5.9      9.611     11.316
REMARK  5 active torsions:
REMARK  status: ('A' for Active; 'I' for Inactive)
REMARK    1  A    between atoms: C_2  and  C_24 
REMARK    2  A    between atoms: C_5  and  C_6 
REMARK    3  A    between atoms: C_6  and  C_20 
REMARK    4  A    between atoms: C_6  and  N_23 
REMARK    5  A    between atoms: O_18  and  C_20 
REMARK       I    between atoms: N_23  and  C_24 
ROOT
HETATM    1  C           1     -28.392  -5.343 -18.597  0.00  0.00     0.274 C 
HETATM    2  C           1     -31.187  -7.115 -17.302  0.00  0.00     0.027 C 
HETATM    3  C           1     -29.935  -6.339 -16.919  0.00  0.00     0.004 C 
HETATM    4  C           1     -31.032  -7.666 -18.714  0.00  0.00     0.229 C 
HETATM    5  H           1     -27.450  -6.749 -19.831  0.00  0.00     0.275 HD
HETATM    6  H           1     -28.508  -7.433 -18.678  0.00  0.00     0.275 HD
HETATM    7  C           1     -29.733  -5.186 -17.894  0.00  0.00     0.042 C 
HETATM    8  N           1     -28.370  -6.642 -19.348  0.00  0.00    -0.067 N 
HETATM    9  H           1     -28.983  -8.045 -18.507  0.00  0.00     0.274 HD
HETATM   10  H           1     -29.139  -6.648 -20.056  0.00  0.00     0.275 HD
HETATM   11  H           1     -29.981  -9.369 -18.099  0.00  0.00     0.274 HD
HETATM   12  H           1     -29.737  -8.956 -19.736  0.00  0.00     0.274 HD
HETATM   13  N           1     -29.843  -8.578 -18.769  0.00  0.00    -0.079 N 
ENDROOT
BRANCH   1  14
HETATM   14  C           1     -27.282  -5.336 -17.574  0.00  0.00     0.249 C 
HETATM   15  O           1     -27.179  -4.412 -16.802  0.00  0.00    -0.271 OA
HETATM   16  N           1     -26.393  -6.375 -17.522  0.00  0.00    -0.343 N 
HETATM   17  H           1     -26.479  -7.148 -18.168  0.00  0.00     0.163 HD
BRANCH  16  18
HETATM   18  C           1     -25.327  -6.367 -16.538  0.00  0.00     0.209 C 
BRANCH  18  19
HETATM   19  C           1     -24.252  -7.340 -16.955  0.00  0.00     0.198 C 
HETATM   20  O           1     -23.550  -7.102 -17.961  0.00  0.00    -0.646 OA
HETATM   21  O           1     -24.063  -8.384 -16.293  0.00  0.00    -0.646 OA
ENDBRANCH  18  19
BRANCH  18  22
HETATM   22  C           1     -25.886  -6.778 -15.182  0.00  0.00     0.200 C 
BRANCH  22  23
HETATM   23  O           1     -26.928  -7.698 -15.363  0.00  0.00    -0.398 OA
HETATM   24  H           1     -27.323  -7.835 -14.519  0.00  0.00     0.209 HD
ENDBRANCH  22  23
ENDBRANCH  18  22
ENDBRANCH  16  18
ENDBRANCH   1  14
TORSDOF 5
ENDMDL
MODEL 7
REMARK VINA RESULT:      -5.8     25.368     26.255
REMARK  5 active torsions:
REMARK  status: ('A' for Active; 'I' for Inactive)
REMARK    1  A    between atoms: C_2  and  C_24 
REMARK    2  A    between atoms: C_5  and  C_6 
REMARK    3  A    between atoms: C_6  and  C_20 
REMARK    4  A    between atoms: C_6  and  N_23 
REMARK    5  A    between atoms: O_18  and  C_20 
REMARK       I    between atoms: N_23  and  C_24 
ROOT
HETATM    1  C           1     -13.328   5.611 -19.986  0.00  0.00     0.274 C 
HETATM    2  C           1     -11.797   2.614 -21.128  0.00  0.00     0.027 C 
HETATM    3  C           1     -11.556   4.090 -20.842  0.00  0.00     0.004 C 
HETATM    4  C           1     -13.282   2.381 -21.380  0.00  0.00     0.229 C 
HETATM    5  H           1     -14.940   5.869 -21.299  0.00  0.00     0.275 HD
HETATM    6  H           1     -13.722   4.825 -21.887  0.00  0.00     0.275 HD
HETATM    7  C           1     -12.350   4.505 -19.611  0.00  0.00     0.042 C 
HETATM    8  N           1     -14.268   5.109 -21.042  0.00  0.00    -0.067 N 
HETATM    9  H           1     -13.560   4.209 -22.361  0.00  0.00     0.274 HD
HETATM   10  H           1     -14.797   4.286 -20.676  0.00  0.00     0.275 HD
HETATM   11  H           1     -13.178   2.912 -23.403  0.00  0.00     0.274 HD
HETATM   12  H           1     -14.742   3.036 -22.731  0.00  0.00     0.274 HD
HETATM   13  N           1     -13.724   3.196 -22.558  0.00  0.00    -0.079 N 
ENDROOT
BRANCH   1  14
HETATM   14  C           1     -12.565   6.800 -20.517  0.00  0.00     0.249 C 
HETATM   15  O           1     -12.968   7.391 -21.491  0.00  0.00    -0.271 OA
HETATM   16  N           1     -11.417   7.209 -19.894  0.00  0.00    -0.343 N 
HETATM   17  H           1     -11.078   6.714 -19.079  0.00  0.00     0.163 HD
BRANCH  16  18
HETATM   18  C           1     -10.684   8.352 -20.405  0.00  0.00     0.209 C 
BRANCH  18  19
HETATM   19  C           1      -9.296   7.920 -20.810  0.00  0.00     0.198 C 
HETATM   20  O           1      -8.529   8.731 -21.370  0.00  0.00    -0.646 OA
HETATM   21  O           1      -8.914   6.751 -20.584  0.00  0.00    -0.646 OA
ENDBRANCH  18  19
BRANCH  18  22
HETATM   22  C           1     -10.589   9.418 -19.321  0.00  0.00     0.200 C 
BRANCH  22  23
HETATM   23  O           1     -10.209   8.822 -18.110  0.00  0.00    -0.398 OA
HETATM   24  H           1      -9.275   8.704 -18.144  0.00  0.00     0.209 HD
ENDBRANCH  22  23
ENDBRANCH  18  22
ENDBRANCH  16  18
ENDBRANCH   1  14
TORSDOF 5
ENDMDL
MODEL 8
REMARK VINA RESULT:      -5.8     13.100     14.595
REMARK  5 active torsions:
REMARK  status: ('A' for Active; 'I' for Inactive)
REMARK    1  A    between atoms: C_2  and  C_24 
REMARK    2  A    between atoms: C_5  and  C_6 
REMARK    3  A    between atoms: C_6  and  C_20 
REMARK    4  A    between atoms: C_6  and  N_23 
REMARK    5  A    between atoms: O_18  and  C_20 
REMARK       I    between atoms: N_23  and  C_24 
ROOT
HETATM    1  C           1     -21.485  -4.154  -6.609  0.00  0.00     0.274 C 
HETATM    2  C           1     -19.327  -6.963  -6.319  0.00  0.00     0.027 C 
HETATM    3  C           1     -19.752  -5.825  -7.236  0.00  0.00     0.004 C 
HETATM    4  C           1     -20.445  -7.262  -5.328  0.00  0.00     0.229 C 
HETATM    5  H           1     -23.393  -4.970  -6.319  0.00  0.00     0.275 HD
HETATM    6  H           1     -22.203  -6.117  -6.751  0.00  0.00     0.275 HD
HETATM    7  C           1     -20.038  -4.581  -6.404  0.00  0.00     0.042 C 
HETATM    8  N           1     -22.399  -5.264  -6.179  0.00  0.00    -0.067 N 
HETATM    9  H           1     -21.976  -6.876  -6.703  0.00  0.00     0.274 HD
HETATM   10  H           1     -22.238  -5.478  -5.169  0.00  0.00     0.275 HD
HETATM   11  H           1     -21.488  -8.511  -6.647  0.00  0.00     0.274 HD
HETATM   12  H           1     -22.451  -7.863  -5.396  0.00  0.00     0.274 HD
HETATM   13  N           1     -21.684  -7.658  -6.075  0.00  0.00    -0.079 N 
ENDROOT
BRANCH   1  14
HETATM   14  C           1     -21.719  -3.847  -8.067  0.00  0.00     0.249 C 
HETATM   15  O           1     -20.786  -3.572  -8.783  0.00  0.00    -0.271 OA
HETATM   16  N           1     -22.989  -3.878  -8.578  0.00  0.00    -0.343 N 
HETATM   17  H           1     -23.771  -4.107  -7.978  0.00  0.00     0.163 HD
BRANCH  16  18
HETATM   18  C           1     -23.212  -3.583  -9.980  0.00  0.00     0.209 C 
BRANCH  18  19
HETATM   19  C           1     -24.657  -3.201 -10.190  0.00  0.00     0.198 C 
HETATM   20  O           1     -25.304  -2.673  -9.260  0.00  0.00    -0.646 OA
HETATM   21  O           1     -25.206  -3.413 -11.292  0.00  0.00    -0.646 OA
ENDBRANCH  18  19
BRANCH  18  22
HETATM   22  C           1     -22.886  -4.814 -10.816  0.00  0.00     0.200 C 
BRANCH  22  23
HETATM   23  O           1     -22.718  -4.439 -12.157  0.00  0.00    -0.398 OA
HETATM   24  H           1     -23.577  -4.403 -12.541  0.00  0.00     0.209 HD
ENDBRANCH  22  23
ENDBRANCH  18  22
ENDBRANCH  16  18
ENDBRANCH   1  14
TORSDOF 5
ENDMDL
MODEL 9
REMARK VINA RESULT:      -5.6      2.945      5.527
REMARK  5 active torsions:
REMARK  status: ('A' for Active; 'I' for Inactive)
REMARK    1  A    between atoms: C_2  and  C_24 
REMARK    2  A    between atoms: C_5  and  C_6 
REMARK    3  A    between atoms: C_6  and  C_20 
REMARK    4  A    between atoms: C_6  and  N_23 
REMARK    5  A    between atoms: O_18  and  C_20 
REMARK       I    between atoms: N_23  and  C_24 
ROOT
HETATM    1  C           1     -36.016  -0.139 -11.911  0.00  0.00     0.274 C 
HETATM    2  C           1     -36.786   0.364 -15.345  0.00  0.00     0.027 C 
HETATM    3  C           1     -36.911  -0.613 -14.183  0.00  0.00     0.004 C 
HETATM    4  C           1     -35.610   1.300 -15.097  0.00  0.00     0.229 C 
HETATM    5  H           1     -33.933   0.071 -11.841  0.00  0.00     0.275 HD
HETATM    6  H           1     -34.548  -0.256 -13.401  0.00  0.00     0.275 HD
HETATM    7  C           1     -37.143   0.160 -12.892  0.00  0.00     0.042 C 
HETATM    8  N           1     -34.706   0.276 -12.515  0.00  0.00    -0.067 N 
HETATM    9  H           1     -34.433  -0.170 -14.181  0.00  0.00     0.274 HD
HETATM   10  H           1     -34.726   1.300 -12.722  0.00  0.00     0.275 HD
HETATM   11  H           1     -34.189  -0.032 -15.865  0.00  0.00     0.274 HD
HETATM   12  H           1     -33.541   1.142 -14.810  0.00  0.00     0.274 HD
HETATM   13  N           1     -34.347   0.500 -14.979  0.00  0.00    -0.079 N 
ENDROOT
BRANCH   1  14
HETATM   14  C           1     -35.986  -1.617 -11.613  0.00  0.00     0.249 C 
HETATM   15  O           1     -36.809  -2.101 -10.872  0.00  0.00    -0.271 OA
HETATM   16  N           1     -35.026  -2.411 -12.181  0.00  0.00    -0.343 N 
HETATM   17  H           1     -34.336  -2.006 -12.801  0.00  0.00     0.163 HD
BRANCH  16  18
HETATM   18  C           1     -34.998  -3.832 -11.894  0.00  0.00     0.209 C 
BRANCH  18  19
HETATM   19  C           1     -33.993  -4.104 -10.801  0.00  0.00     0.198 C 
HETATM   20  O           1     -33.180  -3.217 -10.465  0.00  0.00    -0.646 OA
HETATM   21  O           1     -33.974  -5.218 -10.233  0.00  0.00    -0.646 OA
ENDBRANCH  18  19
BRANCH  18  22
HETATM   22  C           1     -34.601  -4.596 -13.151  0.00  0.00     0.200 C 
BRANCH  22  23
HETATM   23  O           1     -35.028  -5.927 -13.044  0.00  0.00    -0.398 OA
HETATM   24  H           1     -34.518  -6.428 -13.657  0.00  0.00     0.209 HD
ENDBRANCH  22  23
ENDBRANCH  18  22
ENDBRANCH  16  18
ENDBRANCH   1  14
TORSDOF 5
ENDMDL
