MODEL 1
REMARK VINA RESULT:      -5.6      0.000      0.000
REMARK  6 active torsions:
REMARK  status: ('A' for Active; 'I' for Inactive)
REMARK       I    between atoms: C_3  and  N_11 
REMARK    1  A    between atoms: C_3  and  C_7 
REMARK    2  A    between atoms: C_7  and  C_8 
REMARK    3  A    between atoms: C_7  and  N_14 
REMARK    4  A    between atoms: C_8  and  C_16 
REMARK    5  A    between atoms: C_10  and  C_13 
REMARK    6  A    between atoms: C_10  and  N_11 
ROOT
HETATM    1  C           1     -34.425  -1.609 -12.056  0.00  0.00     0.284 C 
ENDROOT
BRANCH   1   2
HETATM    2  C           1     -35.396  -1.049 -13.068  0.00  0.00     0.249 C 
HETATM    3  N           1     -34.929  -0.393 -14.174  0.00  0.00    -0.349 N 
HETATM    4  H           1     -33.933  -0.283 -14.315  0.00  0.00     0.163 HD
HETATM    5  O           1     -36.585  -1.181 -12.900  0.00  0.00    -0.271 OA
BRANCH   3   6
HETATM    6  C           1     -35.862   0.145 -15.146  0.00  0.00     0.235 C 
BRANCH   6   7
HETATM    7  C           1     -35.924  -0.770 -16.345  0.00  0.00     0.191 C 
HETATM    8  O           1     -34.969  -1.535 -16.597  0.00  0.00    -0.647 OA
HETATM    9  O           1     -36.930  -0.761 -17.086  0.00  0.00    -0.647 OA
ENDBRANCH   6   7
ENDBRANCH   3   6
ENDBRANCH   1   2
BRANCH   1  10
HETATM   10  C           1     -34.258  -3.106 -12.286  0.00  0.00     0.155 C 
BRANCH  10  11
HETATM   11  C           1     -34.765  -3.860 -11.081  0.00  0.00     0.175 C 
HETATM   12  O           1     -33.954  -4.374 -10.280  0.00  0.00    -0.648 OA
HETATM   13  O           1     -35.994  -3.969 -10.883  0.00  0.00    -0.648 OA
ENDBRANCH  10  11
ENDBRANCH   1  10
BRANCH   1  14
HETATM   14  N           1     -34.954  -1.373 -10.673  0.00  0.00    -0.066 N 
HETATM   15  H           1     -35.429  -2.237 -10.328  0.00  0.00     0.275 HD
HETATM   16  H           1     -34.163  -1.132 -10.034  0.00  0.00     0.275 HD
HETATM   17  H           1     -35.640  -0.583 -10.693  0.00  0.00     0.275 HD
ENDBRANCH   1  14
TORSDOF 6
ENDMDL
MODEL 2
REMARK VINA RESULT:      -5.6      8.316      9.837
REMARK  6 active torsions:
REMARK  status: ('A' for Active; 'I' for Inactive)
REMARK       I    between atoms: C_3  and  N_11 
REMARK    1  A    between atoms: C_3  and  C_7 
REMARK    2  A    between atoms: C_7  and  C_8 
REMARK    3  A    between atoms: C_7  and  N_14 
REMARK    4  A    between atoms: C_8  and  C_16 
REMARK    5  A    between atoms: C_10  and  C_13 
REMARK    6  A    between atoms: C_10  and  N_11 
ROOT
HETATM    1  C           1     -29.656  -5.903 -16.609  0.00  0.00     0.284 C 
ENDROOT
BRANCH   1   2
HETATM    2  C           1     -28.173  -5.641 -16.715  0.00  0.00     0.249 C 
HETATM    3  N           1     -27.328  -6.643 -17.111  0.00  0.00    -0.349 N 
HETATM    4  H           1     -27.697  -7.559 -17.332  0.00  0.00     0.163 HD
HETATM    5  O           1     -27.732  -4.548 -16.451  0.00  0.00    -0.271 OA
BRANCH   3   6
HETATM    6  C           1     -25.903  -6.391 -17.213  0.00  0.00     0.235 C 
BRANCH   6   7
HETATM    7  C           1     -25.201  -6.976 -16.012  0.00  0.00     0.191 C 
HETATM    8  O           1     -25.250  -6.388 -14.911  0.00  0.00    -0.647 OA
HETATM    9  O           1     -24.569  -8.050 -16.120  0.00  0.00    -0.647 OA
ENDBRANCH   6   7
ENDBRANCH   3   6
ENDBRANCH   1   2
BRANCH   1  10
HETATM   10  C           1     -30.375  -5.230 -17.771  0.00  0.00     0.155 C 
BRANCH  10  11
HETATM   11  C           1     -31.104  -4.006 -17.271  0.00  0.00     0.175 C 
HETATM   12  O           1     -30.554  -2.885 -17.331  0.00  0.00    -0.648 OA
HETATM   13  O           1     -32.255  -4.114 -16.799  0.00  0.00    -0.648 OA
ENDBRANCH  10  11
ENDBRANCH   1  10
BRANCH   1  14
HETATM   14  N           1     -30.169  -5.347 -15.314  0.00  0.00    -0.066 N 
HETATM   15  H           1     -30.779  -4.521 -15.507  0.00  0.00     0.275 HD
HETATM   16  H           1     -30.722  -6.080 -14.816  0.00  0.00     0.275 HD
HETATM   17  H           1     -29.362  -5.052 -14.718  0.00  0.00     0.275 HD
ENDBRANCH   1  14
TORSDOF 6
ENDMDL
MODEL 3
REMARK VINA RESULT:      -5.4      1.816      5.423
REMARK  6 active torsions:
REMARK  status: ('A' for Active; 'I' for Inactive)
REMARK       I    between atoms: C_3  and  N_11 
REMARK    1  A    between atoms: C_3  and  C_7 
REMARK    2  A    between atoms: C_7  and  C_8 
REMARK    3  A    between atoms: C_7  and  N_14 
REMARK    4  A    between atoms: C_8  and  C_16 
REMARK    5  A    between atoms: C_10  and  C_13 
REMARK    6  A    between atoms: C_10  and  N_11 
ROOT
HETATM    1  C           1     -36.001   0.126 -13.793  0.00  0.00     0.284 C 
ENDROOT
BRANCH   1   2
HETATM    2  C           1     -35.412  -1.206 -13.396  0.00  0.00     0.249 C 
HETATM    3  N           1     -35.472  -1.619 -12.092  0.00  0.00    -0.349 N 
HETATM    4  H           1     -35.911  -1.032 -11.394  0.00  0.00     0.163 HD
HETATM    5  O           1     -34.888  -1.907 -14.228  0.00  0.00    -0.271 OA
BRANCH   3   6
HETATM    6  C           1     -34.906  -2.899 -11.710  0.00  0.00     0.235 C 
BRANCH   6   7
HETATM    7  C           1     -33.501  -2.696 -11.199  0.00  0.00     0.191 C 
HETATM    8  O           1     -33.235  -1.714 -10.473  0.00  0.00    -0.647 OA
HETATM    9  O           1     -32.602  -3.511 -11.502  0.00  0.00    -0.647 OA
ENDBRANCH   6   7
ENDBRANCH   3   6
ENDBRANCH   1   2
BRANCH   1  10
HETATM   10  C           1     -37.485  -0.044 -14.092  0.00  0.00     0.155 C 
BRANCH  10  11
HETATM   11  C           1     -37.704  -0.018 -15.585  0.00  0.00     0.175 C 
HETATM   12  O           1     -37.516  -1.053 -16.261  0.00  0.00    -0.648 OA
HETATM   13  O           1     -38.075   1.035 -16.145  0.00  0.00    -0.648 OA
ENDBRANCH  10  11
ENDBRANCH   1  10
BRANCH   1  14
HETATM   14  N           1     -35.301   0.636 -15.017  0.00  0.00    -0.066 N 
HETATM   15  H           1     -35.842   0.363 -15.868  0.00  0.00     0.275 HD
HETATM   16  H           1     -35.230   1.677 -14.968  0.00  0.00     0.275 HD
HETATM   17  H           1     -34.342   0.222 -15.067  0.00  0.00     0.275 HD
ENDBRANCH   1  14
TORSDOF 6
ENDMDL
MODEL 4
REMARK VINA RESULT:      -5.4     12.680     14.958
REMARK  6 active torsions:
REMARK  status: ('A' for Active; 'I' for Inactive)
REMARK       I    between atoms: C_3  and  N_11 
REMARK    1  A    between atoms: C_3  and  C_7 
REMARK    2  A    between atoms: C_7  and  C_8 
REMARK    3  A    between atoms: C_7  and  N_14 
REMARK    4  A    between atoms: C_8  and  C_16 
REMARK    5  A    between atoms: C_10  and  C_13 
REMARK    6  A    between atoms: C_10  and  N_11 
ROOT
HETATM    1  C           1     -21.890  -3.606 -10.621  0.00  0.00     0.284 C 
ENDROOT
BRANCH   1   2
HETATM    2  C           1     -21.075  -4.110  -9.455  0.00  0.00     0.249 C 
HETATM    3  N           1     -21.500  -3.883  -8.174  0.00  0.00    -0.349 N 
HETATM    4  H           1     -22.360  -3.376  -8.008  0.00  0.00     0.163 HD
HETATM    5  O           1     -20.048  -4.715  -9.653  0.00  0.00    -0.271 OA
BRANCH   3   6
HETATM    6  C           1     -20.716  -4.368  -7.054  0.00  0.00     0.235 C 
BRANCH   6   7
HETATM    7  C           1     -21.332  -5.638  -6.521  0.00  0.00     0.191 C 
HETATM    8  O           1     -22.254  -5.580  -5.679  0.00  0.00    -0.647 OA
HETATM    9  O           1     -20.919  -6.748  -6.921  0.00  0.00    -0.647 OA
ENDBRANCH   6   7
ENDBRANCH   3   6
ENDBRANCH   1   2
BRANCH   1  10
HETATM   10  C           1     -23.171  -4.422 -10.737  0.00  0.00     0.155 C 
BRANCH  10  11
HETATM   11  C           1     -24.337  -3.603 -10.238  0.00  0.00     0.175 C 
HETATM   12  O           1     -25.197  -3.187 -11.044  0.00  0.00    -0.648 OA
HETATM   13  O           1     -24.442  -3.343  -9.021  0.00  0.00    -0.648 OA
ENDBRANCH  10  11
ENDBRANCH   1  10
BRANCH   1  14
HETATM   14  N           1     -21.094  -3.745 -11.884  0.00  0.00    -0.066 N 
HETATM   15  H           1     -21.469  -3.090 -12.607  0.00  0.00     0.275 HD
HETATM   16  H           1     -20.093  -3.513 -11.691  0.00  0.00     0.275 HD
HETATM   17  H           1     -21.164  -4.727 -12.233  0.00  0.00     0.275 HD
ENDBRANCH   1  14
TORSDOF 6
ENDMDL
MODEL 5
REMARK VINA RESULT:      -5.2      1.863      2.158
REMARK  6 active torsions:
REMARK  status: ('A' for Active; 'I' for Inactive)
REMARK       I    between atoms: C_3  and  N_11 
REMARK    1  A    between atoms: C_3  and  C_7 
REMARK    2  A    between atoms: C_7  and  C_8 
REMARK    3  A    between atoms: C_7  and  N_14 
REMARK    4  A    between atoms: C_8  and  C_16 
REMARK    5  A    between atoms: C_10  and  C_13 
REMARK    6  A    between atoms: C_10  and  N_11 
ROOT
HETATM    1  C           1     -35.378  -2.049 -12.429  0.00  0.00     0.284 C 
ENDROOT
BRANCH   1   2
HETATM    2  C           1     -35.225  -0.627 -12.912  0.00  0.00     0.249 C 
HETATM    3  N           1     -35.091  -0.369 -14.249  0.00  0.00    -0.349 N 
HETATM    4  H           1     -35.094  -1.131 -14.915  0.00  0.00     0.163 HD
HETATM    5  O           1     -35.222   0.283 -12.118  0.00  0.00    -0.271 OA
BRANCH   3   6
HETATM    6  C           1     -34.944   0.998 -14.713  0.00  0.00     0.235 C 
BRANCH   6   7
HETATM    7  C           1     -35.991   1.290 -15.759  0.00  0.00     0.191 C 
HETATM    8  O           1     -36.827   0.414 -16.069  0.00  0.00    -0.647 OA
HETATM    9  O           1     -36.022   2.409 -16.316  0.00  0.00    -0.647 OA
ENDBRANCH   6   7
ENDBRANCH   3   6
ENDBRANCH   1   2
BRANCH   1  10
HETATM   10  C           1     -35.256  -2.087 -10.911  0.00  0.00     0.155 C 
BRANCH  10  11
HETATM   11  C           1     -33.870  -2.546 -10.529  0.00  0.00     0.175 C 
HETATM   12  O           1     -32.943  -1.713 -10.425  0.00  0.00    -0.648 OA
HETATM   13  O           1     -33.649  -3.757 -10.316  0.00  0.00    -0.648 OA
ENDBRANCH  10  11
ENDBRANCH   1  10
BRANCH   1  14
HETATM   14  N           1     -34.304  -2.901 -13.038  0.00  0.00    -0.066 N 
HETATM   15  H           1     -33.471  -2.309 -13.255  0.00  0.00     0.275 HD
HETATM   16  H           1     -34.032  -3.652 -12.364  0.00  0.00     0.275 HD
HETATM   17  H           1     -34.662  -3.335 -13.919  0.00  0.00     0.275 HD
ENDBRANCH   1  14
TORSDOF 6
ENDMDL
MODEL 6
REMARK VINA RESULT:      -5.2     12.974     15.351
REMARK  6 active torsions:
REMARK  status: ('A' for Active; 'I' for Inactive)
REMARK       I    between atoms: C_3  and  N_11 
REMARK    1  A    between atoms: C_3  and  C_7 
REMARK    2  A    between atoms: C_7  and  C_8 
REMARK    3  A    between atoms: C_7  and  N_14 
REMARK    4  A    between atoms: C_8  and  C_16 
REMARK    5  A    between atoms: C_10  and  C_13 
REMARK    6  A    between atoms: C_10  and  N_11 
ROOT
HETATM    1  C           1     -23.261  -4.257  -9.020  0.00  0.00     0.284 C 
ENDROOT
BRANCH   1   2
HETATM    2  C           1     -22.623  -4.435  -7.664  0.00  0.00     0.249 C 
HETATM    3  N           1     -21.261  -4.414  -7.540  0.00  0.00    -0.349 N 
HETATM    4  H           1     -20.680  -4.278  -8.357  0.00  0.00     0.163 HD
HETATM    5  O           1     -23.316  -4.598  -6.687  0.00  0.00    -0.271 OA
BRANCH   3   6
HETATM    6  C           1     -20.648  -4.586  -6.236  0.00  0.00     0.235 C 
BRANCH   6   7
HETATM    7  C           1     -20.263  -6.032  -6.047  0.00  0.00     0.191 C 
HETATM    8  O           1     -20.552  -6.622  -4.984  0.00  0.00    -0.647 OA
HETATM    9  O           1     -19.655  -6.640  -6.954  0.00  0.00    -0.647 OA
ENDBRANCH   6   7
ENDBRANCH   3   6
ENDBRANCH   1   2
BRANCH   1  10
HETATM   10  C           1     -22.239  -3.676  -9.989  0.00  0.00     0.155 C 
BRANCH  10  11
HETATM   11  C           1     -22.574  -4.113 -11.395  0.00  0.00     0.175 C 
HETATM   12  O           1     -23.683  -4.637 -11.638  0.00  0.00    -0.648 OA
HETATM   13  O           1     -21.744  -3.950 -12.314  0.00  0.00    -0.648 OA
ENDBRANCH  10  11
ENDBRANCH   1  10
BRANCH   1  14
HETATM   14  N           1     -24.427  -3.321  -8.904  0.00  0.00    -0.066 N 
HETATM   15  H           1     -24.981  -3.558  -8.050  0.00  0.00     0.275 HD
HETATM   16  H           1     -24.078  -2.338  -8.831  0.00  0.00     0.275 HD
HETATM   17  H           1     -25.033  -3.414  -9.750  0.00  0.00     0.275 HD
ENDBRANCH   1  14
TORSDOF 6
ENDMDL
MODEL 7
REMARK VINA RESULT:      -5.2     12.866     15.284
REMARK  6 active torsions:
REMARK  status: ('A' for Active; 'I' for Inactive)
REMARK       I    between atoms: C_3  and  N_11 
REMARK    1  A    between atoms: C_3  and  C_7 
REMARK    2  A    between atoms: C_7  and  C_8 
REMARK    3  A    between atoms: C_7  and  N_14 
REMARK    4  A    between atoms: C_8  and  C_16 
REMARK    5  A    between atoms: C_10  and  C_13 
REMARK    6  A    between atoms: C_10  and  N_11 
ROOT
HETATM    1  C           1     -22.113  -3.791  -9.323  0.00  0.00     0.284 C 
ENDROOT
BRANCH   1   2
HETATM    2  C           1     -21.491  -4.170  -8.001  0.00  0.00     0.249 C 
HETATM    3  N           1     -20.995  -5.432  -7.815  0.00  0.00    -0.349 N 
HETATM    4  H           1     -21.045  -6.111  -8.564  0.00  0.00     0.163 HD
HETATM    5  O           1     -21.431  -3.360  -7.107  0.00  0.00    -0.271 OA
BRANCH   3   6
HETATM    6  C           1     -20.397  -5.796  -6.545  0.00  0.00     0.235 C 
BRANCH   6   7
HETATM    7  C           1     -21.365  -6.643  -5.756  0.00  0.00     0.191 C 
HETATM    8  O           1     -22.180  -6.101  -4.979  0.00  0.00    -0.647 OA
HETATM    9  O           1     -21.352  -7.887  -5.881  0.00  0.00    -0.647 OA
ENDBRANCH   6   7
ENDBRANCH   3   6
ENDBRANCH   1   2
BRANCH   1  10
HETATM   10  C           1     -23.467  -4.474  -9.462  0.00  0.00     0.155 C 
BRANCH  10  11
HETATM   11  C           1     -24.101  -4.074 -10.772  0.00  0.00     0.175 C 
HETATM   12  O           1     -24.993  -3.198 -10.793  0.00  0.00    -0.648 OA
HETATM   13  O           1     -23.733  -4.616 -11.836  0.00  0.00    -0.648 OA
ENDBRANCH  10  11
ENDBRANCH   1  10
BRANCH   1  14
HETATM   14  N           1     -21.215  -4.229 -10.441  0.00  0.00    -0.066 N 
HETATM   15  H           1     -20.706  -5.096 -10.160  0.00  0.00     0.275 HD
HETATM   16  H           1     -21.789  -4.423 -11.293  0.00  0.00     0.275 HD
HETATM   17  H           1     -20.525  -3.472 -10.651  0.00  0.00     0.275 HD
ENDBRANCH   1  14
TORSDOF 6
ENDMDL
MODEL 8
REMARK VINA RESULT:      -5.1      1.866      2.192
REMARK  6 active torsions:
REMARK  status: ('A' for Active; 'I' for Inactive)
REMARK       I    between atoms: C_3  and  N_11 
REMARK    1  A    between atoms: C_3  and  C_7 
REMARK    2  A    between atoms: C_7  and  C_8 
REMARK    3  A    between atoms: C_7  and  N_14 
REMARK    4  A    between atoms: C_8  and  C_16 
REMARK    5  A    between atoms: C_10  and  C_13 
REMARK    6  A    between atoms: C_10  and  N_11 
ROOT
HETATM    1  C           1     -34.518  -3.384 -12.439  0.00  0.00     0.284 C 
ENDROOT
BRANCH   1   2
HETATM    2  C           1     -34.728  -1.904 -12.642  0.00  0.00     0.249 C 
HETATM    3  N           1     -35.088  -1.426 -13.873  0.00  0.00    -0.349 N 
HETATM    4  H           1     -35.213  -2.065 -14.648  0.00  0.00     0.163 HD
HETATM    5  O           1     -34.579  -1.140 -11.718  0.00  0.00    -0.271 OA
BRANCH   3   6
HETATM    6  C           1     -35.290  -0.003 -14.069  0.00  0.00     0.235 C 
BRANCH   6   7
HETATM    7  C           1     -36.492   0.219 -14.953  0.00  0.00     0.191 C 
HETATM    8  O           1     -36.448   1.071 -15.866  0.00  0.00    -0.647 OA
HETATM    9  O           1     -37.533  -0.449 -14.771  0.00  0.00    -0.647 OA
ENDBRANCH   6   7
ENDBRANCH   3   6
ENDBRANCH   1   2
BRANCH   1  10
HETATM   10  C           1     -33.784  -3.618 -11.125  0.00  0.00     0.155 C 
BRANCH  10  11
HETATM   11  C           1     -33.686  -5.100 -10.859  0.00  0.00     0.175 C 
HETATM   12  O           1     -32.741  -5.760 -11.344  0.00  0.00    -0.648 OA
HETATM   13  O           1     -34.548  -5.667 -10.155  0.00  0.00    -0.648 OA
ENDBRANCH  10  11
ENDBRANCH   1  10
BRANCH   1  14
HETATM   14  N           1     -33.703  -3.933 -13.571  0.00  0.00    -0.066 N 
HETATM   15  H           1     -33.295  -4.854 -13.294  0.00  0.00     0.275 HD
HETATM   16  H           1     -34.313  -4.061 -14.410  0.00  0.00     0.275 HD
HETATM   17  H           1     -32.931  -3.265 -13.800  0.00  0.00     0.275 HD
ENDBRANCH   1  14
TORSDOF 6
ENDMDL
MODEL 9
REMARK VINA RESULT:      -5.1      1.677      5.413
REMARK  6 active torsions:
REMARK  status: ('A' for Active; 'I' for Inactive)
REMARK       I    between atoms: C_3  and  N_11 
REMARK    1  A    between atoms: C_3  and  C_7 
REMARK    2  A    between atoms: C_7  and  C_8 
REMARK    3  A    between atoms: C_7  and  N_14 
REMARK    4  A    between atoms: C_8  and  C_16 
REMARK    5  A    between atoms: C_10  and  C_13 
REMARK    6  A    between atoms: C_10  and  N_11 
ROOT
HETATM    1  C           1     -35.741  -0.151 -13.649  0.00  0.00     0.284 C 
ENDROOT
BRANCH   1   2
HETATM    2  C           1     -35.552  -0.783 -12.292  0.00  0.00     0.249 C 
HETATM    3  N           1     -35.359  -2.134 -12.187  0.00  0.00    -0.349 N 
HETATM    4  H           1     -35.343  -2.709 -13.019  0.00  0.00     0.163 HD
HETATM    5  O           1     -35.572  -0.096 -11.298  0.00  0.00    -0.271 OA
BRANCH   3   6
HETATM    6  C           1     -35.178  -2.741 -10.882  0.00  0.00     0.235 C 
BRANCH   6   7
HETATM    7  C           1     -33.893  -3.532 -10.869  0.00  0.00     0.191 C 
HETATM    8  O           1     -32.852  -3.042 -11.355  0.00  0.00    -0.647 OA
HETATM    9  O           1     -33.871  -4.679 -10.371  0.00  0.00    -0.647 OA
ENDBRANCH   6   7
ENDBRANCH   3   6
ENDBRANCH   1   2
BRANCH   1  10
HETATM   10  C           1     -37.228  -0.074 -13.972  0.00  0.00     0.155 C 
BRANCH  10  11
HETATM   11  C           1     -37.419  -0.063 -15.469  0.00  0.00     0.175 C 
HETATM   12  O           1     -37.124   0.958 -16.128  0.00  0.00    -0.648 OA
HETATM   13  O           1     -37.870  -1.073 -16.049  0.00  0.00    -0.648 OA
ENDBRANCH  10  11
ENDBRANCH   1  10
BRANCH   1  14
HETATM   14  N           1     -35.048  -0.981 -14.687  0.00  0.00    -0.066 N 
HETATM   15  H           1     -34.020  -0.799 -14.651  0.00  0.00     0.275 HD
HETATM   16  H           1     -35.228  -1.994 -14.501  0.00  0.00     0.275 HD
HETATM   17  H           1     -35.413  -0.731 -15.635  0.00  0.00     0.275 HD
ENDBRANCH   1  14
TORSDOF 6
ENDMDL
