MODEL 1
REMARK VINA RESULT:      -6.3      0.000      0.000
REMARK  7 active torsions:
REMARK  status: ('A' for Active; 'I' for Inactive)
REMARK    1  A    between atoms: C_2  and  C_4 
REMARK    2  A    between atoms: C_4  and  C_11 
REMARK    3  A    between atoms: C_4  and  N_21 
REMARK    4  A    between atoms: N_9  and  C_19 
REMARK       I    between atoms: N_16  and  C_17 
REMARK    5  A    between atoms: C_17  and  C_18 
REMARK    6  A    between atoms: C_18  and  C_19 
REMARK    7  A    between atoms: C_19  and  C_20 
REMARK       I    between atoms: C_20  and  N_21 
ROOT
HETATM    1  C           1     -21.237  -5.711  -6.882  0.00  0.00     0.283 C 
ENDROOT
BRANCH   1   2
HETATM    2  N           1     -19.975  -6.254  -7.481  0.00  0.00    -0.066 N 
HETATM    3  H           1     -19.925  -5.989  -8.491  0.00  0.00     0.275 HD
HETATM    4  H           1     -19.151  -5.856  -6.976  0.00  0.00     0.275 HD
HETATM    5  H           1     -19.968  -7.296  -7.394  0.00  0.00     0.275 HD
ENDBRANCH   1   2
BRANCH   1   6
HETATM    6  C           1     -20.967  -5.259  -5.453  0.00  0.00     0.145 C 
BRANCH   6   7
HETATM    7  C           1     -21.304  -6.377  -4.498  0.00  0.00     0.217 C 
HETATM    8  O           1     -21.035  -7.520  -4.787  0.00  0.00    -0.274 OA
HETATM    9  N           1     -21.912  -6.099  -3.304  0.00  0.00    -0.370 N 
HETATM   10  H           1     -22.137  -5.142  -3.061  0.00  0.00     0.159 HD
HETATM   11  H           1     -22.138  -6.849  -2.663  0.00  0.00     0.159 HD
ENDBRANCH   6   7
ENDBRANCH   1   6
BRANCH   1  12
HETATM   12  C           1     -21.717  -4.538  -7.699  0.00  0.00     0.249 C 
HETATM   13  O           1     -21.650  -3.419  -7.249  0.00  0.00    -0.271 OA
HETATM   14  N           1     -22.230  -4.740  -8.953  0.00  0.00    -0.344 N 
HETATM   15  H           1     -22.286  -5.678  -9.331  0.00  0.00     0.163 HD
BRANCH  14  16
HETATM   16  C           1     -22.691  -3.612  -9.739  0.00  0.00     0.189 C 
BRANCH  16  17
HETATM   17  C           1     -21.871  -3.519 -11.020  0.00  0.00     0.010 C 
HETATM   18  C           1     -20.388  -3.570 -10.677  0.00  0.00     0.012 C 
HETATM   19  C           1     -22.223  -4.685 -11.933  0.00  0.00     0.012 C 
ENDBRANCH  16  17
BRANCH  16  20
HETATM   20  C           1     -24.147  -3.803 -10.085  0.00  0.00     0.197 C 
HETATM   21  O           1     -24.734  -4.857  -9.759  0.00  0.00    -0.646 OA
HETATM   22  O           1     -24.766  -2.907 -10.699  0.00  0.00    -0.646 OA
ENDBRANCH  16  20
ENDBRANCH  14  16
ENDBRANCH   1  12
TORSDOF 7
ENDMDL
MODEL 2
REMARK VINA RESULT:      -6.2     11.170     13.101
REMARK  7 active torsions:
REMARK  status: ('A' for Active; 'I' for Inactive)
REMARK    1  A    between atoms: C_2  and  C_4 
REMARK    2  A    between atoms: C_4  and  C_11 
REMARK    3  A    between atoms: C_4  and  N_21 
REMARK    4  A    between atoms: N_9  and  C_19 
REMARK       I    between atoms: N_16  and  C_17 
REMARK    5  A    between atoms: C_17  and  C_18 
REMARK    6  A    between atoms: C_18  and  C_19 
REMARK    7  A    between atoms: C_19  and  C_20 
REMARK       I    between atoms: C_20  and  N_21 
ROOT
HETATM    1  C           1     -25.155  -6.917 -19.952  0.00  0.00     0.283 C 
ENDROOT
BRANCH   1   2
HETATM    2  N           1     -24.597  -7.461 -18.672  0.00  0.00    -0.066 N 
HETATM    3  H           1     -25.166  -8.283 -18.364  0.00  0.00     0.275 HD
HETATM    4  H           1     -23.607  -7.759 -18.823  0.00  0.00     0.275 HD
HETATM    5  H           1     -24.630  -6.720 -17.934  0.00  0.00     0.275 HD
ENDBRANCH   1   2
BRANCH   1   6
HETATM    6  C           1     -25.254  -8.038 -20.979  0.00  0.00     0.145 C 
BRANCH   6   7
HETATM    7  C           1     -23.956  -8.137 -21.742  0.00  0.00     0.217 C 
HETATM    8  O           1     -23.822  -7.544 -22.786  0.00  0.00    -0.274 OA
HETATM    9  N           1     -22.930  -8.899 -21.252  0.00  0.00    -0.370 N 
HETATM   10  H           1     -23.041  -9.396 -20.377  0.00  0.00     0.159 HD
HETATM   11  H           1     -22.059  -8.966 -21.764  0.00  0.00     0.159 HD
ENDBRANCH   6   7
ENDBRANCH   1   6
BRANCH   1  12
HETATM   12  C           1     -26.527  -6.343 -19.699  0.00  0.00     0.249 C 
HETATM   13  O           1     -27.147  -5.836 -20.604  0.00  0.00    -0.271 OA
HETATM   14  N           1     -27.071  -6.397 -18.444  0.00  0.00    -0.344 N 
HETATM   15  H           1     -26.552  -6.822 -17.686  0.00  0.00     0.163 HD
BRANCH  14  16
HETATM   16  C           1     -28.391  -5.846 -18.201  0.00  0.00     0.189 C 
BRANCH  16  17
HETATM   17  C           1     -29.293  -6.930 -17.625  0.00  0.00     0.010 C 
HETATM   18  C           1     -30.563  -6.293 -17.075  0.00  0.00     0.012 C 
HETATM   19  C           1     -29.656  -7.923 -18.721  0.00  0.00     0.012 C 
ENDBRANCH  16  17
BRANCH  16  20
HETATM   20  C           1     -28.285  -4.705 -17.220  0.00  0.00     0.197 C 
HETATM   21  O           1     -28.792  -3.595 -17.496  0.00  0.00    -0.646 OA
HETATM   22  O           1     -27.692  -4.867 -16.133  0.00  0.00    -0.646 OA
ENDBRANCH  16  20
ENDBRANCH  14  16
ENDBRANCH   1  12
TORSDOF 7
ENDMDL
MODEL 3
REMARK VINA RESULT:      -6.0     11.000     12.610
REMARK  7 active torsions:
REMARK  status: ('A' for Active; 'I' for Inactive)
REMARK    1  A    between atoms: C_2  and  C_4 
REMARK    2  A    between atoms: C_4  and  C_11 
REMARK    3  A    between atoms: C_4  and  N_21 
REMARK    4  A    between atoms: N_9  and  C_19 
REMARK       I    between atoms: N_16  and  C_17 
REMARK    5  A    between atoms: C_17  and  C_18 
REMARK    6  A    between atoms: C_18  and  C_19 
REMARK    7  A    between atoms: C_19  and  C_20 
REMARK       I    between atoms: C_20  and  N_21 
ROOT
HETATM    1  C           1     -25.287  -6.541 -19.327  0.00  0.00     0.283 C 
ENDROOT
BRANCH   1   2
HETATM    2  N           1     -24.575  -7.854 -19.206  0.00  0.00    -0.066 N 
HETATM    3  H           1     -23.591  -7.691 -18.890  0.00  0.00     0.275 HD
HETATM    4  H           1     -25.069  -8.455 -18.508  0.00  0.00     0.275 HD
HETATM    5  H           1     -24.566  -8.334 -20.135  0.00  0.00     0.275 HD
ENDBRANCH   1   2
BRANCH   1   6
HETATM    6  C           1     -26.176  -6.559 -20.564  0.00  0.00     0.145 C 
BRANCH   6   7
HETATM    7  C           1     -26.202  -7.951 -21.146  0.00  0.00     0.217 C 
HETATM    8  O           1     -25.244  -8.370 -21.752  0.00  0.00    -0.274 OA
HETATM    9  N           1     -27.310  -8.739 -20.987  0.00  0.00    -0.370 N 
HETATM   10  H           1     -28.112  -8.388 -20.479  0.00  0.00     0.159 HD
HETATM   11  H           1     -27.327  -9.673 -21.377  0.00  0.00     0.159 HD
ENDBRANCH   6   7
ENDBRANCH   1   6
BRANCH   1  12
HETATM   12  C           1     -26.136  -6.314 -18.101  0.00  0.00     0.249 C 
HETATM   13  O           1     -25.611  -6.095 -17.034  0.00  0.00    -0.271 OA
HETATM   14  N           1     -27.501  -6.356 -18.195  0.00  0.00    -0.344 N 
HETATM   15  H           1     -27.941  -6.540 -19.088  0.00  0.00     0.163 HD
BRANCH  14  16
HETATM   16  C           1     -28.317  -6.138 -17.016  0.00  0.00     0.189 C 
BRANCH  16  17
HETATM   17  C           1     -29.669  -5.576 -17.433  0.00  0.00     0.010 C 
HETATM   18  C           1     -30.445  -5.147 -16.195  0.00  0.00     0.012 C 
HETATM   19  C           1     -29.460  -4.373 -18.344  0.00  0.00     0.012 C 
ENDBRANCH  16  17
BRANCH  16  20
HETATM   20  C           1     -28.517  -7.447 -16.294  0.00  0.00     0.197 C 
HETATM   21  O           1     -27.980  -7.635 -15.180  0.00  0.00    -0.646 OA
HETATM   22  O           1     -29.218  -8.344 -16.808  0.00  0.00    -0.646 OA
ENDBRANCH  16  20
ENDBRANCH  14  16
ENDBRANCH   1  12
TORSDOF 7
ENDMDL
MODEL 4
REMARK VINA RESULT:      -5.6      2.258      6.512
REMARK  7 active torsions:
REMARK  status: ('A' for Active; 'I' for Inactive)
REMARK    1  A    between atoms: C_2  and  C_4 
REMARK    2  A    between atoms: C_4  and  C_11 
REMARK    3  A    between atoms: C_4  and  N_21 
REMARK    4  A    between atoms: N_9  and  C_19 
REMARK       I    between atoms: N_16  and  C_17 
REMARK    5  A    between atoms: C_17  and  C_18 
REMARK    6  A    between atoms: C_18  and  C_19 
REMARK    7  A    between atoms: C_19  and  C_20 
REMARK       I    between atoms: C_20  and  N_21 
ROOT
HETATM    1  C           1     -21.169  -4.752  -6.529  0.00  0.00     0.283 C 
ENDROOT
BRANCH   1   2
HETATM    2  N           1     -19.681  -4.719  -6.349  0.00  0.00    -0.066 N 
HETATM    3  H           1     -19.406  -3.829  -5.873  0.00  0.00     0.275 HD
HETATM    4  H           1     -19.382  -5.532  -5.765  0.00  0.00     0.275 HD
HETATM    5  H           1     -19.215  -4.770  -7.284  0.00  0.00     0.275 HD
ENDBRANCH   1   2
BRANCH   1   6
HETATM    6  C           1     -21.497  -5.152  -7.962  0.00  0.00     0.145 C 
BRANCH   6   7
HETATM    7  C           1     -22.511  -4.192  -8.533  0.00  0.00     0.217 C 
HETATM    8  O           1     -22.232  -3.525  -9.502  0.00  0.00    -0.274 OA
HETATM    9  N           1     -23.746  -4.075  -7.954  0.00  0.00    -0.370 N 
HETATM   10  H           1     -23.980  -4.634  -7.143  0.00  0.00     0.159 HD
HETATM   11  H           1     -24.426  -3.431  -8.338  0.00  0.00     0.159 HD
ENDBRANCH   6   7
ENDBRANCH   1   6
BRANCH   1  12
HETATM   12  C           1     -21.767  -5.757  -5.576  0.00  0.00     0.249 C 
HETATM   13  O           1     -22.966  -5.899  -5.522  0.00  0.00    -0.271 OA
HETATM   14  N           1     -20.953  -6.508  -4.771  0.00  0.00    -0.344 N 
HETATM   15  H           1     -19.949  -6.389  -4.816  0.00  0.00     0.163 HD
BRANCH  14  16
HETATM   16  C           1     -21.529  -7.474  -3.855  0.00  0.00     0.189 C 
BRANCH  16  17
HETATM   17  C           1     -20.685  -8.742  -3.861  0.00  0.00     0.010 C 
HETATM   18  C           1     -21.563  -9.933  -4.221  0.00  0.00     0.012 C 
HETATM   19  C           1     -19.569  -8.604  -4.887  0.00  0.00     0.012 C 
ENDBRANCH  16  17
BRANCH  16  20
HETATM   20  C           1     -21.556  -6.892  -2.464  0.00  0.00     0.197 C 
HETATM   21  O           1     -20.845  -7.391  -1.564  0.00  0.00    -0.646 OA
HETATM   22  O           1     -22.288  -5.913  -2.209  0.00  0.00    -0.646 OA
ENDBRANCH  16  20
ENDBRANCH  14  16
ENDBRANCH   1  12
TORSDOF 7
ENDMDL
MODEL 5
REMARK VINA RESULT:      -5.4      3.297      7.179
REMARK  7 active torsions:
REMARK  status: ('A' for Active; 'I' for Inactive)
REMARK    1  A    between atoms: C_2  and  C_4 
REMARK    2  A    between atoms: C_4  and  C_11 
REMARK    3  A    between atoms: C_4  and  N_21 
REMARK    4  A    between atoms: N_9  and  C_19 
REMARK       I    between atoms: N_16  and  C_17 
REMARK    5  A    between atoms: C_17  and  C_18 
REMARK    6  A    between atoms: C_18  and  C_19 
REMARK    7  A    between atoms: C_19  and  C_20 
REMARK       I    between atoms: C_20  and  N_21 
ROOT
HETATM    1  C           1     -20.293  -6.153  -5.809  0.00  0.00     0.283 C 
ENDROOT
BRANCH   1   2
HETATM    2  N           1     -20.700  -6.553  -7.195  0.00  0.00    -0.066 N 
HETATM    3  H           1     -21.477  -5.936  -7.523  0.00  0.00     0.275 HD
HETATM    4  H           1     -19.883  -6.457  -7.840  0.00  0.00     0.275 HD
HETATM    5  H           1     -21.025  -7.547  -7.189  0.00  0.00     0.275 HD
ENDBRANCH   1   2
BRANCH   1   6
HETATM    6  C           1     -20.337  -4.635  -5.687  0.00  0.00     0.145 C 
BRANCH   6   7
HETATM    7  C           1     -20.625  -4.029  -7.038  0.00  0.00     0.217 C 
HETATM    8  O           1     -19.765  -4.008  -7.887  0.00  0.00    -0.274 OA
HETATM    9  N           1     -21.860  -3.502  -7.304  0.00  0.00    -0.370 N 
HETATM   10  H           1     -22.582  -3.520  -6.593  0.00  0.00     0.159 HD
HETATM   11  H           1     -22.054  -3.096  -8.211  0.00  0.00     0.159 HD
ENDBRANCH   6   7
ENDBRANCH   1   6
BRANCH   1  12
HETATM   12  C           1     -21.240  -6.767  -4.809  0.00  0.00     0.249 C 
HETATM   13  O           1     -22.400  -6.937  -5.101  0.00  0.00    -0.271 OA
HETATM   14  N           1     -20.786  -7.132  -3.570  0.00  0.00    -0.344 N 
HETATM   15  H           1     -19.814  -6.990  -3.326  0.00  0.00     0.163 HD
BRANCH  14  16
HETATM   16  C           1     -21.697  -7.723  -2.609  0.00  0.00     0.189 C 
BRANCH  16  17
HETATM   17  C           1     -20.971  -8.808  -1.825  0.00  0.00     0.010 C 
HETATM   18  C           1     -21.728 -10.123  -1.960  0.00  0.00     0.012 C 
HETATM   19  C           1     -19.561  -8.974  -2.374  0.00  0.00     0.012 C 
ENDBRANCH  16  17
BRANCH  16  20
HETATM   20  C           1     -22.187  -6.657  -1.660  0.00  0.00     0.197 C 
HETATM   21  O           1     -22.021  -5.449  -1.937  0.00  0.00    -0.646 OA
HETATM   22  O           1     -22.757  -6.981  -0.596  0.00  0.00    -0.646 OA
ENDBRANCH  16  20
ENDBRANCH  14  16
ENDBRANCH   1  12
TORSDOF 7
ENDMDL
MODEL 6
REMARK VINA RESULT:      -5.3      1.897      5.640
REMARK  7 active torsions:
REMARK  status: ('A' for Active; 'I' for Inactive)
REMARK    1  A    between atoms: C_2  and  C_4 
REMARK    2  A    between atoms: C_4  and  C_11 
REMARK    3  A    between atoms: C_4  and  N_21 
REMARK    4  A    between atoms: N_9  and  C_19 
REMARK       I    between atoms: N_16  and  C_17 
REMARK    5  A    between atoms: C_17  and  C_18 
REMARK    6  A    between atoms: C_18  and  C_19 
REMARK    7  A    between atoms: C_19  and  C_20 
REMARK       I    between atoms: C_20  and  N_21 
ROOT
HETATM    1  C           1     -21.797  -3.993 -10.216  0.00  0.00     0.283 C 
ENDROOT
BRANCH   1   2
HETATM    2  N           1     -20.535  -4.620 -10.727  0.00  0.00    -0.066 N 
HETATM    3  H           1     -19.809  -4.608  -9.975  0.00  0.00     0.275 HD
HETATM    4  H           1     -20.727  -5.608 -11.010  0.00  0.00     0.275 HD
HETATM    5  H           1     -20.188  -4.082 -11.554  0.00  0.00     0.275 HD
ENDBRANCH   1   2
BRANCH   1   6
HETATM    6  C           1     -22.999  -4.721 -10.803  0.00  0.00     0.145 C 
BRANCH   6   7
HETATM    7  C           1     -24.267  -4.013 -10.393  0.00  0.00     0.217 C 
HETATM    8  O           1     -24.521  -2.920 -10.843  0.00  0.00    -0.274 OA
HETATM    9  N           1     -25.129  -4.607  -9.512  0.00  0.00    -0.370 N 
HETATM   10  H           1     -24.917  -5.523  -9.135  0.00  0.00     0.159 HD
HETATM   11  H           1     -25.980  -4.132  -9.237  0.00  0.00     0.159 HD
ENDBRANCH   6   7
ENDBRANCH   1   6
BRANCH   1  12
HETATM   12  C           1     -21.834  -4.091  -8.711  0.00  0.00     0.249 C 
HETATM   13  O           1     -22.398  -3.242  -8.063  0.00  0.00    -0.271 OA
HETATM   14  N           1     -21.228  -5.144  -8.079  0.00  0.00    -0.344 N 
HETATM   15  H           1     -20.755  -5.856  -8.621  0.00  0.00     0.163 HD
BRANCH  14  16
HETATM   16  C           1     -21.264  -5.239  -6.632  0.00  0.00     0.189 C 
BRANCH  16  17
HETATM   17  C           1     -21.433  -6.697  -6.225  0.00  0.00     0.010 C 
HETATM   18  C           1     -20.069  -7.295  -5.906  0.00  0.00     0.012 C 
HETATM   19  C           1     -22.325  -6.779  -4.994  0.00  0.00     0.012 C 
ENDBRANCH  16  17
BRANCH  16  20
HETATM   20  C           1     -19.975  -4.702  -6.061  0.00  0.00     0.197 C 
HETATM   21  O           1     -18.973  -4.569  -6.798  0.00  0.00    -0.646 OA
HETATM   22  O           1     -19.907  -4.392  -4.853  0.00  0.00    -0.646 OA
ENDBRANCH  16  20
ENDBRANCH  14  16
ENDBRANCH   1  12
TORSDOF 7
ENDMDL
MODEL 7
REMARK VINA RESULT:      -5.3      4.356      8.350
REMARK  7 active torsions:
REMARK  status: ('A' for Active; 'I' for Inactive)
REMARK    1  A    between atoms: C_2  and  C_4 
REMARK    2  A    between atoms: C_4  and  C_11 
REMARK    3  A    between atoms: C_4  and  N_21 
REMARK    4  A    between atoms: N_9  and  C_19 
REMARK       I    between atoms: N_16  and  C_17 
REMARK    5  A    between atoms: C_17  and  C_18 
REMARK    6  A    between atoms: C_18  and  C_19 
REMARK    7  A    between atoms: C_19  and  C_20 
REMARK       I    between atoms: C_20  and  N_21 
ROOT
HETATM    1  C           1     -20.178  -8.097  -4.818  0.00  0.00     0.283 C 
ENDROOT
BRANCH   1   2
HETATM    2  N           1     -20.937  -9.055  -5.686  0.00  0.00    -0.066 N 
HETATM    3  H           1     -20.293  -9.805  -6.024  0.00  0.00     0.275 HD
HETATM    4  H           1     -21.713  -9.485  -5.133  0.00  0.00     0.275 HD
HETATM    5  H           1     -21.335  -8.542  -6.506  0.00  0.00     0.275 HD
ENDBRANCH   1   2
BRANCH   1   6
HETATM    6  C           1     -20.814  -6.715  -4.912  0.00  0.00     0.145 C 
BRANCH   6   7
HETATM    7  C           1     -20.249  -5.981  -6.103  0.00  0.00     0.217 C 
HETATM    8  O           1     -19.677  -6.592  -6.974  0.00  0.00    -0.274 OA
HETATM    9  N           1     -20.385  -4.622  -6.197  0.00  0.00    -0.370 N 
HETATM   10  H           1     -20.864  -4.109  -5.467  0.00  0.00     0.159 HD
HETATM   11  H           1     -20.006  -4.129  -6.996  0.00  0.00     0.159 HD
ENDBRANCH   6   7
ENDBRANCH   1   6
BRANCH   1  12
HETATM   12  C           1     -20.219  -8.574  -3.387  0.00  0.00     0.249 C 
HETATM   13  O           1     -19.209  -8.964  -2.851  0.00  0.00    -0.271 OA
HETATM   14  N           1     -21.400  -8.563  -2.695  0.00  0.00    -0.344 N 
HETATM   15  H           1     -22.246  -8.236  -3.144  0.00  0.00     0.163 HD
BRANCH  14  16
HETATM   16  C           1     -21.439  -9.021  -1.320  0.00  0.00     0.189 C 
BRANCH  16  17
HETATM   17  C           1     -22.358  -8.116  -0.510  0.00  0.00     0.010 C 
HETATM   18  C           1     -21.895  -8.089   0.940  0.00  0.00     0.012 C 
HETATM   19  C           1     -22.315  -6.706  -1.084  0.00  0.00     0.012 C 
ENDBRANCH  16  17
BRANCH  16  20
HETATM   20  C           1     -21.960 -10.437  -1.276  0.00  0.00     0.197 C 
HETATM   21  O           1     -21.197 -11.374  -0.954  0.00  0.00    -0.646 OA
HETATM   22  O           1     -23.153 -10.673  -1.562  0.00  0.00    -0.646 OA
ENDBRANCH  16  20
ENDBRANCH  14  16
ENDBRANCH   1  12
TORSDOF 7
ENDMDL
MODEL 8
REMARK VINA RESULT:      -5.2      1.853      6.285
REMARK  7 active torsions:
REMARK  status: ('A' for Active; 'I' for Inactive)
REMARK    1  A    between atoms: C_2  and  C_4 
REMARK    2  A    between atoms: C_4  and  C_11 
REMARK    3  A    between atoms: C_4  and  N_21 
REMARK    4  A    between atoms: N_9  and  C_19 
REMARK       I    between atoms: N_16  and  C_17 
REMARK    5  A    between atoms: C_17  and  C_18 
REMARK    6  A    between atoms: C_18  and  C_19 
REMARK    7  A    between atoms: C_19  and  C_20 
REMARK       I    between atoms: C_20  and  N_21 
ROOT
HETATM    1  C           1     -21.793  -4.690  -8.646  0.00  0.00     0.283 C 
ENDROOT
BRANCH   1   2
HETATM    2  N           1     -22.617  -3.467  -8.374  0.00  0.00    -0.066 N 
HETATM    3  H           1     -23.195  -3.241  -9.216  0.00  0.00     0.275 HD
HETATM    4  H           1     -23.245  -3.645  -7.558  0.00  0.00     0.275 HD
HETATM    5  H           1     -21.985  -2.662  -8.161  0.00  0.00     0.275 HD
ENDBRANCH   1   2
BRANCH   1   6
HETATM    6  C           1     -20.787  -4.389  -9.750  0.00  0.00     0.145 C 
BRANCH   6   7
HETATM    7  C           1     -21.504  -3.787 -10.933  0.00  0.00     0.217 C 
HETATM    8  O           1     -22.614  -4.166 -11.224  0.00  0.00    -0.274 OA
HETATM    9  N           1     -20.897  -2.812 -11.677  0.00  0.00    -0.370 N 
HETATM   10  H           1     -19.967  -2.493 -11.433  0.00  0.00     0.159 HD
HETATM   11  H           1     -21.378  -2.407 -12.471  0.00  0.00     0.159 HD
ENDBRANCH   6   7
ENDBRANCH   1   6
BRANCH   1  12
HETATM   12  C           1     -21.059  -5.090  -7.390  0.00  0.00     0.249 C 
HETATM   13  O           1     -20.183  -4.383  -6.951  0.00  0.00    -0.271 OA
HETATM   14  N           1     -21.383  -6.255  -6.748  0.00  0.00    -0.344 N 
HETATM   15  H           1     -22.116  -6.848  -7.117  0.00  0.00     0.163 HD
BRANCH  14  16
HETATM   16  C           1     -20.677  -6.640  -5.541  0.00  0.00     0.189 C 
BRANCH  16  17
HETATM   17  C           1     -21.682  -6.873  -4.420  0.00  0.00     0.010 C 
HETATM   18  C           1     -21.281  -6.052  -3.202  0.00  0.00     0.012 C 
HETATM   19  C           1     -23.068  -6.450  -4.885  0.00  0.00     0.012 C 
ENDBRANCH  16  17
BRANCH  16  20
HETATM   20  C           1     -19.902  -7.908  -5.796  0.00  0.00     0.197 C 
HETATM   21  O           1     -18.831  -7.868  -6.441  0.00  0.00    -0.646 OA
HETATM   22  O           1     -20.328  -9.000  -5.361  0.00  0.00    -0.646 OA
ENDBRANCH  16  20
ENDBRANCH  14  16
ENDBRANCH   1  12
TORSDOF 7
ENDMDL
MODEL 9
REMARK VINA RESULT:      -5.2      4.384      9.032
REMARK  7 active torsions:
REMARK  status: ('A' for Active; 'I' for Inactive)
REMARK    1  A    between atoms: C_2  and  C_4 
REMARK    2  A    between atoms: C_4  and  C_11 
REMARK    3  A    between atoms: C_4  and  N_21 
REMARK    4  A    between atoms: N_9  and  C_19 
REMARK       I    between atoms: N_16  and  C_17 
REMARK    5  A    between atoms: C_17  and  C_18 
REMARK    6  A    between atoms: C_18  and  C_19 
REMARK    7  A    between atoms: C_19  and  C_20 
REMARK       I    between atoms: C_20  and  N_21 
ROOT
HETATM    1  C           1     -20.947  -7.150  -3.326  0.00  0.00     0.283 C 
ENDROOT
BRANCH   1   2
HETATM    2  N           1     -20.159  -8.291  -3.896  0.00  0.00    -0.066 N 
HETATM    3  H           1     -19.884  -8.944  -3.128  0.00  0.00     0.275 HD
HETATM    4  H           1     -20.744  -8.802  -4.596  0.00  0.00     0.275 HD
HETATM    5  H           1     -19.299  -7.922  -4.363  0.00  0.00     0.275 HD
ENDBRANCH   1   2
BRANCH   1   6
HETATM    6  C           1     -21.955  -6.663  -4.359  0.00  0.00     0.145 C 
BRANCH   6   7
HETATM    7  C           1     -21.228  -6.243  -5.613  0.00  0.00     0.217 C 
HETATM    8  O           1     -21.100  -7.024  -6.527  0.00  0.00    -0.274 OA
HETATM    9  N           1     -20.714  -4.979  -5.716  0.00  0.00    -0.370 N 
HETATM   10  H           1     -20.821  -4.325  -4.951  0.00  0.00     0.159 HD
HETATM   11  H           1     -20.226  -4.697  -6.557  0.00  0.00     0.159 HD
ENDBRANCH   6   7
ENDBRANCH   1   6
BRANCH   1  12
HETATM   12  C           1     -21.677  -7.613  -2.089  0.00  0.00     0.249 C 
HETATM   13  O           1     -22.344  -6.831  -1.453  0.00  0.00    -0.271 OA
HETATM   14  N           1     -21.585  -8.918  -1.687  0.00  0.00    -0.344 N 
HETATM   15  H           1     -21.027  -9.573  -2.220  0.00  0.00     0.163 HD
BRANCH  14  16
HETATM   16  C           1     -22.288  -9.363  -0.499  0.00  0.00     0.189 C 
BRANCH  16  17
HETATM   17  C           1     -22.821 -10.772  -0.724  0.00  0.00     0.010 C 
HETATM   18  C           1     -24.176 -10.915  -0.044  0.00  0.00     0.012 C 
HETATM   19  C           1     -22.971 -11.025  -2.217  0.00  0.00     0.012 C 
ENDBRANCH  16  17
BRANCH  16  20
HETATM   20  C           1     -21.339  -9.364   0.674  0.00  0.00     0.197 C 
HETATM   21  O           1     -20.647 -10.376   0.918  0.00  0.00    -0.646 OA
HETATM   22  O           1     -21.245  -8.353   1.403  0.00  0.00    -0.646 OA
ENDBRANCH  16  20
ENDBRANCH  14  16
ENDBRANCH   1  12
TORSDOF 7
ENDMDL
