MODEL 1
REMARK VINA RESULT:      -6.8      0.000      0.000
REMARK  9 active torsions:
REMARK  status: ('A' for Active; 'I' for Inactive)
REMARK    1  A    between atoms: C_1  and  C_2 
REMARK    2  A    between atoms: C_1  and  C_9 
REMARK    3  A    between atoms: C_2  and  C_3 
REMARK       I    between atoms: C_3  and  N_5 
REMARK    4  A    between atoms: C_7  and  C_20 
REMARK    5  A    between atoms: C_9  and  C_19 
REMARK    6  A    between atoms: C_9  and  N_16 
REMARK    7  A    between atoms: C_14  and  C_15 
REMARK    8  A    between atoms: C_14  and  C_20 
REMARK    9  A    between atoms: C_14  and  N_24 
REMARK       I    between atoms: C_15  and  N_16 
ROOT
HETATM    1  O           1     -33.577  -1.877 -11.000  0.00  0.00    -0.271 OA
HETATM    2  H           1     -35.240  -2.238 -13.636  0.00  0.00     0.163 HD
HETATM    3  C           1     -34.078  -2.453 -11.938  0.00  0.00     0.249 C 
HETATM    4  N           1     -34.821  -1.755 -12.851  0.00  0.00    -0.345 N 
ENDROOT
BRANCH   4   5
HETATM    5  C           1     -35.008  -0.326 -12.694  0.00  0.00     0.186 C 
BRANCH   5   6
HETATM    6  C           1     -35.103   0.326 -14.067  0.00  0.00     0.045 C 
BRANCH   6   7
HETATM    7  C           1     -35.498  -0.721 -15.100  0.00  0.00     0.105 C 
BRANCH   7   8
HETATM    8  C           1     -36.717  -0.251 -15.855  0.00  0.00     0.215 C 
HETATM    9  O           1     -36.981  -0.727 -16.933  0.00  0.00    -0.274 OA
HETATM   10  N           1     -37.525   0.714 -15.317  0.00  0.00    -0.370 N 
HETATM   11  H           1     -37.304   1.113 -14.414  0.00  0.00     0.159 HD
HETATM   12  H           1     -38.343   1.029 -15.824  0.00  0.00     0.159 HD
ENDBRANCH   7   8
ENDBRANCH   6   7
ENDBRANCH   5   6
BRANCH   5  13
HETATM   13  C           1     -36.280  -0.067 -11.924  0.00  0.00     0.196 C 
HETATM   14  O           1     -36.231   0.490 -10.806  0.00  0.00    -0.646 OA
HETATM   15  O           1     -37.382  -0.410 -12.405  0.00  0.00    -0.646 OA
ENDBRANCH   5  13
ENDBRANCH   4   5
BRANCH   3  16
HETATM   16  C           1     -33.883  -3.940 -12.100  0.00  0.00     0.278 C 
BRANCH  16  17
HETATM   17  C           1     -34.289  -4.651 -10.816  0.00  0.00     0.021 C 
HETATM   18  C           1     -35.801  -4.564 -10.644  0.00  0.00     0.012 C 
BRANCH  17  19
HETATM   19  C           1     -33.871  -6.114 -10.893  0.00  0.00     0.002 C 
HETATM   20  C           1     -34.788  -6.951 -10.012  0.00  0.00     0.005 C 
ENDBRANCH  17  19
ENDBRANCH  16  17
BRANCH  16  21
HETATM   21  N           1     -32.439  -4.225 -12.392  0.00  0.00    -0.066 N 
HETATM   22  H           1     -32.289  -5.259 -12.425  0.00  0.00     0.275 HD
HETATM   23  H           1     -32.179  -3.806 -13.312  0.00  0.00     0.275 HD
HETATM   24  H           1     -31.843  -3.810 -11.640  0.00  0.00     0.275 HD
ENDBRANCH  16  21
ENDBRANCH   3  16
TORSDOF 9
ENDMDL
MODEL 2
REMARK VINA RESULT:      -5.9     14.118     16.467
REMARK  9 active torsions:
REMARK  status: ('A' for Active; 'I' for Inactive)
REMARK    1  A    between atoms: C_1  and  C_2 
REMARK    2  A    between atoms: C_1  and  C_9 
REMARK    3  A    between atoms: C_2  and  C_3 
REMARK       I    between atoms: C_3  and  N_5 
REMARK    4  A    between atoms: C_7  and  C_20 
REMARK    5  A    between atoms: C_9  and  C_19 
REMARK    6  A    between atoms: C_9  and  N_16 
REMARK    7  A    between atoms: C_14  and  C_15 
REMARK    8  A    between atoms: C_14  and  C_20 
REMARK    9  A    between atoms: C_14  and  N_24 
REMARK       I    between atoms: C_15  and  N_16 
ROOT
HETATM    1  O           1     -21.998  -7.571  -4.693  0.00  0.00    -0.271 OA
HETATM    2  H           1     -20.650  -4.750  -4.437  0.00  0.00     0.163 HD
HETATM    3  C           1     -21.492  -6.618  -4.149  0.00  0.00     0.249 C 
HETATM    4  N           1     -21.074  -5.547  -4.893  0.00  0.00    -0.345 N 
ENDROOT
BRANCH   4   5
HETATM    5  C           1     -21.238  -5.557  -6.333  0.00  0.00     0.186 C 
BRANCH   5   6
HETATM    6  C           1     -21.742  -4.196  -6.794  0.00  0.00     0.045 C 
BRANCH   6   7
HETATM    7  C           1     -23.026  -4.373  -7.594  0.00  0.00     0.105 C 
BRANCH   7   8
HETATM    8  C           1     -22.816  -3.873  -9.002  0.00  0.00     0.215 C 
HETATM    9  O           1     -23.743  -3.409  -9.622  0.00  0.00    -0.274 OA
HETATM   10  N           1     -21.576  -3.943  -9.576  0.00  0.00    -0.370 N 
HETATM   11  H           1     -20.799  -4.331  -9.056  0.00  0.00     0.159 HD
HETATM   12  H           1     -21.436  -3.607 -10.520  0.00  0.00     0.159 HD
ENDBRANCH   7   8
ENDBRANCH   6   7
ENDBRANCH   5   6
BRANCH   5  13
HETATM   13  C           1     -19.911  -5.851  -6.989  0.00  0.00     0.196 C 
HETATM   14  O           1     -19.406  -6.991  -6.895  0.00  0.00    -0.646 OA
HETATM   15  O           1     -19.316  -4.954  -7.625  0.00  0.00    -0.646 OA
ENDBRANCH   5  13
ENDBRANCH   4   5
BRANCH   3  16
HETATM   16  C           1     -21.322  -6.609  -2.650  0.00  0.00     0.278 C 
BRANCH  16  17
HETATM   17  C           1     -21.481  -8.024  -2.111  0.00  0.00     0.021 C 
HETATM   18  C           1     -20.107  -8.650  -1.912  0.00  0.00     0.012 C 
BRANCH  17  19
HETATM   19  C           1     -22.215  -7.977  -0.776  0.00  0.00     0.002 C 
HETATM   20  C           1     -21.281  -8.441   0.334  0.00  0.00     0.005 C 
ENDBRANCH  17  19
ENDBRANCH  16  17
BRANCH  16  21
HETATM   21  N           1     -22.361  -5.720  -2.034  0.00  0.00    -0.066 N 
HETATM   22  H           1     -22.992  -5.354  -2.783  0.00  0.00     0.275 HD
HETATM   23  H           1     -22.922  -6.266  -1.343  0.00  0.00     0.275 HD
HETATM   24  H           1     -21.893  -4.921  -1.550  0.00  0.00     0.275 HD
ENDBRANCH  16  21
ENDBRANCH   3  16
TORSDOF 9
ENDMDL
MODEL 3
REMARK VINA RESULT:      -5.7     14.285     17.175
REMARK  9 active torsions:
REMARK  status: ('A' for Active; 'I' for Inactive)
REMARK    1  A    between atoms: C_1  and  C_2 
REMARK    2  A    between atoms: C_1  and  C_9 
REMARK    3  A    between atoms: C_2  and  C_3 
REMARK       I    between atoms: C_3  and  N_5 
REMARK    4  A    between atoms: C_7  and  C_20 
REMARK    5  A    between atoms: C_9  and  C_19 
REMARK    6  A    between atoms: C_9  and  N_16 
REMARK    7  A    between atoms: C_14  and  C_15 
REMARK    8  A    between atoms: C_14  and  C_20 
REMARK    9  A    between atoms: C_14  and  N_24 
REMARK       I    between atoms: C_15  and  N_16 
ROOT
HETATM    1  O           1     -21.080  -4.247  -6.273  0.00  0.00    -0.271 OA
HETATM    2  H           1     -22.097  -7.141  -6.930  0.00  0.00     0.163 HD
HETATM    3  C           1     -21.628  -5.126  -6.895  0.00  0.00     0.249 C 
HETATM    4  N           1     -21.637  -6.406  -6.409  0.00  0.00    -0.345 N 
ENDROOT
BRANCH   4   5
HETATM    5  C           1     -20.989  -6.706  -5.147  0.00  0.00     0.186 C 
BRANCH   5   6
HETATM    6  C           1     -22.028  -6.719  -4.034  0.00  0.00     0.045 C 
BRANCH   6   7
HETATM    7  C           1     -21.434  -6.099  -2.777  0.00  0.00     0.105 C 
BRANCH   7   8
HETATM    8  C           1     -21.488  -7.098  -1.648  0.00  0.00     0.215 C 
HETATM    9  O           1     -20.629  -7.942  -1.546  0.00  0.00    -0.274 OA
HETATM   10  N           1     -22.510  -7.050  -0.739  0.00  0.00    -0.370 N 
HETATM   11  H           1     -23.229  -6.344  -0.824  0.00  0.00     0.159 HD
HETATM   12  H           1     -22.546  -7.721   0.019  0.00  0.00     0.159 HD
ENDBRANCH   7   8
ENDBRANCH   6   7
ENDBRANCH   5   6
BRANCH   5  13
HETATM   13  C           1     -20.327  -8.060  -5.234  0.00  0.00     0.196 C 
HETATM   14  O           1     -20.855  -9.050  -4.682  0.00  0.00    -0.646 OA
HETATM   15  O           1     -19.251  -8.191  -5.856  0.00  0.00    -0.646 OA
ENDBRANCH   5  13
ENDBRANCH   4   5
BRANCH   3  16
HETATM   16  C           1     -22.303  -4.811  -8.207  0.00  0.00     0.278 C 
BRANCH  16  17
HETATM   17  C           1     -21.385  -3.944  -9.057  0.00  0.00     0.021 C 
HETATM   18  C           1     -20.125  -4.726  -9.405  0.00  0.00     0.012 C 
BRANCH  17  19
HETATM   19  C           1     -22.106  -3.549 -10.340  0.00  0.00     0.002 C 
HETATM   20  C           1     -21.120  -3.556 -11.500  0.00  0.00     0.005 C 
ENDBRANCH  17  19
ENDBRANCH  16  17
BRANCH  16  21
HETATM   21  N           1     -23.584  -4.075  -7.946  0.00  0.00    -0.066 N 
HETATM   22  H           1     -23.744  -4.011  -6.915  0.00  0.00     0.275 HD
HETATM   23  H           1     -23.523  -3.114  -8.350  0.00  0.00     0.275 HD
HETATM   24  H           1     -24.378  -4.590  -8.391  0.00  0.00     0.275 HD
ENDBRANCH  16  21
ENDBRANCH   3  16
TORSDOF 9
ENDMDL
MODEL 4
REMARK VINA RESULT:      -5.6     13.148     16.212
REMARK  9 active torsions:
REMARK  status: ('A' for Active; 'I' for Inactive)
REMARK    1  A    between atoms: C_1  and  C_2 
REMARK    2  A    between atoms: C_1  and  C_9 
REMARK    3  A    between atoms: C_2  and  C_3 
REMARK       I    between atoms: C_3  and  N_5 
REMARK    4  A    between atoms: C_7  and  C_20 
REMARK    5  A    between atoms: C_9  and  C_19 
REMARK    6  A    between atoms: C_9  and  N_16 
REMARK    7  A    between atoms: C_14  and  C_15 
REMARK    8  A    between atoms: C_14  and  C_20 
REMARK    9  A    between atoms: C_14  and  N_24 
REMARK       I    between atoms: C_15  and  N_16 
ROOT
HETATM    1  O           1     -21.992  -3.278  -7.509  0.00  0.00    -0.271 OA
HETATM    2  H           1     -22.839  -6.298  -7.430  0.00  0.00     0.163 HD
HETATM    3  C           1     -22.560  -4.290  -7.846  0.00  0.00     0.249 C 
HETATM    4  N           1     -22.362  -5.451  -7.148  0.00  0.00    -0.345 N 
ENDROOT
BRANCH   4   5
HETATM    5  C           1     -21.471  -5.466  -6.004  0.00  0.00     0.186 C 
BRANCH   5   6
HETATM    6  C           1     -21.837  -6.630  -5.093  0.00  0.00     0.045 C 
BRANCH   6   7
HETATM    7  C           1     -20.883  -6.665  -3.906  0.00  0.00     0.105 C 
BRANCH   7   8
HETATM    8  C           1     -21.668  -6.871  -2.634  0.00  0.00     0.215 C 
HETATM    9  O           1     -21.675  -7.953  -2.097  0.00  0.00    -0.274 OA
HETATM   10  N           1     -22.371  -5.832  -2.088  0.00  0.00    -0.370 N 
HETATM   11  H           1     -22.365  -4.925  -2.537  0.00  0.00     0.159 HD
HETATM   12  H           1     -22.898  -5.970  -1.234  0.00  0.00     0.159 HD
ENDBRANCH   7   8
ENDBRANCH   6   7
ENDBRANCH   5   6
BRANCH   5  13
HETATM   13  C           1     -20.047  -5.627  -6.479  0.00  0.00     0.196 C 
HETATM   14  O           1     -19.697  -6.679  -7.058  0.00  0.00    -0.646 OA
HETATM   15  O           1     -19.219  -4.709  -6.294  0.00  0.00    -0.646 OA
ENDBRANCH   5  13
ENDBRANCH   4   5
BRANCH   3  16
HETATM   16  C           1     -23.488  -4.273  -9.036  0.00  0.00     0.278 C 
BRANCH  16  17
HETATM   17  C           1     -22.703  -4.601 -10.299  0.00  0.00     0.021 C 
HETATM   18  C           1     -23.662  -5.067 -11.387  0.00  0.00     0.012 C 
BRANCH  17  19
HETATM   19  C           1     -21.965  -3.355 -10.773  0.00  0.00     0.002 C 
HETATM   20  C           1     -20.507  -3.702 -11.046  0.00  0.00     0.005 C 
ENDBRANCH  17  19
ENDBRANCH  16  17
BRANCH  16  21
HETATM   21  N           1     -24.103  -2.912  -9.170  0.00  0.00    -0.066 N 
HETATM   22  H           1     -23.365  -2.183  -9.036  0.00  0.00     0.275 HD
HETATM   23  H           1     -24.524  -2.810 -10.120  0.00  0.00     0.275 HD
HETATM   24  H           1     -24.846  -2.793  -8.445  0.00  0.00     0.275 HD
ENDBRANCH  16  21
ENDBRANCH   3  16
TORSDOF 9
ENDMDL
MODEL 5
REMARK VINA RESULT:      -5.5     13.274     15.460
REMARK  9 active torsions:
REMARK  status: ('A' for Active; 'I' for Inactive)
REMARK    1  A    between atoms: C_1  and  C_2 
REMARK    2  A    between atoms: C_1  and  C_9 
REMARK    3  A    between atoms: C_2  and  C_3 
REMARK       I    between atoms: C_3  and  N_5 
REMARK    4  A    between atoms: C_7  and  C_20 
REMARK    5  A    between atoms: C_9  and  C_19 
REMARK    6  A    between atoms: C_9  and  N_16 
REMARK    7  A    between atoms: C_14  and  C_15 
REMARK    8  A    between atoms: C_14  and  C_20 
REMARK    9  A    between atoms: C_14  and  N_24 
REMARK       I    between atoms: C_15  and  N_16 
ROOT
HETATM    1  O           1     -21.344  -7.481  -6.671  0.00  0.00    -0.271 OA
HETATM    2  H           1     -21.179  -4.441  -5.914  0.00  0.00     0.163 HD
HETATM    3  C           1     -21.228  -6.509  -5.962  0.00  0.00     0.249 C 
HETATM    4  N           1     -21.276  -5.254  -6.508  0.00  0.00    -0.345 N 
ENDROOT
BRANCH   4   5
HETATM    5  C           1     -21.465  -5.092  -7.937  0.00  0.00     0.186 C 
BRANCH   5   6
HETATM    6  C           1     -22.643  -4.161  -8.188  0.00  0.00     0.045 C 
BRANCH   6   7
HETATM    7  C           1     -23.562  -4.776  -9.236  0.00  0.00     0.105 C 
BRANCH   7   8
HETATM    8  C           1     -24.326  -3.682  -9.941  0.00  0.00     0.215 C 
HETATM    9  O           1     -23.756  -2.951 -10.715  0.00  0.00    -0.274 OA
HETATM   10  N           1     -25.663  -3.519  -9.704  0.00  0.00    -0.370 N 
HETATM   11  H           1     -26.141  -4.132  -9.056  0.00  0.00     0.159 HD
HETATM   12  H           1     -26.176  -2.785 -10.177  0.00  0.00     0.159 HD
ENDBRANCH   7   8
ENDBRANCH   6   7
ENDBRANCH   5   6
BRANCH   5  13
HETATM   13  C           1     -20.217  -4.500  -8.544  0.00  0.00     0.196 C 
HETATM   14  O           1     -19.194  -4.341  -7.842  0.00  0.00    -0.646 OA
HETATM   15  O           1     -20.205  -4.168  -9.750  0.00  0.00    -0.646 OA
ENDBRANCH   5  13
ENDBRANCH   4   5
BRANCH   3  16
HETATM   16  C           1     -21.032  -6.679  -4.476  0.00  0.00     0.278 C 
BRANCH  16  17
HETATM   17  C           1     -20.922  -8.161  -4.143  0.00  0.00     0.021 C 
HETATM   18  C           1     -19.466  -8.598  -4.247  0.00  0.00     0.012 C 
BRANCH  17  19
HETATM   19  C           1     -21.422  -8.399  -2.724  0.00  0.00     0.002 C 
HETATM   20  C           1     -20.299  -8.986  -1.881  0.00  0.00     0.005 C 
ENDBRANCH  17  19
ENDBRANCH  16  17
BRANCH  16  21
HETATM   21  N           1     -22.203  -6.090  -3.747  0.00  0.00    -0.066 N 
HETATM   22  H           1     -21.865  -5.357  -3.083  0.00  0.00     0.275 HD
HETATM   23  H           1     -22.862  -5.661  -4.433  0.00  0.00     0.275 HD
HETATM   24  H           1     -22.696  -6.842  -3.214  0.00  0.00     0.275 HD
ENDBRANCH  16  21
ENDBRANCH   3  16
TORSDOF 9
ENDMDL
MODEL 6
REMARK VINA RESULT:      -5.5     16.496     18.673
REMARK  9 active torsions:
REMARK  status: ('A' for Active; 'I' for Inactive)
REMARK    1  A    between atoms: C_1  and  C_2 
REMARK    2  A    between atoms: C_1  and  C_9 
REMARK    3  A    between atoms: C_2  and  C_3 
REMARK       I    between atoms: C_3  and  N_5 
REMARK    4  A    between atoms: C_7  and  C_20 
REMARK    5  A    between atoms: C_9  and  C_19 
REMARK    6  A    between atoms: C_9  and  N_16 
REMARK    7  A    between atoms: C_14  and  C_15 
REMARK    8  A    between atoms: C_14  and  C_20 
REMARK    9  A    between atoms: C_14  and  N_24 
REMARK       I    between atoms: C_15  and  N_16 
ROOT
HETATM    1  O           1     -20.581  -9.954  -0.019  0.00  0.00    -0.271 OA
HETATM    2  H           1     -22.438  -9.444  -2.495  0.00  0.00     0.163 HD
HETATM    3  C           1     -21.398 -10.201  -0.875  0.00  0.00     0.249 C 
HETATM    4  N           1     -21.755  -9.237  -1.779  0.00  0.00    -0.345 N 
ENDROOT
BRANCH   4   5
HETATM    5  C           1     -21.152  -7.920  -1.710  0.00  0.00     0.186 C 
BRANCH   5   6
HETATM    6  C           1     -20.549  -7.568  -3.063  0.00  0.00     0.045 C 
BRANCH   6   7
HETATM    7  C           1     -21.309  -8.296  -4.163  0.00  0.00     0.105 C 
BRANCH   7   8
HETATM    8  C           1     -21.695  -7.316  -5.243  0.00  0.00     0.215 C 
HETATM    9  O           1     -21.216  -7.416  -6.348  0.00  0.00    -0.274 OA
HETATM   10  N           1     -22.586  -6.314  -4.972  0.00  0.00    -0.370 N 
HETATM   11  H           1     -22.987  -6.231  -4.047  0.00  0.00     0.159 HD
HETATM   12  H           1     -22.845  -5.657  -5.697  0.00  0.00     0.159 HD
ENDBRANCH   7   8
ENDBRANCH   6   7
ENDBRANCH   5   6
BRANCH   5  13
HETATM   13  C           1     -22.208  -6.903  -1.350  0.00  0.00     0.196 C 
HETATM   14  O           1     -22.318  -5.853  -2.019  0.00  0.00    -0.646 OA
HETATM   15  O           1     -22.972  -7.111  -0.382  0.00  0.00    -0.646 OA
ENDBRANCH   5  13
ENDBRANCH   4   5
BRANCH   3  16
HETATM   16  C           1     -22.024 -11.572  -0.946  0.00  0.00     0.278 C 
BRANCH  16  17
HETATM   17  C           1     -22.996 -11.749   0.213  0.00  0.00     0.021 C 
HETATM   18  C           1     -24.251 -10.925  -0.046  0.00  0.00     0.012 C 
BRANCH  17  19
HETATM   19  C           1     -23.372 -13.220   0.337  0.00  0.00     0.002 C 
HETATM   20  C           1     -23.312 -13.637   1.801  0.00  0.00     0.005 C 
ENDBRANCH  17  19
ENDBRANCH  16  17
BRANCH  16  21
HETATM   21  N           1     -20.950 -12.616  -0.860  0.00  0.00    -0.066 N 
HETATM   22  H           1     -20.222 -12.427  -1.586  0.00  0.00     0.275 HD
HETATM   23  H           1     -20.511 -12.589   0.087  0.00  0.00     0.275 HD
HETATM   24  H           1     -21.369 -13.560  -1.023  0.00  0.00     0.275 HD
ENDBRANCH  16  21
ENDBRANCH   3  16
TORSDOF 9
ENDMDL
MODEL 7
REMARK VINA RESULT:      -5.5      1.589      2.058
REMARK  9 active torsions:
REMARK  status: ('A' for Active; 'I' for Inactive)
REMARK    1  A    between atoms: C_1  and  C_2 
REMARK    2  A    between atoms: C_1  and  C_9 
REMARK    3  A    between atoms: C_2  and  C_3 
REMARK       I    between atoms: C_3  and  N_5 
REMARK    4  A    between atoms: C_7  and  C_20 
REMARK    5  A    between atoms: C_9  and  C_19 
REMARK    6  A    between atoms: C_9  and  N_16 
REMARK    7  A    between atoms: C_14  and  C_15 
REMARK    8  A    between atoms: C_14  and  C_20 
REMARK    9  A    between atoms: C_14  and  N_24 
REMARK       I    between atoms: C_15  and  N_16 
ROOT
HETATM    1  O           1     -34.132  -1.408 -11.433  0.00  0.00    -0.271 OA
HETATM    2  H           1     -36.693  -2.160 -13.080  0.00  0.00     0.163 HD
HETATM    3  C           1     -34.892  -2.104 -12.064  0.00  0.00     0.249 C 
HETATM    4  N           1     -36.058  -1.577 -12.552  0.00  0.00    -0.345 N 
ENDROOT
BRANCH   4   5
HETATM    5  C           1     -36.380  -0.184 -12.312  0.00  0.00     0.186 C 
BRANCH   5   6
HETATM    6  C           1     -37.300   0.320 -13.415  0.00  0.00     0.045 C 
BRANCH   6   7
HETATM    7  C           1     -36.809  -0.194 -14.762  0.00  0.00     0.105 C 
BRANCH   7   8
HETATM    8  C           1     -35.779   0.757 -15.320  0.00  0.00     0.215 C 
HETATM    9  O           1     -34.605   0.480 -15.258  0.00  0.00    -0.274 OA
HETATM   10  N           1     -36.175   1.934 -15.895  0.00  0.00    -0.370 N 
HETATM   11  H           1     -37.159   2.166 -15.947  0.00  0.00     0.159 HD
HETATM   12  H           1     -35.484   2.572 -16.270  0.00  0.00     0.159 HD
ENDBRANCH   7   8
ENDBRANCH   6   7
ENDBRANCH   5   6
BRANCH   5  13
HETATM   13  C           1     -37.073  -0.051 -10.978  0.00  0.00     0.196 C 
HETATM   14  O           1     -38.047  -0.786 -10.704  0.00  0.00    -0.646 OA
HETATM   15  O           1     -36.674   0.793 -10.147  0.00  0.00    -0.646 OA
ENDBRANCH   5  13
ENDBRANCH   4   5
BRANCH   3  16
HETATM   16  C           1     -34.556  -3.553 -12.313  0.00  0.00     0.278 C 
BRANCH  16  17
HETATM   17  C           1     -33.450  -3.991 -11.362  0.00  0.00     0.021 C 
HETATM   18  C           1     -33.859  -5.283 -10.667  0.00  0.00     0.012 C 
BRANCH  17  19
HETATM   19  C           1     -32.167  -4.224 -12.150  0.00  0.00     0.002 C 
HETATM   20  C           1     -31.601  -5.594 -11.806  0.00  0.00     0.005 C 
ENDBRANCH  17  19
ENDBRANCH  16  17
BRANCH  16  21
HETATM   21  N           1     -34.091  -3.722 -13.729  0.00  0.00    -0.066 N 
HETATM   22  H           1     -34.393  -2.896 -14.294  0.00  0.00     0.275 HD
HETATM   23  H           1     -33.050  -3.795 -13.749  0.00  0.00     0.275 HD
HETATM   24  H           1     -34.509  -4.591 -14.132  0.00  0.00     0.275 HD
ENDBRANCH  16  21
ENDBRANCH   3  16
TORSDOF 9
ENDMDL
MODEL 8
REMARK VINA RESULT:      -5.4     14.797     17.847
REMARK  9 active torsions:
REMARK  status: ('A' for Active; 'I' for Inactive)
REMARK    1  A    between atoms: C_1  and  C_2 
REMARK    2  A    between atoms: C_1  and  C_9 
REMARK    3  A    between atoms: C_2  and  C_3 
REMARK       I    between atoms: C_3  and  N_5 
REMARK    4  A    between atoms: C_7  and  C_20 
REMARK    5  A    between atoms: C_9  and  C_19 
REMARK    6  A    between atoms: C_9  and  N_16 
REMARK    7  A    between atoms: C_14  and  C_15 
REMARK    8  A    between atoms: C_14  and  C_20 
REMARK    9  A    between atoms: C_14  and  N_24 
REMARK       I    between atoms: C_15  and  N_16 
ROOT
HETATM    1  O           1     -22.960  -5.635  -5.777  0.00  0.00    -0.271 OA
HETATM    2  H           1     -20.005  -6.425  -5.079  0.00  0.00     0.163 HD
HETATM    3  C           1     -21.753  -5.593  -5.811  0.00  0.00     0.249 C 
HETATM    4  N           1     -21.016  -6.461  -5.049  0.00  0.00    -0.345 N 
ENDROOT
BRANCH   4   5
HETATM    5  C           1     -21.685  -7.430  -4.203  0.00  0.00     0.186 C 
BRANCH   5   6
HETATM    6  C           1     -21.005  -8.784  -4.350  0.00  0.00     0.045 C 
BRANCH   6   7
HETATM    7  C           1     -19.646  -8.602  -5.012  0.00  0.00     0.105 C 
BRANCH   7   8
HETATM    8  C           1     -18.578  -9.231  -4.152  0.00  0.00     0.215 C 
HETATM    9  O           1     -17.566  -9.654  -4.659  0.00  0.00    -0.274 OA
HETATM   10  N           1     -18.755  -9.323  -2.798  0.00  0.00    -0.370 N 
HETATM   11  H           1     -19.602  -8.969  -2.373  0.00  0.00     0.159 HD
HETATM   12  H           1     -18.038  -9.746  -2.221  0.00  0.00     0.159 HD
ENDBRANCH   7   8
ENDBRANCH   6   7
ENDBRANCH   5   6
BRANCH   5  13
HETATM   13  C           1     -21.604  -6.980  -2.764  0.00  0.00     0.196 C 
HETATM   14  O           1     -22.059  -5.864  -2.432  0.00  0.00    -0.646 OA
HETATM   15  O           1     -21.082  -7.723  -1.905  0.00  0.00    -0.646 OA
ENDBRANCH   5  13
ENDBRANCH   4   5
BRANCH   3  16
HETATM   16  C           1     -21.058  -4.585  -6.692  0.00  0.00     0.278 C 
BRANCH  16  17
HETATM   17  C           1     -21.322  -4.919  -8.154  0.00  0.00     0.021 C 
HETATM   18  C           1     -22.424  -4.015  -8.691  0.00  0.00     0.012 C 
BRANCH  17  19
HETATM   19  C           1     -20.048  -4.699  -8.961  0.00  0.00     0.002 C 
HETATM   20  C           1     -20.409  -4.426 -10.415  0.00  0.00     0.005 C 
ENDBRANCH  17  19
ENDBRANCH  16  17
BRANCH  16  21
HETATM   21  N           1     -19.582  -4.625  -6.430  0.00  0.00    -0.066 N 
HETATM   22  H           1     -19.070  -4.271  -7.270  0.00  0.00     0.275 HD
HETATM   23  H           1     -19.357  -4.024  -5.606  0.00  0.00     0.275 HD
HETATM   24  H           1     -19.290  -5.609  -6.232  0.00  0.00     0.275 HD
ENDBRANCH  16  21
ENDBRANCH   3  16
TORSDOF 9
ENDMDL
MODEL 9
REMARK VINA RESULT:      -5.3     14.879     17.549
REMARK  9 active torsions:
REMARK  status: ('A' for Active; 'I' for Inactive)
REMARK    1  A    between atoms: C_1  and  C_2 
REMARK    2  A    between atoms: C_1  and  C_9 
REMARK    3  A    between atoms: C_2  and  C_3 
REMARK       I    between atoms: C_3  and  N_5 
REMARK    4  A    between atoms: C_7  and  C_20 
REMARK    5  A    between atoms: C_9  and  C_19 
REMARK    6  A    between atoms: C_9  and  N_16 
REMARK    7  A    between atoms: C_14  and  C_15 
REMARK    8  A    between atoms: C_14  and  C_20 
REMARK    9  A    between atoms: C_14  and  N_24 
REMARK       I    between atoms: C_15  and  N_16 
ROOT
HETATM    1  O           1     -22.871  -5.672  -5.770  0.00  0.00    -0.271 OA
HETATM    2  H           1     -19.912  -6.279  -4.924  0.00  0.00     0.163 HD
HETATM    3  C           1     -21.667  -5.569  -5.758  0.00  0.00     0.249 C 
HETATM    4  N           1     -20.920  -6.366  -4.933  0.00  0.00    -0.345 N 
ENDROOT
BRANCH   4   5
HETATM    5  C           1     -21.573  -7.334  -4.074  0.00  0.00     0.186 C 
BRANCH   5   6
HETATM    6  C           1     -20.798  -8.645  -4.108  0.00  0.00     0.045 C 
BRANCH   6   7
HETATM    7  C           1     -21.773  -9.808  -4.234  0.00  0.00     0.105 C 
BRANCH   7   8
HETATM    8  C           1     -21.884 -10.518  -2.907  0.00  0.00     0.215 C 
HETATM    9  O           1     -22.814 -11.260  -2.696  0.00  0.00    -0.274 OA
HETATM   10  N           1     -20.933 -10.321  -1.944  0.00  0.00    -0.370 N 
HETATM   11  H           1     -20.155  -9.700  -2.121  0.00  0.00     0.159 HD
HETATM   12  H           1     -21.008 -10.798  -1.053  0.00  0.00     0.159 HD
ENDBRANCH   7   8
ENDBRANCH   6   7
ENDBRANCH   5   6
BRANCH   5  13
HETATM   13  C           1     -21.609  -6.807  -2.660  0.00  0.00     0.196 C 
HETATM   14  O           1     -20.840  -7.282  -1.796  0.00  0.00    -0.646 OA
HETATM   15  O           1     -22.407  -5.896  -2.353  0.00  0.00    -0.646 OA
ENDBRANCH   5  13
ENDBRANCH   4   5
BRANCH   3  16
HETATM   16  C           1     -20.989  -4.561  -6.653  0.00  0.00     0.278 C 
BRANCH  16  17
HETATM   17  C           1     -21.350  -4.843  -8.105  0.00  0.00     0.021 C 
HETATM   18  C           1     -22.350  -3.802  -8.591  0.00  0.00     0.012 C 
BRANCH  17  19
HETATM   19  C           1     -20.093  -4.778  -8.962  0.00  0.00     0.002 C 
HETATM   20  C           1     -20.462  -4.343 -10.374  0.00  0.00     0.005 C 
ENDBRANCH  17  19
ENDBRANCH  16  17
BRANCH  16  21
HETATM   21  N           1     -19.502  -4.662  -6.481  0.00  0.00    -0.066 N 
HETATM   22  H           1     -19.111  -5.304  -7.207  0.00  0.00     0.275 HD
HETATM   23  H           1     -19.073  -3.715  -6.586  0.00  0.00     0.275 HD
HETATM   24  H           1     -19.286  -5.038  -5.530  0.00  0.00     0.275 HD
ENDBRANCH  16  21
ENDBRANCH   3  16
TORSDOF 9
ENDMDL
