MODEL 1
REMARK VINA RESULT:      -7.4      0.000      0.000
REMARK  11 active torsions:
REMARK  status: ('A' for Active; 'I' for Inactive)
REMARK    1  A    between atoms: C_2  and  O_3 
REMARK    2  A    between atoms: N_11  and  C_18 
REMARK    3  A    between atoms: O_14  and  P_15 
REMARK    4  A    between atoms: P_15  and  O_16 
REMARK    5  A    between atoms: O_16  and  C_17 
REMARK    6  A    between atoms: C_17  and  C_18 
REMARK    7  A    between atoms: C_18  and  C_19 
REMARK       I    between atoms: C_19  and  N_20 
REMARK    8  A    between atoms: N_20  and  C_24 
REMARK    9  A    between atoms: C_23  and  C_24 
REMARK   10  A    between atoms: C_24  and  C_25 
REMARK   11  A    between atoms: C_25  and  C_28 
ROOT
HETATM    1  H           1     -20.953  -4.433  -4.697  0.00  0.00     0.163 HD
HETATM    2  O           1     -21.460  -7.505  -5.080  0.00  0.00    -0.271 OA
HETATM    3  C           1     -21.292  -6.464  -4.491  0.00  0.00     0.251 C 
HETATM    4  N           1     -21.094  -5.305  -5.192  0.00  0.00    -0.344 N 
ENDROOT
BRANCH   4   5
HETATM    5  C           1     -21.086  -5.327  -6.641  0.00  0.00     0.189 C 
BRANCH   5   6
HETATM    6  C           1     -19.675  -5.538  -7.133  0.00  0.00     0.197 C 
HETATM    7  O           1     -18.889  -4.569  -7.212  0.00  0.00    -0.646 OA
HETATM    8  O           1     -19.291  -6.682  -7.459  0.00  0.00    -0.646 OA
ENDBRANCH   5   6
BRANCH   5   9
HETATM    9  C           1     -21.616  -4.001  -7.171  0.00  0.00     0.074 C 
BRANCH   9  10
HETATM   10  C           1     -22.152  -4.195  -8.556  0.00  0.00    -0.056 A 
HETATM   11  C           1     -23.518  -4.387  -8.754  0.00  0.00     0.010 A 
HETATM   12  C           1     -24.018  -4.568 -10.044  0.00  0.00     0.037 A 
HETATM   13  C           1     -23.149  -4.555 -11.136  0.00  0.00     0.065 A 
HETATM   14  C           1     -21.782  -4.363 -10.937  0.00  0.00     0.037 A 
HETATM   15  C           1     -21.283  -4.183  -9.647  0.00  0.00     0.010 A 
BRANCH  13  16
HETATM   16  O           1     -23.634  -4.731 -12.389  0.00  0.00    -0.361 OA
HETATM   17  H           1     -24.489  -5.187 -12.319  0.00  0.00     0.217 HD
ENDBRANCH  13  16
ENDBRANCH   9  10
ENDBRANCH   5   9
ENDBRANCH   4   5
BRANCH   3  18
HETATM   18  C           1     -21.301  -6.442  -2.982  0.00  0.00     0.298 C 
BRANCH  18  19
HETATM   19  N           1     -22.597  -5.864  -2.498  0.00  0.00    -0.064 N 
HETATM   20  H           1     -22.659  -4.859  -2.781  0.00  0.00     0.275 HD
HETATM   21  H           1     -22.644  -5.937  -1.457  0.00  0.00     0.275 HD
HETATM   22  H           1     -23.394  -6.393  -2.920  0.00  0.00     0.275 HD
ENDBRANCH  18  19
BRANCH  18  23
HETATM   23  C           1     -21.149  -7.862  -2.452  0.00  0.00     0.224 C 
BRANCH  23  24
HETATM   24  O           1     -20.809  -7.820  -1.092  0.00  0.00    -0.287 OA
BRANCH  24  25
HETATM   25  P           1     -21.912  -8.405  -0.069  0.00  0.00     0.406 P 
HETATM   26  O           1     -22.359  -9.737  -0.534  0.00  0.00    -0.624 OA
HETATM   27  O           1     -21.316  -8.527   1.280  0.00  0.00    -0.624 OA
BRANCH  25  28
HETATM   28  O           1     -23.177  -7.403  -0.010  0.00  0.00    -0.300 OA
HETATM   29  H           1     -22.972  -6.791   0.677  0.00  0.00     0.223 HD
ENDBRANCH  25  28
ENDBRANCH  24  25
ENDBRANCH  23  24
ENDBRANCH  18  23
ENDBRANCH   3  18
TORSDOF 11
ENDMDL
MODEL 2
REMARK VINA RESULT:      -7.0      3.188      8.057
REMARK  11 active torsions:
REMARK  status: ('A' for Active; 'I' for Inactive)
REMARK    1  A    between atoms: C_2  and  O_3 
REMARK    2  A    between atoms: N_11  and  C_18 
REMARK    3  A    between atoms: O_14  and  P_15 
REMARK    4  A    between atoms: P_15  and  O_16 
REMARK    5  A    between atoms: O_16  and  C_17 
REMARK    6  A    between atoms: C_17  and  C_18 
REMARK    7  A    between atoms: C_18  and  C_19 
REMARK       I    between atoms: C_19  and  N_20 
REMARK    8  A    between atoms: N_20  and  C_24 
REMARK    9  A    between atoms: C_23  and  C_24 
REMARK   10  A    between atoms: C_24  and  C_25 
REMARK   11  A    between atoms: C_25  and  C_28 
ROOT
HETATM    1  H           1     -20.309  -7.206  -7.025  0.00  0.00     0.163 HD
HETATM    2  O           1     -20.387  -4.865  -4.937  0.00  0.00    -0.271 OA
HETATM    3  C           1     -20.415  -5.400  -6.020  0.00  0.00     0.251 C 
HETATM    4  N           1     -20.286  -6.759  -6.117  0.00  0.00    -0.344 N 
ENDROOT
BRANCH   4   5
HETATM    5  C           1     -20.115  -7.558  -4.919  0.00  0.00     0.189 C 
BRANCH   5   6
HETATM    6  C           1     -19.059  -8.608  -5.161  0.00  0.00     0.197 C 
HETATM    7  O           1     -18.594  -8.773  -6.310  0.00  0.00    -0.646 OA
HETATM    8  O           1     -18.648  -9.311  -4.213  0.00  0.00    -0.646 OA
ENDBRANCH   5   6
BRANCH   5   9
HETATM    9  C           1     -21.434  -8.234  -4.569  0.00  0.00     0.074 C 
BRANCH   9  10
HETATM   10  C           1     -21.680  -8.117  -3.097  0.00  0.00    -0.056 A 
HETATM   11  C           1     -21.657  -9.256  -2.293  0.00  0.00     0.010 A 
HETATM   12  C           1     -21.885  -9.147  -0.921  0.00  0.00     0.037 A 
HETATM   13  C           1     -22.137  -7.897  -0.354  0.00  0.00     0.065 A 
HETATM   14  C           1     -22.161  -6.758  -1.158  0.00  0.00     0.037 A 
HETATM   15  C           1     -21.932  -6.868  -2.530  0.00  0.00     0.010 A 
BRANCH  13  16
HETATM   16  O           1     -22.359  -7.791   0.979  0.00  0.00    -0.361 OA
HETATM   17  H           1     -22.294  -6.853   1.221  0.00  0.00     0.217 HD
ENDBRANCH  13  16
ENDBRANCH   9  10
ENDBRANCH   5   9
ENDBRANCH   4   5
BRANCH   3  18
HETATM   18  C           1     -20.592  -4.568  -7.267  0.00  0.00     0.298 C 
BRANCH  18  19
HETATM   19  N           1     -19.299  -4.523  -8.026  0.00  0.00    -0.064 N 
HETATM   20  H           1     -19.227  -5.365  -8.642  0.00  0.00     0.275 HD
HETATM   21  H           1     -18.500  -4.516  -7.352  0.00  0.00     0.275 HD
HETATM   22  H           1     -19.268  -3.659  -8.612  0.00  0.00     0.275 HD
ENDBRANCH  18  19
BRANCH  18  23
HETATM   23  C           1     -21.672  -5.190  -8.143  0.00  0.00     0.224 C 
BRANCH  23  24
HETATM   24  O           1     -21.804  -4.446  -9.324  0.00  0.00    -0.287 OA
BRANCH  24  25
HETATM   25  P           1     -23.315  -4.136  -9.801  0.00  0.00     0.406 P 
HETATM   26  O           1     -23.304  -3.026 -10.780  0.00  0.00    -0.624 OA
HETATM   27  O           1     -23.891  -5.344 -10.430  0.00  0.00    -0.624 OA
BRANCH  25  28
HETATM   28  O           1     -24.207  -3.716  -8.522  0.00  0.00    -0.300 OA
HETATM   29  H           1     -24.975  -4.262  -8.571  0.00  0.00     0.223 HD
ENDBRANCH  25  28
ENDBRANCH  24  25
ENDBRANCH  23  24
ENDBRANCH  18  23
ENDBRANCH   3  18
TORSDOF 11
ENDMDL
MODEL 3
REMARK VINA RESULT:      -7.0      1.505      1.913
REMARK  11 active torsions:
REMARK  status: ('A' for Active; 'I' for Inactive)
REMARK    1  A    between atoms: C_2  and  O_3 
REMARK    2  A    between atoms: N_11  and  C_18 
REMARK    3  A    between atoms: O_14  and  P_15 
REMARK    4  A    between atoms: P_15  and  O_16 
REMARK    5  A    between atoms: O_16  and  C_17 
REMARK    6  A    between atoms: C_17  and  C_18 
REMARK    7  A    between atoms: C_18  and  C_19 
REMARK       I    between atoms: C_19  and  N_20 
REMARK    8  A    between atoms: N_20  and  C_24 
REMARK    9  A    between atoms: C_23  and  C_24 
REMARK   10  A    between atoms: C_24  and  C_25 
REMARK   11  A    between atoms: C_25  and  C_28 
ROOT
HETATM    1  H           1     -22.533  -6.005  -5.257  0.00  0.00     0.163 HD
HETATM    2  O           1     -20.158  -7.914  -6.004  0.00  0.00    -0.271 OA
HETATM    3  C           1     -21.143  -7.530  -5.421  0.00  0.00     0.251 C 
HETATM    4  N           1     -21.707  -6.326  -5.747  0.00  0.00    -0.344 N 
ENDROOT
BRANCH   4   5
HETATM    5  C           1     -21.120  -5.511  -6.793  0.00  0.00     0.189 C 
BRANCH   5   6
HETATM    6  C           1     -19.905  -4.799  -6.253  0.00  0.00     0.197 C 
HETATM    7  O           1     -18.887  -4.671  -6.968  0.00  0.00    -0.646 OA
HETATM    8  O           1     -19.915  -4.337  -5.091  0.00  0.00    -0.646 OA
ENDBRANCH   5   6
BRANCH   5   9
HETATM    9  C           1     -22.141  -4.485  -7.269  0.00  0.00     0.074 C 
BRANCH   9  10
HETATM   10  C           1     -22.050  -4.344  -8.756  0.00  0.00    -0.056 A 
HETATM   11  C           1     -20.834  -4.018  -9.353  0.00  0.00     0.010 A 
HETATM   12  C           1     -20.749  -3.886 -10.740  0.00  0.00     0.037 A 
HETATM   13  C           1     -21.883  -4.082 -11.528  0.00  0.00     0.065 A 
HETATM   14  C           1     -23.101  -4.408 -10.931  0.00  0.00     0.037 A 
HETATM   15  C           1     -23.184  -4.539  -9.545  0.00  0.00     0.010 A 
BRANCH  13  16
HETATM   16  O           1     -21.801  -3.954 -12.875  0.00  0.00    -0.361 OA
HETATM   17  H           1     -21.624  -4.833 -13.250  0.00  0.00     0.217 HD
ENDBRANCH  13  16
ENDBRANCH   9  10
ENDBRANCH   5   9
ENDBRANCH   4   5
BRANCH   3  18
HETATM   18  C           1     -21.754  -8.378  -4.332  0.00  0.00     0.298 C 
BRANCH  18  19
HETATM   19  N           1     -21.322  -9.804  -4.507  0.00  0.00    -0.064 N 
HETATM   20  H           1     -22.165 -10.418  -4.577  0.00  0.00     0.275 HD
HETATM   21  H           1     -20.745 -10.096  -3.686  0.00  0.00     0.275 HD
HETATM   22  H           1     -20.754  -9.892  -5.380  0.00  0.00     0.275 HD
ENDBRANCH  18  19
BRANCH  18  23
HETATM   23  C           1     -21.289  -7.871  -2.972  0.00  0.00     0.224 C 
BRANCH  23  24
HETATM   24  O           1     -21.532  -8.850  -1.999  0.00  0.00    -0.287 OA
BRANCH  24  25
HETATM   25  P           1     -22.126  -8.321  -0.594  0.00  0.00     0.406 P 
HETATM   26  O           1     -23.186  -9.243  -0.128  0.00  0.00    -0.624 OA
HETATM   27  O           1     -21.041  -8.266   0.410  0.00  0.00    -0.624 OA
BRANCH  25  28
HETATM   28  O           1     -22.748  -6.844  -0.795  0.00  0.00    -0.300 OA
HETATM   29  H           1     -22.064  -6.345  -1.209  0.00  0.00     0.223 HD
ENDBRANCH  25  28
ENDBRANCH  24  25
ENDBRANCH  23  24
ENDBRANCH  18  23
ENDBRANCH   3  18
TORSDOF 11
ENDMDL
MODEL 4
REMARK VINA RESULT:      -6.7      4.369      8.754
REMARK  11 active torsions:
REMARK  status: ('A' for Active; 'I' for Inactive)
REMARK    1  A    between atoms: C_2  and  O_3 
REMARK    2  A    between atoms: N_11  and  C_18 
REMARK    3  A    between atoms: O_14  and  P_15 
REMARK    4  A    between atoms: P_15  and  O_16 
REMARK    5  A    between atoms: O_16  and  C_17 
REMARK    6  A    between atoms: C_17  and  C_18 
REMARK    7  A    between atoms: C_18  and  C_19 
REMARK       I    between atoms: C_19  and  N_20 
REMARK    8  A    between atoms: N_20  and  C_24 
REMARK    9  A    between atoms: C_23  and  C_24 
REMARK   10  A    between atoms: C_24  and  C_25 
REMARK   11  A    between atoms: C_25  and  C_28 
ROOT
HETATM    1  H           1     -20.127  -7.735  -2.711  0.00  0.00     0.163 HD
HETATM    2  O           1     -22.065  -9.997  -3.695  0.00  0.00    -0.271 OA
HETATM    3  C           1     -21.113  -9.254  -3.712  0.00  0.00     0.251 C 
HETATM    4  N           1     -20.926  -8.357  -2.695  0.00  0.00    -0.344 N 
ENDROOT
BRANCH   4   5
HETATM    5  C           1     -21.870  -8.299  -1.597  0.00  0.00     0.189 C 
BRANCH   5   6
HETATM    6  C           1     -22.268  -6.864  -1.352  0.00  0.00     0.197 C 
HETATM    7  O           1     -22.284  -6.049  -2.300  0.00  0.00    -0.646 OA
HETATM    8  O           1     -22.582  -6.490  -0.201  0.00  0.00    -0.646 OA
ENDBRANCH   5   6
BRANCH   5   9
HETATM    9  C           1     -21.225  -8.870  -0.341  0.00  0.00     0.074 C 
BRANCH   9  10
HETATM   10  C           1     -21.854 -10.187  -0.011  0.00  0.00    -0.056 A 
HETATM   11  C           1     -21.096 -11.192   0.589  0.00  0.00     0.010 A 
HETATM   12  C           1     -21.683 -12.419   0.897  0.00  0.00     0.037 A 
HETATM   13  C           1     -23.028 -12.641   0.604  0.00  0.00     0.065 A 
HETATM   14  C           1     -23.787 -11.636   0.003  0.00  0.00     0.037 A 
HETATM   15  C           1     -23.200 -10.409  -0.304  0.00  0.00     0.010 A 
BRANCH  13  16
HETATM   16  O           1     -23.598 -13.834   0.903  0.00  0.00    -0.361 OA
HETATM   17  H           1     -22.969 -14.535   0.668  0.00  0.00     0.217 HD
ENDBRANCH  13  16
ENDBRANCH   9  10
ENDBRANCH   5   9
ENDBRANCH   4   5
BRANCH   3  18
HETATM   18  C           1     -20.129  -9.315  -4.855  0.00  0.00     0.298 C 
BRANCH  18  19
HETATM   19  N           1     -20.705 -10.141  -5.967  0.00  0.00    -0.064 N 
HETATM   20  H           1     -20.502  -9.681  -6.884  0.00  0.00     0.275 HD
HETATM   21  H           1     -21.739 -10.223  -5.839  0.00  0.00     0.275 HD
HETATM   22  H           1     -20.276 -11.093  -5.953  0.00  0.00     0.275 HD
ENDBRANCH  18  19
BRANCH  18  23
HETATM   23  C           1     -19.852  -7.905  -5.362  0.00  0.00     0.224 C 
BRANCH  23  24
HETATM   24  O           1     -20.910  -7.485  -6.181  0.00  0.00    -0.287 OA
BRANCH  24  25
HETATM   25  P           1     -21.486  -6.006  -5.890  0.00  0.00     0.406 P 
HETATM   26  O           1     -20.502  -5.242  -5.089  0.00  0.00    -0.624 OA
HETATM   27  O           1     -21.725  -5.309  -7.173  0.00  0.00    -0.624 OA
BRANCH  25  28
HETATM   28  O           1     -22.873  -6.118  -5.071  0.00  0.00    -0.300 OA
HETATM   29  H           1     -23.541  -6.200  -5.732  0.00  0.00     0.223 HD
ENDBRANCH  25  28
ENDBRANCH  24  25
ENDBRANCH  23  24
ENDBRANCH  18  23
ENDBRANCH   3  18
TORSDOF 11
ENDMDL
MODEL 5
REMARK VINA RESULT:      -6.3      2.638      4.144
REMARK  11 active torsions:
REMARK  status: ('A' for Active; 'I' for Inactive)
REMARK    1  A    between atoms: C_2  and  O_3 
REMARK    2  A    between atoms: N_11  and  C_18 
REMARK    3  A    between atoms: O_14  and  P_15 
REMARK    4  A    between atoms: P_15  and  O_16 
REMARK    5  A    between atoms: O_16  and  C_17 
REMARK    6  A    between atoms: C_17  and  C_18 
REMARK    7  A    between atoms: C_18  and  C_19 
REMARK       I    between atoms: C_19  and  N_20 
REMARK    8  A    between atoms: N_20  and  C_24 
REMARK    9  A    between atoms: C_23  and  C_24 
REMARK   10  A    between atoms: C_24  and  C_25 
REMARK   11  A    between atoms: C_25  and  C_28 
ROOT
HETATM    1  H           1     -22.555  -8.947  -4.067  0.00  0.00     0.163 HD
HETATM    2  O           1     -19.774  -8.924  -5.519  0.00  0.00    -0.271 OA
HETATM    3  C           1     -20.803  -9.380  -5.081  0.00  0.00     0.251 C 
HETATM    4  N           1     -21.693  -8.564  -4.433  0.00  0.00    -0.344 N 
ENDROOT
BRANCH   4   5
HETATM    5  C           1     -21.399  -7.154  -4.273  0.00  0.00     0.189 C 
BRANCH   5   6
HETATM    6  C           1     -21.446  -6.794  -2.809  0.00  0.00     0.197 C 
HETATM    7  O           1     -20.743  -7.423  -1.988  0.00  0.00    -0.646 OA
HETATM    8  O           1     -22.185  -5.866  -2.416  0.00  0.00    -0.646 OA
ENDBRANCH   5   6
BRANCH   5   9
HETATM    9  C           1     -22.432  -6.332  -5.033  0.00  0.00     0.074 C 
BRANCH   9  10
HETATM   10  C           1     -21.766  -5.619  -6.168  0.00  0.00    -0.056 A 
HETATM   11  C           1     -20.398  -5.777  -6.386  0.00  0.00     0.010 A 
HETATM   12  C           1     -19.777  -5.113  -7.444  0.00  0.00     0.037 A 
HETATM   13  C           1     -20.526  -4.291  -8.285  0.00  0.00     0.065 A 
HETATM   14  C           1     -21.895  -4.131  -8.068  0.00  0.00     0.037 A 
HETATM   15  C           1     -22.515  -4.796  -7.010  0.00  0.00     0.010 A 
BRANCH  13  16
HETATM   16  O           1     -19.924  -3.645  -9.313  0.00  0.00    -0.361 OA
HETATM   17  H           1     -19.434  -4.303  -9.835  0.00  0.00     0.217 HD
ENDBRANCH  13  16
ENDBRANCH   9  10
ENDBRANCH   5   9
ENDBRANCH   4   5
BRANCH   3  18
HETATM   18  C           1     -21.109 -10.848  -5.247  0.00  0.00     0.298 C 
BRANCH  18  19
HETATM   19  N           1     -20.580 -11.322  -6.568  0.00  0.00    -0.064 N 
HETATM   20  H           1     -20.431 -10.502  -7.199  0.00  0.00     0.275 HD
HETATM   21  H           1     -21.268 -11.977  -7.004  0.00  0.00     0.275 HD
HETATM   22  H           1     -19.672 -11.819  -6.422  0.00  0.00     0.275 HD
ENDBRANCH  18  19
BRANCH  18  23
HETATM   23  C           1     -20.447 -11.635  -4.123  0.00  0.00     0.224 C 
BRANCH  23  24
HETATM   24  O           1     -20.266 -10.802  -3.011  0.00  0.00    -0.287 OA
BRANCH  24  25
HETATM   25  P           1     -21.209 -11.108  -1.737  0.00  0.00     0.406 P 
HETATM   26  O           1     -21.807 -12.455  -1.878  0.00  0.00    -0.624 OA
HETATM   27  O           1     -20.399 -11.055  -0.500  0.00  0.00    -0.624 OA
BRANCH  25  28
HETATM   28  O           1     -22.384 -10.003  -1.658  0.00  0.00    -0.300 OA
HETATM   29  H           1     -21.944  -9.192  -1.467  0.00  0.00     0.223 HD
ENDBRANCH  25  28
ENDBRANCH  24  25
ENDBRANCH  23  24
ENDBRANCH  18  23
ENDBRANCH   3  18
TORSDOF 11
ENDMDL
MODEL 6
REMARK VINA RESULT:      -6.1      3.425      8.215
REMARK  11 active torsions:
REMARK  status: ('A' for Active; 'I' for Inactive)
REMARK    1  A    between atoms: C_2  and  O_3 
REMARK    2  A    between atoms: N_11  and  C_18 
REMARK    3  A    between atoms: O_14  and  P_15 
REMARK    4  A    between atoms: P_15  and  O_16 
REMARK    5  A    between atoms: O_16  and  C_17 
REMARK    6  A    between atoms: C_17  and  C_18 
REMARK    7  A    between atoms: C_18  and  C_19 
REMARK       I    between atoms: C_19  and  N_20 
REMARK    8  A    between atoms: N_20  and  C_24 
REMARK    9  A    between atoms: C_23  and  C_24 
REMARK   10  A    between atoms: C_24  and  C_25 
REMARK   11  A    between atoms: C_25  and  C_28 
ROOT
HETATM    1  H           1     -21.626  -8.297  -3.647  0.00  0.00     0.163 HD
HETATM    2  O           1     -19.527  -7.942  -5.951  0.00  0.00    -0.271 OA
HETATM    3  C           1     -20.542  -7.754  -5.324  0.00  0.00     0.251 C 
HETATM    4  N           1     -20.775  -8.456  -4.172  0.00  0.00    -0.344 N 
ENDROOT
BRANCH   4   5
HETATM    5  C           1     -19.805  -9.426  -3.704  0.00  0.00     0.189 C 
BRANCH   5   6
HETATM    6  C           1     -20.426 -10.801  -3.709  0.00  0.00     0.197 C 
HETATM    7  O           1     -21.620 -10.946  -4.049  0.00  0.00    -0.646 OA
HETATM    8  O           1     -19.747 -11.795  -3.373  0.00  0.00    -0.646 OA
ENDBRANCH   5   6
BRANCH   5   9
HETATM    9  C           1     -19.371  -9.068  -2.289  0.00  0.00     0.074 C 
BRANCH   9  10
HETATM   10  C           1     -20.573  -8.694  -1.478  0.00  0.00    -0.056 A 
HETATM   11  C           1     -21.073  -7.394  -1.530  0.00  0.00     0.010 A 
HETATM   12  C           1     -22.193  -7.046  -0.775  0.00  0.00     0.037 A 
HETATM   13  C           1     -22.812  -8.000   0.033  0.00  0.00     0.065 A 
HETATM   14  C           1     -22.311  -9.301   0.086  0.00  0.00     0.037 A 
HETATM   15  C           1     -21.192  -9.648  -0.670  0.00  0.00     0.010 A 
BRANCH  13  16
HETATM   16  O           1     -23.900  -7.662   0.767  0.00  0.00    -0.361 OA
HETATM   17  H           1     -24.086  -8.392   1.382  0.00  0.00     0.217 HD
ENDBRANCH  13  16
ENDBRANCH   9  10
ENDBRANCH   5   9
ENDBRANCH   4   5
BRANCH   3  18
HETATM   18  C           1     -21.552  -6.744  -5.810  0.00  0.00     0.298 C 
BRANCH  18  19
HETATM   19  N           1     -22.319  -6.202  -4.641  0.00  0.00    -0.064 N 
HETATM   20  H           1     -22.585  -5.208  -4.829  0.00  0.00     0.275 HD
HETATM   21  H           1     -21.724  -6.247  -3.783  0.00  0.00     0.275 HD
HETATM   22  H           1     -23.183  -6.771  -4.496  0.00  0.00     0.275 HD
ENDBRANCH  18  19
BRANCH  18  23
HETATM   23  C           1     -20.831  -5.603  -6.516  0.00  0.00     0.224 C 
BRANCH  23  24
HETATM   24  O           1     -21.007  -5.723  -7.901  0.00  0.00    -0.287 OA
BRANCH  24  25
HETATM   25  P           1     -21.613  -4.429  -8.653  0.00  0.00     0.406 P 
HETATM   26  O           1     -20.557  -3.797  -9.475  0.00  0.00    -0.624 OA
HETATM   27  O           1     -22.734  -4.845  -9.524  0.00  0.00    -0.624 OA
BRANCH  25  28
HETATM   28  O           1     -22.147  -3.370  -7.557  0.00  0.00    -0.300 OA
HETATM   29  H           1     -22.874  -3.799  -7.137  0.00  0.00     0.223 HD
ENDBRANCH  25  28
ENDBRANCH  24  25
ENDBRANCH  23  24
ENDBRANCH  18  23
ENDBRANCH   3  18
TORSDOF 11
ENDMDL
MODEL 7
REMARK VINA RESULT:      -6.0      5.522      8.547
REMARK  11 active torsions:
REMARK  status: ('A' for Active; 'I' for Inactive)
REMARK    1  A    between atoms: C_2  and  O_3 
REMARK    2  A    between atoms: N_11  and  C_18 
REMARK    3  A    between atoms: O_14  and  P_15 
REMARK    4  A    between atoms: P_15  and  O_16 
REMARK    5  A    between atoms: O_16  and  C_17 
REMARK    6  A    between atoms: C_17  and  C_18 
REMARK    7  A    between atoms: C_18  and  C_19 
REMARK       I    between atoms: C_19  and  N_20 
REMARK    8  A    between atoms: N_20  and  C_24 
REMARK    9  A    between atoms: C_23  and  C_24 
REMARK   10  A    between atoms: C_24  and  C_25 
REMARK   11  A    between atoms: C_25  and  C_28 
ROOT
HETATM    1  H           1     -19.862  -8.003  -3.112  0.00  0.00     0.163 HD
HETATM    2  O           1     -22.084 -10.029  -4.007  0.00  0.00    -0.271 OA
HETATM    3  C           1     -21.024  -9.449  -4.029  0.00  0.00     0.251 C 
HETATM    4  N           1     -20.750  -8.488  -3.093  0.00  0.00    -0.344 N 
ENDROOT
BRANCH   4   5
HETATM    5  C           1     -21.731  -8.166  -2.076  0.00  0.00     0.189 C 
BRANCH   5   6
HETATM    6  C           1     -22.008  -6.683  -2.096  0.00  0.00     0.197 C 
HETATM    7  O           1     -21.792  -6.021  -3.134  0.00  0.00    -0.646 OA
HETATM    8  O           1     -22.453  -6.116  -1.075  0.00  0.00    -0.646 OA
ENDBRANCH   5   6
BRANCH   5   9
HETATM    9  C           1     -21.193  -8.565  -0.708  0.00  0.00     0.074 C 
BRANCH   9  10
HETATM   10  C           1     -21.812  -9.862  -0.287  0.00  0.00    -0.056 A 
HETATM   11  C           1     -23.176 -10.078  -0.475  0.00  0.00     0.010 A 
HETATM   12  C           1     -23.753 -11.286  -0.083  0.00  0.00     0.037 A 
HETATM   13  C           1     -22.963 -12.279   0.497  0.00  0.00     0.065 A 
HETATM   14  C           1     -21.597 -12.063   0.686  0.00  0.00     0.037 A 
HETATM   15  C           1     -21.022 -10.854   0.293  0.00  0.00     0.010 A 
BRANCH  13  16
HETATM   16  O           1     -23.523 -13.453   0.879  0.00  0.00    -0.361 OA
HETATM   17  H           1     -24.454 -13.284   1.099  0.00  0.00     0.217 HD
ENDBRANCH  13  16
ENDBRANCH   9  10
ENDBRANCH   5   9
ENDBRANCH   4   5
BRANCH   3  18
HETATM   18  C           1     -20.003  -9.784  -5.088  0.00  0.00     0.298 C 
BRANCH  18  19
HETATM   19  N           1     -19.460  -8.516  -5.677  0.00  0.00    -0.064 N 
HETATM   20  H           1     -18.423  -8.600  -5.790  0.00  0.00     0.275 HD
HETATM   21  H           1     -19.678  -7.716  -5.042  0.00  0.00     0.275 HD
HETATM   22  H           1     -19.899  -8.349  -6.611  0.00  0.00     0.275 HD
ENDBRANCH  18  19
BRANCH  18  23
HETATM   23  C           1     -18.864 -10.580  -4.462  0.00  0.00     0.224 C 
BRANCH  23  24
HETATM   24  O           1     -18.053  -9.722  -3.707  0.00  0.00    -0.287 OA
BRANCH  24  25
HETATM   25  P           1     -16.471 -10.042  -3.729  0.00  0.00     0.406 P 
HETATM   26  O           1     -15.783  -9.200  -2.724  0.00  0.00    -0.624 OA
HETATM   27  O           1     -16.252 -11.470  -3.410  0.00  0.00    -0.624 OA
BRANCH  25  28
HETATM   28  O           1     -15.876  -9.722  -5.196  0.00  0.00    -0.300 OA
HETATM   29  H           1     -14.940  -9.757  -5.094  0.00  0.00     0.223 HD
ENDBRANCH  25  28
ENDBRANCH  24  25
ENDBRANCH  23  24
ENDBRANCH  18  23
ENDBRANCH   3  18
TORSDOF 11
ENDMDL
MODEL 8
REMARK VINA RESULT:      -6.0     20.738     22.243
REMARK  11 active torsions:
REMARK  status: ('A' for Active; 'I' for Inactive)
REMARK    1  A    between atoms: C_2  and  O_3 
REMARK    2  A    between atoms: N_11  and  C_18 
REMARK    3  A    between atoms: O_14  and  P_15 
REMARK    4  A    between atoms: P_15  and  O_16 
REMARK    5  A    between atoms: O_16  and  C_17 
REMARK    6  A    between atoms: C_17  and  C_18 
REMARK    7  A    between atoms: C_18  and  C_19 
REMARK       I    between atoms: C_19  and  N_20 
REMARK    8  A    between atoms: N_20  and  C_24 
REMARK    9  A    between atoms: C_23  and  C_24 
REMARK   10  A    between atoms: C_24  and  C_25 
REMARK   11  A    between atoms: C_25  and  C_28 
ROOT
HETATM    1  H           1     -12.059   6.325 -21.283  0.00  0.00     0.163 HD
HETATM    2  O           1     -10.706   3.735 -22.425  0.00  0.00    -0.271 OA
HETATM    3  C           1     -11.572   4.556 -22.241  0.00  0.00     0.251 C 
HETATM    4  N           1     -11.332   5.637 -21.436  0.00  0.00    -0.344 N 
ENDROOT
BRANCH   4   5
HETATM    5  C           1     -10.037   5.797 -20.804  0.00  0.00     0.189 C 
BRANCH   5   6
HETATM    6  C           1     -10.157   5.499 -19.330  0.00  0.00     0.197 C 
HETATM    7  O           1     -11.283   5.304 -18.822  0.00  0.00    -0.646 OA
HETATM    8  O           1      -9.132   5.448 -18.616  0.00  0.00    -0.646 OA
ENDBRANCH   5   6
BRANCH   5   9
HETATM    9  C           1      -9.552   7.227 -20.997  0.00  0.00     0.074 C 
BRANCH   9  10
HETATM   10  C           1     -10.694   8.174 -20.795  0.00  0.00    -0.056 A 
HETATM   11  C           1     -10.955   8.691 -19.527  0.00  0.00     0.010 A 
HETATM   12  C           1     -12.020   9.573 -19.338  0.00  0.00     0.037 A 
HETATM   13  C           1     -12.822   9.938 -20.420  0.00  0.00     0.065 A 
HETATM   14  C           1     -12.560   9.421 -21.689  0.00  0.00     0.037 A 
HETATM   15  C           1     -11.496   8.539 -21.876  0.00  0.00     0.010 A 
BRANCH  13  16
HETATM   16  O           1     -13.855  10.795 -20.237  0.00  0.00    -0.361 OA
HETATM   17  H           1     -13.494  11.638 -19.916  0.00  0.00     0.217 HD
ENDBRANCH  13  16
ENDBRANCH   9  10
ENDBRANCH   5   9
ENDBRANCH   4   5
BRANCH   3  18
HETATM   18  C           1     -12.921   4.390 -22.899  0.00  0.00     0.298 C 
BRANCH  18  19
HETATM   19  N           1     -13.522   3.081 -22.483  0.00  0.00    -0.064 N 
HETATM   20  H           1     -14.551   3.095 -22.667  0.00  0.00     0.275 HD
HETATM   21  H           1     -13.352   2.928 -21.463  0.00  0.00     0.275 HD
HETATM   22  H           1     -13.082   2.306 -23.028  0.00  0.00     0.275 HD
ENDBRANCH  18  19
BRANCH  18  23
HETATM   23  C           1     -13.838   5.528 -22.470  0.00  0.00     0.224 C 
BRANCH  23  24
HETATM   24  O           1     -14.858   5.024 -21.651  0.00  0.00    -0.287 OA
BRANCH  24  25
HETATM   25  P           1     -14.645   5.205 -20.061  0.00  0.00     0.406 P 
HETATM   26  O           1     -15.953   5.454 -19.413  0.00  0.00    -0.624 OA
HETATM   27  O           1     -14.042   3.975 -19.501  0.00  0.00    -0.624 OA
BRANCH  25  28
HETATM   28  O           1     -13.663   6.458 -19.788  0.00  0.00    -0.300 OA
HETATM   29  H           1     -13.833   6.712 -18.897  0.00  0.00     0.223 HD
ENDBRANCH  25  28
ENDBRANCH  24  25
ENDBRANCH  23  24
ENDBRANCH  18  23
ENDBRANCH   3  18
TORSDOF 11
ENDMDL
MODEL 9
REMARK VINA RESULT:      -6.0      4.242      7.852
REMARK  11 active torsions:
REMARK  status: ('A' for Active; 'I' for Inactive)
REMARK    1  A    between atoms: C_2  and  O_3 
REMARK    2  A    between atoms: N_11  and  C_18 
REMARK    3  A    between atoms: O_14  and  P_15 
REMARK    4  A    between atoms: P_15  and  O_16 
REMARK    5  A    between atoms: O_16  and  C_17 
REMARK    6  A    between atoms: C_17  and  C_18 
REMARK    7  A    between atoms: C_18  and  C_19 
REMARK       I    between atoms: C_19  and  N_20 
REMARK    8  A    between atoms: N_20  and  C_24 
REMARK    9  A    between atoms: C_23  and  C_24 
REMARK   10  A    between atoms: C_24  and  C_25 
REMARK   11  A    between atoms: C_25  and  C_28 
ROOT
HETATM    1  H           1     -20.868  -7.743  -2.720  0.00  0.00     0.163 HD
HETATM    2  O           1     -21.003  -8.777  -5.679  0.00  0.00    -0.271 OA
HETATM    3  C           1     -21.186  -8.034  -4.744  0.00  0.00     0.251 C 
HETATM    4  N           1     -20.714  -8.367  -3.502  0.00  0.00    -0.344 N 
ENDROOT
BRANCH   4   5
HETATM    5  C           1     -19.995  -9.610  -3.309  0.00  0.00     0.189 C 
BRANCH   5   6
HETATM    6  C           1     -20.623 -10.384  -2.177  0.00  0.00     0.197 C 
HETATM    7  O           1     -20.993  -9.788  -1.142  0.00  0.00    -0.646 OA
HETATM    8  O           1     -20.776 -11.621  -2.274  0.00  0.00    -0.646 OA
ENDBRANCH   5   6
BRANCH   5   9
HETATM    9  C           1     -18.540  -9.307  -2.973  0.00  0.00     0.074 C 
BRANCH   9  10
HETATM   10  C           1     -17.650  -9.920  -4.009  0.00  0.00    -0.056 A 
HETATM   11  C           1     -18.199 -10.688  -5.035  0.00  0.00     0.010 A 
HETATM   12  C           1     -17.370 -11.259  -6.001  0.00  0.00     0.037 A 
HETATM   13  C           1     -15.991 -11.061  -5.940  0.00  0.00     0.065 A 
HETATM   14  C           1     -15.441 -10.293  -4.913  0.00  0.00     0.037 A 
HETATM   15  C           1     -16.271  -9.722  -3.948  0.00  0.00     0.010 A 
BRANCH  13  16
HETATM   16  O           1     -15.185 -11.616  -6.877  0.00  0.00    -0.361 OA
HETATM   17  H           1     -14.282 -11.287  -6.730  0.00  0.00     0.217 HD
ENDBRANCH  13  16
ENDBRANCH   9  10
ENDBRANCH   5   9
ENDBRANCH   4   5
BRANCH   3  18
HETATM   18  C           1     -21.935  -6.739  -4.945  0.00  0.00     0.298 C 
BRANCH  18  19
HETATM   19  N           1     -22.219  -6.115  -3.611  0.00  0.00    -0.064 N 
HETATM   20  H           1     -21.484  -6.404  -2.927  0.00  0.00     0.275 HD
HETATM   21  H           1     -23.155  -6.430  -3.271  0.00  0.00     0.275 HD
HETATM   22  H           1     -22.216  -5.074  -3.705  0.00  0.00     0.275 HD
ENDBRANCH  18  19
BRANCH  18  23
HETATM   23  C           1     -21.089  -5.787  -5.780  0.00  0.00     0.224 C 
BRANCH  23  24
HETATM   24  O           1     -21.537  -5.806  -7.109  0.00  0.00    -0.287 OA
BRANCH  24  25
HETATM   25  P           1     -22.036  -4.393  -7.708  0.00  0.00     0.406 P 
HETATM   26  O           1     -21.345  -3.288  -7.006  0.00  0.00    -0.624 OA
HETATM   27  O           1     -21.723  -4.332  -9.153  0.00  0.00    -0.624 OA
BRANCH  25  28
HETATM   28  O           1     -23.631  -4.251  -7.496  0.00  0.00    -0.300 OA
HETATM   29  H           1     -24.011  -4.527  -8.313  0.00  0.00     0.223 HD
ENDBRANCH  25  28
ENDBRANCH  24  25
ENDBRANCH  23  24
ENDBRANCH  18  23
ENDBRANCH   3  18
TORSDOF 11
ENDMDL
