MODEL 1
REMARK VINA RESULT:      -6.0      0.000      0.000
REMARK  8 active torsions:
REMARK  status: ('A' for Active; 'I' for Inactive)
REMARK    1  A    between atoms: N_2  and  C_7 
REMARK       I    between atoms: N_2  and  C_3 
REMARK    2  A    between atoms: C_3  and  C_14 
REMARK    3  A    between atoms: Se_4  and  C_5 
REMARK    4  A    between atoms: C_5  and  C_7 
REMARK    5  A    between atoms: C_7  and  C_20 
REMARK    6  A    between atoms: N_11  and  C_14 
REMARK    7  A    between atoms: C_14  and  C_19 
REMARK    8  A    between atoms: C_17  and  C_19 
ROOT
HETATM    1  N           1     -35.426  -1.013 -12.549  0.00  0.00    -0.345 N 
HETATM    2  C           1     -34.697  -2.162 -12.706  0.00  0.00     0.249 C 
HETATM    3  O           1     -34.686  -2.727 -13.773  0.00  0.00    -0.271 OA
HETATM    4  H           1     -35.434  -0.538 -11.655  0.00  0.00     0.163 HD
ENDROOT
BRANCH   2   5
HETATM    5  C           1     -33.908  -2.719 -11.547  0.00  0.00     0.275 C 
BRANCH   5   6
HETATM    6  N           1     -33.627  -1.624 -10.562  0.00  0.00    -0.066 N 
HETATM    7  H           1     -32.986  -1.981  -9.818  0.00  0.00     0.275 HD
HETATM    8  H           1     -33.177  -0.819 -11.053  0.00  0.00     0.275 HD
HETATM    9  H           1     -34.524  -1.309 -10.128  0.00  0.00     0.275 HD
ENDBRANCH   5   6
BRANCH   5  10
HETATM   10  C           1     -34.712  -3.820 -10.868  0.00  0.00     0.046 C 
BRANCH  10  11
HETATM   11  C           1     -33.796  -4.993 -10.545  0.00  0.00    -0.020 C 
HETATM   12  C           1     -32.745  -5.130 -11.639  0.00  0.00     0.009 C 
HETATM   13  C           1     -34.617  -6.273 -10.468  0.00  0.00     0.009 C 
ENDBRANCH  10  11
ENDBRANCH   5  10
ENDBRANCH   2   5
BRANCH   1  14
HETATM   14  C           1     -36.184  -0.477 -13.662  0.00  0.00     0.185 C 
BRANCH  14  15
HETATM   15  C           1     -37.558  -0.035 -13.173  0.00  0.00     0.039 C 
BRANCH  15  16
HETATM   16 Se           1     -37.633  -0.178 -11.230  0.00  0.00     0.000 Se
HETATM   17  H           1     -38.170   1.179 -11.036  0.00  0.00     0.000 HD
ENDBRANCH  15  16
ENDBRANCH  14  15
BRANCH  14  18
HETATM   18  C           1     -35.452   0.708 -14.243  0.00  0.00     0.196 C 
HETATM   19  O           1     -34.551   1.271 -13.585  0.00  0.00    -0.646 OA
HETATM   20  O           1     -35.747   1.126 -15.384  0.00  0.00    -0.646 OA
ENDBRANCH  14  18
ENDBRANCH   1  14
TORSDOF 8
ENDMDL
MODEL 2
REMARK VINA RESULT:      -5.9      2.008      2.278
REMARK  8 active torsions:
REMARK  status: ('A' for Active; 'I' for Inactive)
REMARK    1  A    between atoms: N_2  and  C_7 
REMARK       I    between atoms: N_2  and  C_3 
REMARK    2  A    between atoms: C_3  and  C_14 
REMARK    3  A    between atoms: Se_4  and  C_5 
REMARK    4  A    between atoms: C_5  and  C_7 
REMARK    5  A    between atoms: C_7  and  C_20 
REMARK    6  A    between atoms: N_11  and  C_14 
REMARK    7  A    between atoms: C_14  and  C_19 
REMARK    8  A    between atoms: C_17  and  C_19 
ROOT
HETATM    1  N           1     -34.981  -1.158 -14.040  0.00  0.00    -0.345 N 
HETATM    2  C           1     -35.396  -1.587 -12.808  0.00  0.00     0.249 C 
HETATM    3  O           1     -36.550  -1.452 -12.479  0.00  0.00    -0.271 OA
HETATM    4  H           1     -34.014  -1.272 -14.315  0.00  0.00     0.163 HD
ENDROOT
BRANCH   2   5
HETATM    5  C           1     -34.412  -2.230 -11.861  0.00  0.00     0.275 C 
BRANCH   5   6
HETATM    6  N           1     -34.343  -1.431 -10.594  0.00  0.00    -0.066 N 
HETATM    7  H           1     -33.345  -1.209 -10.377  0.00  0.00     0.275 HD
HETATM    8  H           1     -34.880  -0.542 -10.713  0.00  0.00     0.275 HD
HETATM    9  H           1     -34.756  -1.985  -9.811  0.00  0.00     0.275 HD
ENDBRANCH   5   6
BRANCH   5  10
HETATM   10  C           1     -34.868  -3.648 -11.541  0.00  0.00     0.046 C 
BRANCH  10  11
HETATM   11  C           1     -33.707  -4.431 -10.944  0.00  0.00    -0.020 C 
HETATM   12  C           1     -32.545  -4.445 -11.928  0.00  0.00     0.009 C 
HETATM   13  C           1     -34.150  -5.861 -10.664  0.00  0.00     0.009 C 
ENDBRANCH  10  11
ENDBRANCH   5  10
ENDBRANCH   2   5
BRANCH   1  14
HETATM   14  C           1     -35.926  -0.540 -14.949  0.00  0.00     0.185 C 
BRANCH  14  15
HETATM   15  C           1     -35.595   0.940 -15.096  0.00  0.00     0.039 C 
BRANCH  15  16
HETATM   16 Se           1     -34.508   1.516 -13.584  0.00  0.00     0.000 Se
HETATM   17  H           1     -35.638   2.100 -12.844  0.00  0.00     0.000 HD
ENDBRANCH  15  16
ENDBRANCH  14  15
BRANCH  14  18
HETATM   18  C           1     -35.837  -1.211 -16.298  0.00  0.00     0.196 C 
HETATM   19  O           1     -35.032  -2.150 -16.476  0.00  0.00    -0.646 OA
HETATM   20  O           1     -36.568  -0.828 -17.237  0.00  0.00    -0.646 OA
ENDBRANCH  14  18
ENDBRANCH   1  14
TORSDOF 8
ENDMDL
MODEL 3
REMARK VINA RESULT:      -5.7     12.789     14.382
REMARK  8 active torsions:
REMARK  status: ('A' for Active; 'I' for Inactive)
REMARK    1  A    between atoms: N_2  and  C_7 
REMARK       I    between atoms: N_2  and  C_3 
REMARK    2  A    between atoms: C_3  and  C_14 
REMARK    3  A    between atoms: Se_4  and  C_5 
REMARK    4  A    between atoms: C_5  and  C_7 
REMARK    5  A    between atoms: C_7  and  C_20 
REMARK    6  A    between atoms: N_11  and  C_14 
REMARK    7  A    between atoms: C_14  and  C_19 
REMARK    8  A    between atoms: C_17  and  C_19 
ROOT
HETATM    1  N           1     -22.273  -4.752  -8.751  0.00  0.00    -0.345 N 
HETATM    2  C           1     -21.682  -4.629  -7.522  0.00  0.00     0.249 C 
HETATM    3  O           1     -21.609  -3.546  -6.994  0.00  0.00    -0.271 OA
HETATM    4  H           1     -22.336  -5.660  -9.194  0.00  0.00     0.163 HD
ENDROOT
BRANCH   2   5
HETATM    5  C           1     -21.124  -5.847  -6.829  0.00  0.00     0.275 C 
BRANCH   5   6
HETATM    6  N           1     -19.821  -6.231  -7.466  0.00  0.00    -0.066 N 
HETATM    7  H           1     -19.597  -7.224  -7.230  0.00  0.00     0.275 HD
HETATM    8  H           1     -19.896  -6.126  -8.503  0.00  0.00     0.275 HD
HETATM    9  H           1     -19.063  -5.607  -7.108  0.00  0.00     0.275 HD
ENDBRANCH   5   6
BRANCH   5  10
HETATM   10  C           1     -20.895  -5.533  -5.356  0.00  0.00     0.046 C 
BRANCH  10  11
HETATM   11  C           1     -21.817  -6.395  -4.504  0.00  0.00    -0.020 C 
HETATM   12  C           1     -21.480  -6.195  -3.032  0.00  0.00     0.009 C 
HETATM   13  C           1     -21.627  -7.861  -4.872  0.00  0.00     0.009 C 
ENDBRANCH  10  11
ENDBRANCH   5  10
ENDBRANCH   2   5
BRANCH   1  14
HETATM   14  C           1     -22.810  -3.582  -9.419  0.00  0.00     0.185 C 
BRANCH  14  15
HETATM   15  C           1     -22.103  -3.390 -10.754  0.00  0.00     0.039 C 
BRANCH  15  16
HETATM   16 Se           1     -20.416  -4.366 -10.742  0.00  0.00     0.000 Se
HETATM   17  H           1     -20.998  -5.597 -10.184  0.00  0.00     0.000 HD
ENDBRANCH  15  16
ENDBRANCH  14  15
BRANCH  14  18
HETATM   18  C           1     -24.288  -3.773  -9.654  0.00  0.00     0.196 C 
HETATM   19  O           1     -24.734  -4.903  -9.945  0.00  0.00    -0.646 OA
HETATM   20  O           1     -25.068  -2.800  -9.558  0.00  0.00    -0.646 OA
ENDBRANCH  14  18
ENDBRANCH   1  14
TORSDOF 8
ENDMDL
MODEL 4
REMARK VINA RESULT:      -5.4      2.487      2.775
REMARK  8 active torsions:
REMARK  status: ('A' for Active; 'I' for Inactive)
REMARK    1  A    between atoms: N_2  and  C_7 
REMARK       I    between atoms: N_2  and  C_3 
REMARK    2  A    between atoms: C_3  and  C_14 
REMARK    3  A    between atoms: Se_4  and  C_5 
REMARK    4  A    between atoms: C_5  and  C_7 
REMARK    5  A    between atoms: C_7  and  C_20 
REMARK    6  A    between atoms: N_11  and  C_14 
REMARK    7  A    between atoms: C_14  and  C_19 
REMARK    8  A    between atoms: C_17  and  C_19 
ROOT
HETATM    1  N           1     -35.348  -1.772 -12.192  0.00  0.00    -0.345 N 
HETATM    2  C           1     -34.257  -2.263 -11.525  0.00  0.00     0.249 C 
HETATM    3  O           1     -33.623  -1.542 -10.792  0.00  0.00    -0.271 OA
HETATM    4  H           1     -35.880  -2.376 -12.805  0.00  0.00     0.163 HD
ENDROOT
BRANCH   2   5
HETATM    5  C           1     -33.849  -3.704 -11.705  0.00  0.00     0.275 C 
BRANCH   5   6
HETATM    6  N           1     -32.357  -3.788 -11.838  0.00  0.00    -0.066 N 
HETATM    7  H           1     -32.058  -4.788 -11.790  0.00  0.00     0.275 HD
HETATM    8  H           1     -32.065  -3.380 -12.755  0.00  0.00     0.275 HD
HETATM    9  H           1     -31.909  -3.251 -11.061  0.00  0.00     0.275 HD
ENDBRANCH   5   6
BRANCH   5  10
HETATM   10  C           1     -34.296  -4.514 -10.496  0.00  0.00     0.046 C 
BRANCH  10  11
HETATM   11  C           1     -34.252  -5.998 -10.833  0.00  0.00    -0.020 C 
HETATM   12  C           1     -35.046  -6.251 -12.109  0.00  0.00     0.009 C 
HETATM   13  C           1     -34.863  -6.798  -9.690  0.00  0.00     0.009 C 
ENDBRANCH  10  11
ENDBRANCH   5  10
ENDBRANCH   2   5
BRANCH   1  14
HETATM   14  C           1     -35.741  -0.387 -12.019  0.00  0.00     0.185 C 
BRANCH  14  15
HETATM   15  C           1     -36.333   0.138 -13.320  0.00  0.00     0.039 C 
BRANCH  15  16
HETATM   16 Se           1     -34.908   0.854 -14.441  0.00  0.00     0.000 Se
HETATM   17  H           1     -34.070  -0.352 -14.347  0.00  0.00     0.000 HD
ENDBRANCH  15  16
ENDBRANCH  14  15
BRANCH  14  18
HETATM   18  C           1     -36.771  -0.291 -10.921  0.00  0.00     0.196 C 
HETATM   19  O           1     -36.572   0.456  -9.939  0.00  0.00    -0.646 OA
HETATM   20  O           1     -37.826  -0.959 -10.993  0.00  0.00    -0.646 OA
ENDBRANCH  14  18
ENDBRANCH   1  14
TORSDOF 8
ENDMDL
MODEL 5
REMARK VINA RESULT:      -5.2     10.316     11.770
REMARK  8 active torsions:
REMARK  status: ('A' for Active; 'I' for Inactive)
REMARK    1  A    between atoms: N_2  and  C_7 
REMARK       I    between atoms: N_2  and  C_3 
REMARK    2  A    between atoms: C_3  and  C_14 
REMARK    3  A    between atoms: Se_4  and  C_5 
REMARK    4  A    between atoms: C_5  and  C_7 
REMARK    5  A    between atoms: C_7  and  C_20 
REMARK    6  A    between atoms: N_11  and  C_14 
REMARK    7  A    between atoms: C_14  and  C_19 
REMARK    8  A    between atoms: C_17  and  C_19 
ROOT
HETATM    1  N           1     -27.072  -7.056 -19.174  0.00  0.00    -0.345 N 
HETATM    2  C           1     -28.008  -6.203 -18.653  0.00  0.00     0.249 C 
HETATM    3  O           1     -28.390  -5.259 -19.302  0.00  0.00    -0.271 OA
HETATM    4  H           1     -26.752  -7.848 -18.631  0.00  0.00     0.163 HD
ENDROOT
BRANCH   2   5
HETATM    5  C           1     -28.562  -6.443 -17.271  0.00  0.00     0.275 C 
BRANCH   5   6
HETATM    6  N           1     -27.491  -7.028 -16.398  0.00  0.00    -0.066 N 
HETATM    7  H           1     -27.299  -6.381 -15.601  0.00  0.00     0.275 HD
HETATM    8  H           1     -27.808  -7.953 -16.029  0.00  0.00     0.275 HD
HETATM    9  H           1     -26.619  -7.159 -16.960  0.00  0.00     0.275 HD
ENDBRANCH   5   6
BRANCH   5  10
HETATM   10  C           1     -29.035  -5.124 -16.676  0.00  0.00     0.046 C 
BRANCH  10  11
HETATM   11  C           1     -30.556  -5.117 -16.599  0.00  0.00    -0.020 C 
HETATM   12  C           1     -31.099  -6.405 -17.206  0.00  0.00     0.009 C 
HETATM   13  C           1     -31.099  -3.924 -17.373  0.00  0.00     0.009 C 
ENDBRANCH  10  11
ENDBRANCH   5  10
ENDBRANCH   2   5
BRANCH   1  14
HETATM   14  C           1     -26.539  -6.826 -20.502  0.00  0.00     0.185 C 
BRANCH  14  15
HETATM   15  C           1     -25.118  -6.288 -20.392  0.00  0.00     0.039 C 
BRANCH  15  16
HETATM   16 Se           1     -24.267  -7.022 -18.800  0.00  0.00     0.000 Se
HETATM   17  H           1     -22.960  -6.403 -19.071  0.00  0.00     0.000 HD
ENDBRANCH  15  16
ENDBRANCH  14  15
BRANCH  14  18
HETATM   18  C           1     -26.528  -8.124 -21.271  0.00  0.00     0.196 C 
HETATM   19  O           1     -25.470  -8.531 -21.796  0.00  0.00    -0.646 OA
HETATM   20  O           1     -27.579  -8.793 -21.383  0.00  0.00    -0.646 OA
ENDBRANCH  14  18
ENDBRANCH   1  14
TORSDOF 8
ENDMDL
MODEL 6
REMARK VINA RESULT:      -5.2     10.478     11.931
REMARK  8 active torsions:
REMARK  status: ('A' for Active; 'I' for Inactive)
REMARK    1  A    between atoms: N_2  and  C_7 
REMARK       I    between atoms: N_2  and  C_3 
REMARK    2  A    between atoms: C_3  and  C_14 
REMARK    3  A    between atoms: Se_4  and  C_5 
REMARK    4  A    between atoms: C_5  and  C_7 
REMARK    5  A    between atoms: C_7  and  C_20 
REMARK    6  A    between atoms: N_11  and  C_14 
REMARK    7  A    between atoms: C_14  and  C_19 
REMARK    8  A    between atoms: C_17  and  C_19 
ROOT
HETATM    1  N           1     -27.575  -6.450 -18.634  0.00  0.00    -0.345 N 
HETATM    2  C           1     -26.318  -6.289 -18.115  0.00  0.00     0.249 C 
HETATM    3  O           1     -26.178  -6.024 -16.945  0.00  0.00    -0.271 OA
HETATM    4  H           1     -27.692  -6.674 -19.614  0.00  0.00     0.163 HD
ENDROOT
BRANCH   2   5
HETATM    5  C           1     -25.109  -6.445 -19.004  0.00  0.00     0.275 C 
BRANCH   5   6
HETATM    6  N           1     -24.378  -7.702 -18.636  0.00  0.00    -0.066 N 
HETATM    7  H           1     -24.364  -8.349 -19.457  0.00  0.00     0.275 HD
HETATM    8  H           1     -23.398  -7.468 -18.360  0.00  0.00     0.275 HD
HETATM    9  H           1     -24.863  -8.165 -17.835  0.00  0.00     0.275 HD
ENDBRANCH   5   6
BRANCH   5  10
HETATM   10  C           1     -25.554  -6.524 -20.458  0.00  0.00     0.046 C 
BRANCH  10  11
HETATM   11  C           1     -25.288  -7.924 -20.995  0.00  0.00    -0.020 C 
HETATM   12  C           1     -24.348  -7.837 -22.190  0.00  0.00     0.009 C 
HETATM   13  C           1     -26.602  -8.559 -21.429  0.00  0.00     0.009 C 
ENDBRANCH  10  11
ENDBRANCH   5  10
ENDBRANCH   2   5
BRANCH   1  14
HETATM   14  C           1     -28.737  -6.301 -17.781  0.00  0.00     0.185 C 
BRANCH  14  15
HETATM   15  C           1     -29.558  -5.106 -18.247  0.00  0.00     0.039 C 
BRANCH  15  16
HETATM   16 Se           1     -28.972  -3.506 -17.302  0.00  0.00     0.000 Se
HETATM   17  H           1     -29.901  -3.689 -16.175  0.00  0.00     0.000 HD
ENDBRANCH  15  16
ENDBRANCH  14  15
BRANCH  14  18
HETATM   18  C           1     -29.579  -7.551 -17.856  0.00  0.00     0.196 C 
HETATM   19  O           1     -29.482  -8.424 -16.968  0.00  0.00    -0.646 OA
HETATM   20  O           1     -30.373  -7.714 -18.808  0.00  0.00    -0.646 OA
ENDBRANCH  14  18
ENDBRANCH   1  14
TORSDOF 8
ENDMDL
MODEL 7
REMARK VINA RESULT:      -5.1     11.275     12.882
REMARK  8 active torsions:
REMARK  status: ('A' for Active; 'I' for Inactive)
REMARK    1  A    between atoms: N_2  and  C_7 
REMARK       I    between atoms: N_2  and  C_3 
REMARK    2  A    between atoms: C_3  and  C_14 
REMARK    3  A    between atoms: Se_4  and  C_5 
REMARK    4  A    between atoms: C_5  and  C_7 
REMARK    5  A    between atoms: C_7  and  C_20 
REMARK    6  A    between atoms: N_11  and  C_14 
REMARK    7  A    between atoms: C_14  and  C_19 
REMARK    8  A    between atoms: C_17  and  C_19 
ROOT
HETATM    1  N           1     -26.822  -6.309 -18.139  0.00  0.00    -0.345 N 
HETATM    2  C           1     -25.611  -6.717 -18.632  0.00  0.00     0.249 C 
HETATM    3  O           1     -24.624  -6.648 -17.939  0.00  0.00    -0.271 OA
HETATM    4  H           1     -27.649  -6.368 -18.719  0.00  0.00     0.163 HD
ENDROOT
BRANCH   2   5
HETATM    5  C           1     -25.510  -7.252 -20.039  0.00  0.00     0.275 C 
BRANCH   5   6
HETATM    6  N           1     -26.486  -6.530 -20.919  0.00  0.00    -0.066 N 
HETATM    7  H           1     -25.977  -6.093 -21.719  0.00  0.00     0.275 HD
HETATM    8  H           1     -27.194  -7.207 -21.283  0.00  0.00     0.275 HD
HETATM    9  H           1     -26.970  -5.787 -20.365  0.00  0.00     0.275 HD
ENDBRANCH   5   6
BRANCH   5  10
HETATM   10  C           1     -24.097  -7.036 -20.565  0.00  0.00     0.046 C 
BRANCH  10  11
HETATM   11  C           1     -23.690  -8.222 -21.428  0.00  0.00    -0.020 C 
HETATM   12  C           1     -22.252  -8.611 -21.107  0.00  0.00     0.009 C 
HETATM   13  C           1     -23.795  -7.841 -22.899  0.00  0.00     0.009 C 
ENDBRANCH  10  11
ENDBRANCH   5  10
ENDBRANCH   2   5
BRANCH   1  14
HETATM   14  C           1     -26.919  -5.795 -16.787  0.00  0.00     0.185 C 
BRANCH  14  15
HETATM   15  C           1     -28.056  -4.784 -16.710  0.00  0.00     0.039 C 
BRANCH  15  16
HETATM   16 Se           1     -29.157  -4.920 -18.313  0.00  0.00     0.000 Se
HETATM   17  H           1     -28.298  -4.038 -19.119  0.00  0.00     0.000 HD
ENDBRANCH  15  16
ENDBRANCH  14  15
BRANCH  14  18
HETATM   18  C           1     -27.192  -6.933 -15.836  0.00  0.00     0.196 C 
HETATM   19  O           1     -28.353  -7.377 -15.708  0.00  0.00    -0.646 OA
HETATM   20  O           1     -26.256  -7.433 -15.174  0.00  0.00    -0.646 OA
ENDBRANCH  14  18
ENDBRANCH   1  14
TORSDOF 8
ENDMDL
MODEL 8
REMARK VINA RESULT:      -5.0     14.656     16.820
REMARK  8 active torsions:
REMARK  status: ('A' for Active; 'I' for Inactive)
REMARK    1  A    between atoms: N_2  and  C_7 
REMARK       I    between atoms: N_2  and  C_3 
REMARK    2  A    between atoms: C_3  and  C_14 
REMARK    3  A    between atoms: Se_4  and  C_5 
REMARK    4  A    between atoms: C_5  and  C_7 
REMARK    5  A    between atoms: C_7  and  C_20 
REMARK    6  A    between atoms: N_11  and  C_14 
REMARK    7  A    between atoms: C_14  and  C_19 
REMARK    8  A    between atoms: C_17  and  C_19 
ROOT
HETATM    1  N           1     -20.978  -6.459  -4.960  0.00  0.00    -0.345 N 
HETATM    2  C           1     -21.592  -5.580  -5.811  0.00  0.00     0.249 C 
HETATM    3  O           1     -22.797  -5.511  -5.841  0.00  0.00    -0.271 OA
HETATM    4  H           1     -19.968  -6.516  -4.935  0.00  0.00     0.163 HD
ENDROOT
BRANCH   2   5
HETATM    5  C           1     -20.763  -4.696  -6.711  0.00  0.00     0.275 C 
BRANCH   5   6
HETATM    6  N           1     -19.350  -4.660  -6.210  0.00  0.00    -0.066 N 
HETATM    7  H           1     -19.246  -5.327  -5.412  0.00  0.00     0.275 HD
HETATM    8  H           1     -18.700  -4.935  -6.981  0.00  0.00     0.275 HD
HETATM    9  H           1     -19.119  -3.693  -5.889  0.00  0.00     0.275 HD
ENDBRANCH   5   6
BRANCH   5  10
HETATM   10  C           1     -20.784  -5.252  -8.128  0.00  0.00     0.046 C 
BRANCH  10  11
HETATM   11  C           1     -21.175  -4.147  -9.101  0.00  0.00    -0.020 C 
HETATM   12  C           1     -22.680  -4.188  -9.335  0.00  0.00     0.009 C 
HETATM   13  C           1     -20.451  -4.355 -10.424  0.00  0.00     0.009 C 
ENDBRANCH  10  11
ENDBRANCH   5  10
ENDBRANCH   2   5
BRANCH   1  14
HETATM   14  C           1     -21.774  -7.309  -4.096  0.00  0.00     0.185 C 
BRANCH  14  15
HETATM   15  C           1     -21.270  -8.743  -4.191  0.00  0.00     0.039 C 
BRANCH  15  16
HETATM   16 Se           1     -19.477  -8.753  -4.955  0.00  0.00     0.000 Se
HETATM   17  H           1     -19.648  -7.477  -5.668  0.00  0.00     0.000 HD
ENDBRANCH  15  16
ENDBRANCH  14  15
BRANCH  14  18
HETATM   18  C           1     -21.655  -6.826  -2.671  0.00  0.00     0.196 C 
HETATM   19  O           1     -22.375  -5.888  -2.267  0.00  0.00    -0.646 OA
HETATM   20  O           1     -20.836  -7.365  -1.895  0.00  0.00    -0.646 OA
ENDBRANCH  14  18
ENDBRANCH   1  14
TORSDOF 8
ENDMDL
MODEL 9
REMARK VINA RESULT:      -5.0     15.358     17.018
REMARK  8 active torsions:
REMARK  status: ('A' for Active; 'I' for Inactive)
REMARK    1  A    between atoms: N_2  and  C_7 
REMARK       I    between atoms: N_2  and  C_3 
REMARK    2  A    between atoms: C_3  and  C_14 
REMARK    3  A    between atoms: Se_4  and  C_5 
REMARK    4  A    between atoms: C_5  and  C_7 
REMARK    5  A    between atoms: C_7  and  C_20 
REMARK    6  A    between atoms: N_11  and  C_14 
REMARK    7  A    between atoms: C_14  and  C_19 
REMARK    8  A    between atoms: C_17  and  C_19 
ROOT
HETATM    1  N           1     -21.534  -5.834  -4.560  0.00  0.00    -0.345 N 
HETATM    2  C           1     -21.370  -6.955  -3.791  0.00  0.00     0.249 C 
HETATM    3  O           1     -21.199  -8.028  -4.319  0.00  0.00    -0.271 OA
HETATM    4  H           1     -21.677  -4.934  -4.118  0.00  0.00     0.163 HD
ENDROOT
BRANCH   2   5
HETATM    5  C           1     -21.403  -6.850  -2.286  0.00  0.00     0.275 C 
BRANCH   5   6
HETATM    6  N           1     -22.310  -5.725  -1.884  0.00  0.00    -0.066 N 
HETATM    7  H           1     -22.213  -5.549  -0.859  0.00  0.00     0.275 HD
HETATM    8  H           1     -22.050  -4.862  -2.412  0.00  0.00     0.275 HD
HETATM    9  H           1     -23.299  -5.982  -2.103  0.00  0.00     0.275 HD
ENDBRANCH   5   6
BRANCH   5  10
HETATM   10  C           1     -21.921  -8.155  -1.697  0.00  0.00     0.046 C 
BRANCH  10  11
HETATM   11  C           1     -21.785  -8.117  -0.181  0.00  0.00    -0.020 C 
HETATM   12  C           1     -21.020  -9.347   0.290  0.00  0.00     0.009 C 
HETATM   13  C           1     -23.169  -8.108   0.454  0.00  0.00     0.009 C 
ENDBRANCH  10  11
ENDBRANCH   5  10
ENDBRANCH   2   5
BRANCH   1  14
HETATM   14  C           1     -21.503  -5.934  -6.006  0.00  0.00     0.185 C 
BRANCH  14  15
HETATM   15  C           1     -22.349  -4.820  -6.610  0.00  0.00     0.039 C 
BRANCH  15  16
HETATM   16 Se           1     -22.044  -4.742  -8.533  0.00  0.00     0.000 Se
HETATM   17  H           1     -20.587  -4.573  -8.412  0.00  0.00     0.000 HD
ENDBRANCH  15  16
ENDBRANCH  14  15
BRANCH  14  18
HETATM   18  C           1     -20.079  -5.802  -6.487  0.00  0.00     0.196 C 
HETATM   19  O           1     -19.528  -6.756  -7.077  0.00  0.00    -0.646 OA
HETATM   20  O           1     -19.450  -4.738  -6.297  0.00  0.00    -0.646 OA
ENDBRANCH  14  18
ENDBRANCH   1  14
TORSDOF 8
ENDMDL
