MODEL 1
REMARK VINA RESULT:      -7.7      0.000      0.000
REMARK  11 active torsions:
REMARK  status: ('A' for Active; 'I' for Inactive)
REMARK       I    between atoms: C_1  and  N_2 
REMARK    1  A    between atoms: C_1  and  C_26 
REMARK    2  A    between atoms: N_2  and  C_10 
REMARK    3  A    between atoms: O_5  and  C_8 
REMARK    4  A    between atoms: C_6  and  O_13 
REMARK    5  A    between atoms: C_8  and  C_26 
REMARK    6  A    between atoms: C_10  and  C_17 
REMARK    7  A    between atoms: C_10  and  C_18 
REMARK    8  A    between atoms: O_13  and  P_27 
REMARK    9  A    between atoms: C_18  and  C_19 
REMARK   10  A    between atoms: O_21  and  P_27 
REMARK   11  A    between atoms: N_24  and  C_26 
ROOT
HETATM    1  C           1     -32.467  -4.337 -16.123  0.00  0.00     0.189 C 
ENDROOT
BRANCH   1   2
HETATM    2  N           1     -33.669  -4.613 -15.359  0.00  0.00    -0.344 N 
HETATM    3  C           1     -33.930  -3.906 -14.216  0.00  0.00     0.251 C 
HETATM    4  O           1     -34.566  -2.881 -14.273  0.00  0.00    -0.271 OA
HETATM    5  H           1     -34.312  -5.328 -15.671  0.00  0.00     0.163 HD
BRANCH   3   6
HETATM    6  C           1     -33.423  -4.409 -12.887  0.00  0.00     0.302 C 
BRANCH   6   7
HETATM    7  C           1     -34.462  -5.335 -12.265  0.00  0.00     0.153 C 
HETATM    8  C           1     -35.282  -4.560 -11.242  0.00  0.00     0.042 C 
BRANCH   7   9
HETATM    9  O           1     -35.310  -5.827 -13.267  0.00  0.00    -0.393 OA
HETATM   10  H           1     -34.987  -5.495 -14.087  0.00  0.00     0.210 HD
ENDBRANCH   7   9
ENDBRANCH   6   7
BRANCH   6  11
HETATM   11  N           1     -33.181  -3.246 -11.972  0.00  0.00    -0.064 N 
HETATM   12  H           1     -32.372  -3.457 -11.345  0.00  0.00     0.275 HD
HETATM   13  H           1     -32.967  -2.395 -12.541  0.00  0.00     0.275 HD
HETATM   14  H           1     -34.034  -3.074 -11.393  0.00  0.00     0.275 HD
ENDBRANCH   6  11
ENDBRANCH   3   6
ENDBRANCH   1   2
BRANCH   1  15
HETATM   15  C           1     -32.777  -3.325 -17.198  0.00  0.00     0.197 C 
HETATM   16  O           1     -31.882  -2.965 -17.994  0.00  0.00    -0.646 OA
HETATM   17  O           1     -33.927  -2.846 -17.293  0.00  0.00    -0.646 OA
ENDBRANCH   1  15
BRANCH   1  18
HETATM   18  C           1     -31.968  -5.625 -16.766  0.00  0.00     0.074 C 
BRANCH  18  19
HETATM   19  C           1     -30.471  -5.627 -16.782  0.00  0.00    -0.056 A 
HETATM   20  C           1     -29.761  -5.187 -15.665  0.00  0.00     0.010 A 
HETATM   21  C           1     -28.366  -5.188 -15.679  0.00  0.00     0.038 A 
HETATM   22  C           1     -27.681  -5.628 -16.812  0.00  0.00     0.081 A 
HETATM   23  C           1     -28.391  -6.067 -17.930  0.00  0.00     0.038 A 
HETATM   24  C           1     -29.786  -6.066 -17.915  0.00  0.00     0.010 A 
BRANCH  22  25
HETATM   25  O           1     -26.326  -5.629 -16.827  0.00  0.00    -0.247 OA
BRANCH  25  26
HETATM   26  P           1     -25.559  -6.715 -15.910  0.00  0.00     0.411 P 
HETATM   27  O           1     -24.573  -7.448 -16.734  0.00  0.00    -0.624 OA
HETATM   28  O           1     -26.542  -7.671 -15.351  0.00  0.00    -0.624 OA
BRANCH  26  29
HETATM   29  O           1     -24.796  -5.958 -14.704  0.00  0.00    -0.300 OA
HETATM   30  H           1     -25.460  -5.443 -14.280  0.00  0.00     0.223 HD
ENDBRANCH  26  29
ENDBRANCH  25  26
ENDBRANCH  22  25
ENDBRANCH  18  19
ENDBRANCH   1  18
TORSDOF 11
ENDMDL
MODEL 2
REMARK VINA RESULT:      -7.1     11.962     14.409
REMARK  11 active torsions:
REMARK  status: ('A' for Active; 'I' for Inactive)
REMARK       I    between atoms: C_1  and  N_2 
REMARK    1  A    between atoms: C_1  and  C_26 
REMARK    2  A    between atoms: N_2  and  C_10 
REMARK    3  A    between atoms: O_5  and  C_8 
REMARK    4  A    between atoms: C_6  and  O_13 
REMARK    5  A    between atoms: C_8  and  C_26 
REMARK    6  A    between atoms: C_10  and  C_17 
REMARK    7  A    between atoms: C_10  and  C_18 
REMARK    8  A    between atoms: O_13  and  P_27 
REMARK    9  A    between atoms: C_18  and  C_19 
REMARK   10  A    between atoms: O_21  and  P_27 
REMARK   11  A    between atoms: N_24  and  C_26 
ROOT
HETATM    1  C           1     -21.511  -7.185  -5.219  0.00  0.00     0.189 C 
ENDROOT
BRANCH   1   2
HETATM    2  N           1     -22.231  -6.948  -3.983  0.00  0.00    -0.344 N 
HETATM    3  C           1     -21.553  -6.902  -2.794  0.00  0.00     0.251 C 
HETATM    4  O           1     -21.118  -5.850  -2.388  0.00  0.00    -0.271 OA
HETATM    5  H           1     -23.234  -6.819  -3.999  0.00  0.00     0.163 HD
BRANCH   3   6
HETATM    6  C           1     -21.348  -8.164  -1.993  0.00  0.00     0.302 C 
BRANCH   6   7
HETATM    7  C           1     -22.225  -8.122  -0.748  0.00  0.00     0.153 C 
HETATM    8  C           1     -21.352  -8.263   0.492  0.00  0.00     0.042 C 
BRANCH   7   9
HETATM    9  O           1     -22.911  -6.901  -0.699  0.00  0.00    -0.393 OA
HETATM   10  H           1     -22.313  -6.239  -0.998  0.00  0.00     0.210 HD
ENDBRANCH   7   9
ENDBRANCH   6   7
BRANCH   6  11
HETATM   11  N           1     -19.909  -8.269  -1.586  0.00  0.00    -0.064 N 
HETATM   12  H           1     -19.826  -8.898  -0.755  0.00  0.00     0.275 HD
HETATM   13  H           1     -19.351  -8.664  -2.377  0.00  0.00     0.275 HD
HETATM   14  H           1     -19.545  -7.321  -1.341  0.00  0.00     0.275 HD
ENDBRANCH   6  11
ENDBRANCH   3   6
ENDBRANCH   1   2
BRANCH   1  15
HETATM   15  C           1     -20.639  -8.406  -5.067  0.00  0.00     0.197 C 
HETATM   16  O           1     -21.141  -9.548  -5.161  0.00  0.00    -0.646 OA
HETATM   17  O           1     -19.415  -8.277  -4.848  0.00  0.00    -0.646 OA
ENDBRANCH   1  15
BRANCH   1  18
HETATM   18  C           1     -20.641  -5.976  -5.539  0.00  0.00     0.074 C 
BRANCH  18  19
HETATM   19  C           1     -21.106  -5.350  -6.817  0.00  0.00    -0.056 A 
HETATM   20  C           1     -22.361  -4.745  -6.880  0.00  0.00     0.010 A 
HETATM   21  C           1     -22.796  -4.162  -8.071  0.00  0.00     0.038 A 
HETATM   22  C           1     -21.975  -4.185  -9.198  0.00  0.00     0.081 A 
HETATM   23  C           1     -20.720  -4.792  -9.136  0.00  0.00     0.038 A 
HETATM   24  C           1     -20.286  -5.375  -7.944  0.00  0.00     0.010 A 
BRANCH  22  25
HETATM   25  O           1     -22.396  -3.620 -10.355  0.00  0.00    -0.247 OA
BRANCH  25  26
HETATM   26  P           1     -23.682  -4.265 -11.090  0.00  0.00     0.411 P 
HETATM   27  O           1     -24.804  -3.300 -11.059  0.00  0.00    -0.624 OA
HETATM   28  O           1     -24.080  -5.505 -10.387  0.00  0.00    -0.624 OA
BRANCH  26  29
HETATM   29  O           1     -23.310  -4.607 -12.624  0.00  0.00    -0.300 OA
HETATM   30  H           1     -23.656  -5.471 -12.771  0.00  0.00     0.223 HD
ENDBRANCH  26  29
ENDBRANCH  25  26
ENDBRANCH  22  25
ENDBRANCH  18  19
ENDBRANCH   1  18
TORSDOF 11
ENDMDL
MODEL 3
REMARK VINA RESULT:      -6.8     12.273     14.913
REMARK  11 active torsions:
REMARK  status: ('A' for Active; 'I' for Inactive)
REMARK       I    between atoms: C_1  and  N_2 
REMARK    1  A    between atoms: C_1  and  C_26 
REMARK    2  A    between atoms: N_2  and  C_10 
REMARK    3  A    between atoms: O_5  and  C_8 
REMARK    4  A    between atoms: C_6  and  O_13 
REMARK    5  A    between atoms: C_8  and  C_26 
REMARK    6  A    between atoms: C_10  and  C_17 
REMARK    7  A    between atoms: C_10  and  C_18 
REMARK    8  A    between atoms: O_13  and  P_27 
REMARK    9  A    between atoms: C_18  and  C_19 
REMARK   10  A    between atoms: O_21  and  P_27 
REMARK   11  A    between atoms: N_24  and  C_26 
ROOT
HETATM    1  C           1     -21.232  -5.668  -6.851  0.00  0.00     0.189 C 
ENDROOT
BRANCH   1   2
HETATM    2  N           1     -21.296  -5.590  -8.297  0.00  0.00    -0.344 N 
HETATM    3  C           1     -21.896  -4.516  -8.899  0.00  0.00     0.251 C 
HETATM    4  O           1     -21.244  -3.538  -9.177  0.00  0.00    -0.271 OA
HETATM    5  H           1     -20.898  -6.329  -8.861  0.00  0.00     0.163 HD
BRANCH   3   6
HETATM    6  C           1     -23.372  -4.554  -9.213  0.00  0.00     0.302 C 
BRANCH   6   7
HETATM    7  C           1     -23.620  -3.898 -10.565  0.00  0.00     0.153 C 
HETATM    8  C           1     -23.518  -4.948 -11.664  0.00  0.00     0.042 C 
BRANCH   7   9
HETATM    9  O           1     -24.901  -3.329 -10.581  0.00  0.00    -0.393 OA
HETATM   10  H           1     -24.815  -2.451 -10.251  0.00  0.00     0.210 HD
ENDBRANCH   7   9
ENDBRANCH   6   7
BRANCH   6  11
HETATM   11  N           1     -24.127  -3.813  -8.151  0.00  0.00    -0.064 N 
HETATM   12  H           1     -24.598  -2.981  -8.575  0.00  0.00     0.275 HD
HETATM   13  H           1     -24.848  -4.444  -7.732  0.00  0.00     0.275 HD
HETATM   14  H           1     -23.465  -3.495  -7.408  0.00  0.00     0.275 HD
ENDBRANCH   6  11
ENDBRANCH   3   6
ENDBRANCH   1   2
BRANCH   1  15
HETATM   15  C           1     -19.988  -4.966  -6.364  0.00  0.00     0.197 C 
HETATM   16  O           1     -20.005  -4.345  -5.280  0.00  0.00    -0.646 OA
HETATM   17  O           1     -18.941  -5.007  -7.046  0.00  0.00    -0.646 OA
ENDBRANCH   1  15
BRANCH   1  18
HETATM   18  C           1     -21.193  -7.129  -6.422  0.00  0.00     0.074 C 
BRANCH  18  19
HETATM   19  C           1     -21.212  -7.212  -4.928  0.00  0.00    -0.056 A 
HETATM   20  C           1     -20.294  -8.026  -4.264  0.00  0.00     0.010 A 
HETATM   21  C           1     -20.311  -8.104  -2.870  0.00  0.00     0.038 A 
HETATM   22  C           1     -21.247  -7.369  -2.143  0.00  0.00     0.081 A 
HETATM   23  C           1     -22.166  -6.556  -2.807  0.00  0.00     0.038 A 
HETATM   24  C           1     -22.148  -6.478  -4.201  0.00  0.00     0.010 A 
BRANCH  22  25
HETATM   25  O           1     -21.264  -7.445  -0.790  0.00  0.00    -0.247 OA
BRANCH  25  26
HETATM   26  P           1     -22.289  -8.488  -0.103  0.00  0.00     0.411 P 
HETATM   27  O           1     -21.643  -9.112   1.073  0.00  0.00    -0.624 OA
HETATM   28  O           1     -22.653  -9.538  -1.080  0.00  0.00    -0.624 OA
BRANCH  26  29
HETATM   29  O           1     -23.620  -7.703   0.368  0.00  0.00    -0.300 OA
HETATM   30  H           1     -23.321  -7.076   1.003  0.00  0.00     0.223 HD
ENDBRANCH  26  29
ENDBRANCH  25  26
ENDBRANCH  22  25
ENDBRANCH  18  19
ENDBRANCH   1  18
TORSDOF 11
ENDMDL
MODEL 4
REMARK VINA RESULT:      -6.8     12.451     15.149
REMARK  11 active torsions:
REMARK  status: ('A' for Active; 'I' for Inactive)
REMARK       I    between atoms: C_1  and  N_2 
REMARK    1  A    between atoms: C_1  and  C_26 
REMARK    2  A    between atoms: N_2  and  C_10 
REMARK    3  A    between atoms: O_5  and  C_8 
REMARK    4  A    between atoms: C_6  and  O_13 
REMARK    5  A    between atoms: C_8  and  C_26 
REMARK    6  A    between atoms: C_10  and  C_17 
REMARK    7  A    between atoms: C_10  and  C_18 
REMARK    8  A    between atoms: O_13  and  P_27 
REMARK    9  A    between atoms: C_18  and  C_19 
REMARK   10  A    between atoms: O_21  and  P_27 
REMARK   11  A    between atoms: N_24  and  C_26 
ROOT
HETATM    1  C           1     -20.862  -4.880  -6.346  0.00  0.00     0.189 C 
ENDROOT
BRANCH   1   2
HETATM    2  N           1     -21.608  -3.909  -7.122  0.00  0.00    -0.344 N 
HETATM    3  C           1     -22.662  -4.317  -7.896  0.00  0.00     0.251 C 
HETATM    4  O           1     -23.776  -4.350  -7.430  0.00  0.00    -0.271 OA
HETATM    5  H           1     -21.350  -2.932  -7.092  0.00  0.00     0.163 HD
BRANCH   3   6
HETATM    6  C           1     -22.430  -4.724  -9.331  0.00  0.00     0.302 C 
BRANCH   6   7
HETATM    7  C           1     -21.564  -3.679 -10.022  0.00  0.00     0.153 C 
HETATM    8  C           1     -20.359  -4.360 -10.657  0.00  0.00     0.042 C 
BRANCH   7   9
HETATM    9  O           1     -22.312  -3.033 -11.015  0.00  0.00    -0.393 OA
HETATM   10  H           1     -22.280  -3.579 -11.782  0.00  0.00     0.210 HD
ENDBRANCH   7   9
ENDBRANCH   6   7
BRANCH   6  11
HETATM   11  N           1     -23.748  -4.828 -10.039  0.00  0.00    -0.064 N 
HETATM   12  H           1     -24.465  -5.218  -9.386  0.00  0.00     0.275 HD
HETATM   13  H           1     -24.048  -3.877 -10.356  0.00  0.00     0.275 HD
HETATM   14  H           1     -23.651  -5.458 -10.867  0.00  0.00     0.275 HD
ENDBRANCH   6  11
ENDBRANCH   3   6
ENDBRANCH   1   2
BRANCH   1  15
HETATM   15  C           1     -19.630  -5.296  -7.112  0.00  0.00     0.197 C 
HETATM   16  O           1     -18.663  -4.510  -7.215  0.00  0.00    -0.646 OA
HETATM   17  O           1     -19.577  -6.426  -7.643  0.00  0.00    -0.646 OA
ENDBRANCH   1  15
BRANCH   1  18
HETATM   18  C           1     -21.735  -6.101  -6.084  0.00  0.00     0.074 C 
BRANCH  18  19
HETATM   19  C           1     -21.398  -6.678  -4.745  0.00  0.00    -0.056 A 
HETATM   20  C           1     -21.813  -6.029  -3.582  0.00  0.00     0.010 A 
HETATM   21  C           1     -21.499  -6.566  -2.333  0.00  0.00     0.038 A 
HETATM   22  C           1     -20.770  -7.751  -2.248  0.00  0.00     0.081 A 
HETATM   23  C           1     -20.354  -8.401  -3.410  0.00  0.00     0.038 A 
HETATM   24  C           1     -20.668  -7.863  -4.660  0.00  0.00     0.010 A 
BRANCH  22  25
HETATM   25  O           1     -20.464  -8.273  -1.035  0.00  0.00    -0.247 OA
BRANCH  25  26
HETATM   26  P           1     -21.643  -9.002  -0.205  0.00  0.00     0.411 P 
HETATM   27  O           1     -21.056 -10.019   0.695  0.00  0.00    -0.624 OA
HETATM   28  O           1     -22.577  -9.658  -1.148  0.00  0.00    -0.624 OA
BRANCH  26  29
HETATM   29  O           1     -22.441  -7.905   0.671  0.00  0.00    -0.300 OA
HETATM   30  H           1     -22.668  -7.224   0.062  0.00  0.00     0.223 HD
ENDBRANCH  26  29
ENDBRANCH  25  26
ENDBRANCH  22  25
ENDBRANCH  18  19
ENDBRANCH   1  18
TORSDOF 11
ENDMDL
MODEL 5
REMARK VINA RESULT:      -6.2     12.703     15.582
REMARK  11 active torsions:
REMARK  status: ('A' for Active; 'I' for Inactive)
REMARK       I    between atoms: C_1  and  N_2 
REMARK    1  A    between atoms: C_1  and  C_26 
REMARK    2  A    between atoms: N_2  and  C_10 
REMARK    3  A    between atoms: O_5  and  C_8 
REMARK    4  A    between atoms: C_6  and  O_13 
REMARK    5  A    between atoms: C_8  and  C_26 
REMARK    6  A    between atoms: C_10  and  C_17 
REMARK    7  A    between atoms: C_10  and  C_18 
REMARK    8  A    between atoms: O_13  and  P_27 
REMARK    9  A    between atoms: C_18  and  C_19 
REMARK   10  A    between atoms: O_21  and  P_27 
REMARK   11  A    between atoms: N_24  and  C_26 
ROOT
HETATM    1  C           1     -20.895  -7.443  -3.578  0.00  0.00     0.189 C 
ENDROOT
BRANCH   1   2
HETATM    2  N           1     -20.407  -8.783  -3.313  0.00  0.00    -0.344 N 
HETATM    3  C           1     -19.253  -9.220  -3.905  0.00  0.00     0.251 C 
HETATM    4  O           1     -18.191  -9.052  -3.355  0.00  0.00    -0.271 OA
HETATM    5  H           1     -20.921  -9.393  -2.692  0.00  0.00     0.163 HD
BRANCH   3   6
HETATM    6  C           1     -19.308  -9.912  -5.245  0.00  0.00     0.302 C 
BRANCH   6   7
HETATM    7  C           1     -19.115 -11.411  -5.050  0.00  0.00     0.153 C 
HETATM    8  C           1     -17.714 -11.804  -5.500  0.00  0.00     0.042 C 
BRANCH   7   9
HETATM    9  O           1     -19.277 -11.732  -3.695  0.00  0.00    -0.393 OA
HETATM   10  H           1     -20.201 -11.703  -3.515  0.00  0.00     0.210 HD
ENDBRANCH   7   9
ENDBRANCH   6   7
BRANCH   6  11
HETATM   11  N           1     -18.219  -9.380  -6.127  0.00  0.00    -0.064 N 
HETATM   12  H           1     -18.473  -9.537  -7.129  0.00  0.00     0.275 HD
HETATM   13  H           1     -18.101  -8.355  -5.955  0.00  0.00     0.275 HD
HETATM   14  H           1     -17.323  -9.875  -5.914  0.00  0.00     0.275 HD
ENDBRANCH   6  11
ENDBRANCH   3   6
ENDBRANCH   1   2
BRANCH   1  15
HETATM   15  C           1     -21.552  -6.893  -2.336  0.00  0.00     0.197 C 
HETATM   16  O           1     -21.329  -7.421  -1.225  0.00  0.00    -0.646 OA
HETATM   17  O           1     -22.319  -5.909  -2.419  0.00  0.00    -0.646 OA
ENDBRANCH   1  15
BRANCH   1  18
HETATM   18  C           1     -21.909  -7.487  -4.714  0.00  0.00     0.074 C 
BRANCH  18  19
HETATM   19  C           1     -21.533  -6.482  -5.758  0.00  0.00    -0.056 A 
HETATM   20  C           1     -22.469  -5.541  -6.188  0.00  0.00     0.010 A 
HETATM   21  C           1     -22.120  -4.604  -7.162  0.00  0.00     0.038 A 
HETATM   22  C           1     -20.836  -4.610  -7.704  0.00  0.00     0.081 A 
HETATM   23  C           1     -19.900  -5.551  -7.275  0.00  0.00     0.038 A 
HETATM   24  C           1     -20.249  -6.488  -6.301  0.00  0.00     0.010 A 
BRANCH  22  25
HETATM   25  O           1     -20.496  -3.700  -8.650  0.00  0.00    -0.247 OA
BRANCH  25  26
HETATM   26  P           1     -20.691  -4.110 -10.200  0.00  0.00     0.411 P 
HETATM   27  O           1     -19.755  -5.205 -10.542  0.00  0.00    -0.624 OA
HETATM   28  O           1     -20.412  -2.938 -11.059  0.00  0.00    -0.624 OA
BRANCH  26  29
HETATM   29  O           1     -22.209  -4.607 -10.439  0.00  0.00    -0.300 OA
HETATM   30  H           1     -22.710  -4.198  -9.755  0.00  0.00     0.223 HD
ENDBRANCH  26  29
ENDBRANCH  25  26
ENDBRANCH  22  25
ENDBRANCH  18  19
ENDBRANCH   1  18
TORSDOF 11
ENDMDL
MODEL 6
REMARK VINA RESULT:      -6.1     14.667     17.071
REMARK  11 active torsions:
REMARK  status: ('A' for Active; 'I' for Inactive)
REMARK       I    between atoms: C_1  and  N_2 
REMARK    1  A    between atoms: C_1  and  C_26 
REMARK    2  A    between atoms: N_2  and  C_10 
REMARK    3  A    between atoms: O_5  and  C_8 
REMARK    4  A    between atoms: C_6  and  O_13 
REMARK    5  A    between atoms: C_8  and  C_26 
REMARK    6  A    between atoms: C_10  and  C_17 
REMARK    7  A    between atoms: C_10  and  C_18 
REMARK    8  A    between atoms: O_13  and  P_27 
REMARK    9  A    between atoms: C_18  and  C_19 
REMARK   10  A    between atoms: O_21  and  P_27 
REMARK   11  A    between atoms: N_24  and  C_26 
ROOT
HETATM    1  C           1     -21.176  -9.368  -0.765  0.00  0.00     0.189 C 
ENDROOT
BRANCH   1   2
HETATM    2  N           1     -22.551  -9.663  -1.118  0.00  0.00    -0.344 N 
HETATM    3  C           1     -22.984 -10.962  -1.156  0.00  0.00     0.251 C 
HETATM    4  O           1     -23.448 -11.472  -0.164  0.00  0.00    -0.271 OA
HETATM    5  H           1     -23.189  -8.910  -1.338  0.00  0.00     0.163 HD
BRANCH   3   6
HETATM    6  C           1     -22.882 -11.754  -2.436  0.00  0.00     0.302 C 
BRANCH   6   7
HETATM    7  C           1     -21.661 -12.664  -2.374  0.00  0.00     0.153 C 
HETATM    8  C           1     -20.557 -12.089  -3.252  0.00  0.00     0.042 C 
BRANCH   7   9
HETATM    9  O           1     -21.207 -12.749  -1.051  0.00  0.00    -0.393 OA
HETATM   10  H           1     -21.890 -13.165  -0.553  0.00  0.00     0.210 HD
ENDBRANCH   7   9
ENDBRANCH   6   7
BRANCH   6  11
HETATM   11  N           1     -22.745 -10.813  -3.596  0.00  0.00    -0.064 N 
HETATM   12  H           1     -23.388 -11.110  -4.364  0.00  0.00     0.275 HD
HETATM   13  H           1     -22.993  -9.845  -3.289  0.00  0.00     0.275 HD
HETATM   14  H           1     -21.759 -10.828  -3.942  0.00  0.00     0.275 HD
ENDBRANCH   6  11
ENDBRANCH   3   6
ENDBRANCH   1   2
BRANCH   1  15
HETATM   15  C           1     -20.957  -9.671   0.697  0.00  0.00     0.197 C 
HETATM   16  O           1     -20.473 -10.770   1.042  0.00  0.00    -0.646 OA
HETATM   17  O           1     -21.259  -8.821   1.563  0.00  0.00    -0.646 OA
ENDBRANCH   1  15
BRANCH   1  18
HETATM   18  C           1     -20.888  -7.896  -1.029  0.00  0.00     0.074 C 
BRANCH  18  19
HETATM   19  C           1     -20.940  -7.633  -2.502  0.00  0.00    -0.056 A 
HETATM   20  C           1     -20.089  -8.325  -3.363  0.00  0.00     0.010 A 
HETATM   21  C           1     -20.137  -8.080  -4.737  0.00  0.00     0.038 A 
HETATM   22  C           1     -21.035  -7.143  -5.246  0.00  0.00     0.081 A 
HETATM   23  C           1     -21.886  -6.450  -4.384  0.00  0.00     0.038 A 
HETATM   24  C           1     -21.838  -6.695  -3.011  0.00  0.00     0.010 A 
BRANCH  22  25
HETATM   25  O           1     -21.082  -6.904  -6.579  0.00  0.00    -0.247 OA
BRANCH  25  26
HETATM   26  P           1     -20.697  -5.424  -7.098  0.00  0.00     0.411 P 
HETATM   27  O           1     -20.102  -5.514  -8.450  0.00  0.00    -0.624 OA
HETATM   28  O           1     -19.719  -4.814  -6.169  0.00  0.00    -0.624 OA
BRANCH  26  29
HETATM   29  O           1     -22.028  -4.511  -7.157  0.00  0.00    -0.300 OA
HETATM   30  H           1     -21.718  -3.624  -7.115  0.00  0.00     0.223 HD
ENDBRANCH  26  29
ENDBRANCH  25  26
ENDBRANCH  22  25
ENDBRANCH  18  19
ENDBRANCH   1  18
TORSDOF 11
ENDMDL
MODEL 7
REMARK VINA RESULT:      -6.1     16.138     17.777
REMARK  11 active torsions:
REMARK  status: ('A' for Active; 'I' for Inactive)
REMARK       I    between atoms: C_1  and  N_2 
REMARK    1  A    between atoms: C_1  and  C_26 
REMARK    2  A    between atoms: N_2  and  C_10 
REMARK    3  A    between atoms: O_5  and  C_8 
REMARK    4  A    between atoms: C_6  and  O_13 
REMARK    5  A    between atoms: C_8  and  C_26 
REMARK    6  A    between atoms: C_10  and  C_17 
REMARK    7  A    between atoms: C_10  and  C_18 
REMARK    8  A    between atoms: O_13  and  P_27 
REMARK    9  A    between atoms: C_18  and  C_19 
REMARK   10  A    between atoms: O_21  and  P_27 
REMARK   11  A    between atoms: N_24  and  C_26 
ROOT
HETATM    1  C           1     -21.049  -7.804  -2.454  0.00  0.00     0.189 C 
ENDROOT
BRANCH   1   2
HETATM    2  N           1     -21.993  -8.343  -1.495  0.00  0.00    -0.344 N 
HETATM    3  C           1     -21.543  -8.876  -0.317  0.00  0.00     0.251 C 
HETATM    4  O           1     -21.420  -8.172   0.656  0.00  0.00    -0.271 OA
HETATM    5  H           1     -22.984  -8.325  -1.697  0.00  0.00     0.163 HD
BRANCH   3   6
HETATM    6  C           1     -21.201 -10.344  -0.236  0.00  0.00     0.302 C 
BRANCH   6   7
HETATM    7  C           1     -22.478 -11.169  -0.342  0.00  0.00     0.153 C 
HETATM    8  C           1     -22.421 -12.320   0.655  0.00  0.00     0.042 C 
BRANCH   7   9
HETATM    9  O           1     -23.584 -10.358  -0.055  0.00  0.00    -0.393 OA
HETATM   10  H           1     -24.326 -10.743  -0.489  0.00  0.00     0.210 HD
ENDBRANCH   7   9
ENDBRANCH   6   7
BRANCH   6  11
HETATM   11  N           1     -20.530 -10.629   1.074  0.00  0.00    -0.064 N 
HETATM   12  H           1     -20.992 -11.447   1.532  0.00  0.00     0.275 HD
HETATM   13  H           1     -19.521 -10.848   0.908  0.00  0.00     0.275 HD
HETATM   14  H           1     -20.609  -9.792   1.695  0.00  0.00     0.275 HD
ENDBRANCH   6  11
ENDBRANCH   3   6
ENDBRANCH   1   2
BRANCH   1  15
HETATM   15  C           1     -21.507  -6.436  -2.896  0.00  0.00     0.197 C 
HETATM   16  O           1     -21.095  -5.957  -3.975  0.00  0.00    -0.646 OA
HETATM   17  O           1     -22.297  -5.781  -2.183  0.00  0.00    -0.646 OA
ENDBRANCH   1  15
BRANCH   1  18
HETATM   18  C           1     -20.969  -8.728  -3.663  0.00  0.00     0.074 C 
BRANCH  18  19
HETATM   19  C           1     -19.542  -9.105  -3.910  0.00  0.00    -0.056 A 
HETATM   20  C           1     -19.084  -9.278  -5.216  0.00  0.00     0.010 A 
HETATM   21  C           1     -17.753  -9.630  -5.447  0.00  0.00     0.038 A 
HETATM   22  C           1     -16.882  -9.808  -4.373  0.00  0.00     0.081 A 
HETATM   23  C           1     -17.341  -9.635  -3.067  0.00  0.00     0.038 A 
HETATM   24  C           1     -18.671  -9.283  -2.835  0.00  0.00     0.010 A 
BRANCH  22  25
HETATM   25  O           1     -15.590 -10.150  -4.597  0.00  0.00    -0.247 OA
BRANCH  25  26
HETATM   26  P           1     -15.281 -11.651  -5.106  0.00  0.00     0.411 P 
HETATM   27  O           1     -13.975 -12.095  -4.569  0.00  0.00    -0.624 OA
HETATM   28  O           1     -15.238 -11.671  -6.586  0.00  0.00    -0.624 OA
BRANCH  26  29
HETATM   29  O           1     -16.442 -12.646  -4.586  0.00  0.00    -0.300 OA
HETATM   30  H           1     -16.074 -13.509  -4.657  0.00  0.00     0.223 HD
ENDBRANCH  26  29
ENDBRANCH  25  26
ENDBRANCH  22  25
ENDBRANCH  18  19
ENDBRANCH   1  18
TORSDOF 11
ENDMDL
MODEL 8
REMARK VINA RESULT:      -6.0     14.167     16.593
REMARK  11 active torsions:
REMARK  status: ('A' for Active; 'I' for Inactive)
REMARK       I    between atoms: C_1  and  N_2 
REMARK    1  A    between atoms: C_1  and  C_26 
REMARK    2  A    between atoms: N_2  and  C_10 
REMARK    3  A    between atoms: O_5  and  C_8 
REMARK    4  A    between atoms: C_6  and  O_13 
REMARK    5  A    between atoms: C_8  and  C_26 
REMARK    6  A    between atoms: C_10  and  C_17 
REMARK    7  A    between atoms: C_10  and  C_18 
REMARK    8  A    between atoms: O_13  and  P_27 
REMARK    9  A    between atoms: C_18  and  C_19 
REMARK   10  A    between atoms: O_21  and  P_27 
REMARK   11  A    between atoms: N_24  and  C_26 
ROOT
HETATM    1  C           1     -21.391  -7.814  -2.212  0.00  0.00     0.189 C 
ENDROOT
BRANCH   1   2
HETATM    2  N           1     -21.244  -6.611  -3.008  0.00  0.00    -0.344 N 
HETATM    3  C           1     -21.640  -6.606  -4.319  0.00  0.00     0.251 C 
HETATM    4  O           1     -22.771  -6.294  -4.607  0.00  0.00    -0.271 OA
HETATM    5  H           1     -20.849  -5.777  -2.595  0.00  0.00     0.163 HD
BRANCH   3   6
HETATM    6  C           1     -20.662  -6.990  -5.403  0.00  0.00     0.302 C 
BRANCH   6   7
HETATM    7  C           1     -20.635  -5.902  -6.469  0.00  0.00     0.153 C 
HETATM    8  C           1     -20.015  -4.638  -5.888  0.00  0.00     0.042 C 
BRANCH   7   9
HETATM    9  O           1     -19.871  -6.336  -7.561  0.00  0.00    -0.393 OA
HETATM   10  H           1     -20.230  -5.925  -8.328  0.00  0.00     0.210 HD
ENDBRANCH   7   9
ENDBRANCH   6   7
BRANCH   6  11
HETATM   11  N           1     -21.088  -8.286  -6.023  0.00  0.00    -0.064 N 
HETATM   12  H           1     -20.816  -8.296  -7.032  0.00  0.00     0.275 HD
HETATM   13  H           1     -20.619  -9.079  -5.529  0.00  0.00     0.275 HD
HETATM   14  H           1     -22.125  -8.388  -5.942  0.00  0.00     0.275 HD
ENDBRANCH   6  11
ENDBRANCH   3   6
ENDBRANCH   1   2
BRANCH   1  15
HETATM   15  C           1     -22.262  -7.521  -1.015  0.00  0.00     0.197 C 
HETATM   16  O           1     -22.626  -8.452  -0.263  0.00  0.00    -0.646 OA
HETATM   17  O           1     -22.619  -6.347  -0.774  0.00  0.00    -0.646 OA
ENDBRANCH   1  15
BRANCH   1  18
HETATM   18  C           1     -20.021  -8.283  -1.741  0.00  0.00     0.074 C 
BRANCH  18  19
HETATM   19  C           1     -19.526  -9.368  -2.646  0.00  0.00    -0.056 A 
HETATM   20  C           1     -18.186  -9.396  -3.032  0.00  0.00     0.010 A 
HETATM   21  C           1     -17.724 -10.408  -3.876  0.00  0.00     0.038 A 
HETATM   22  C           1     -18.603 -11.389  -4.333  0.00  0.00     0.081 A 
HETATM   23  C           1     -19.944 -11.360  -3.948  0.00  0.00     0.038 A 
HETATM   24  C           1     -20.405 -10.348  -3.104  0.00  0.00     0.010 A 
BRANCH  22  25
HETATM   25  O           1     -18.156 -12.371  -5.153  0.00  0.00    -0.247 OA
BRANCH  25  26
HETATM   26  P           1     -18.487 -12.251  -6.729  0.00  0.00     0.411 P 
HETATM   27  O           1     -18.696 -10.830  -7.083  0.00  0.00    -0.624 OA
HETATM   28  O           1     -19.714 -13.021  -7.035  0.00  0.00    -0.624 OA
BRANCH  26  29
HETATM   29  O           1     -17.251 -12.842  -7.585  0.00  0.00    -0.300 OA
HETATM   30  H           1     -17.367 -12.496  -8.453  0.00  0.00     0.223 HD
ENDBRANCH  26  29
ENDBRANCH  25  26
ENDBRANCH  22  25
ENDBRANCH  18  19
ENDBRANCH   1  18
TORSDOF 11
ENDMDL
MODEL 9
REMARK VINA RESULT:      -5.9     12.920     15.535
REMARK  11 active torsions:
REMARK  status: ('A' for Active; 'I' for Inactive)
REMARK       I    between atoms: C_1  and  N_2 
REMARK    1  A    between atoms: C_1  and  C_26 
REMARK    2  A    between atoms: N_2  and  C_10 
REMARK    3  A    between atoms: O_5  and  C_8 
REMARK    4  A    between atoms: C_6  and  O_13 
REMARK    5  A    between atoms: C_8  and  C_26 
REMARK    6  A    between atoms: C_10  and  C_17 
REMARK    7  A    between atoms: C_10  and  C_18 
REMARK    8  A    between atoms: O_13  and  P_27 
REMARK    9  A    between atoms: C_18  and  C_19 
REMARK   10  A    between atoms: O_21  and  P_27 
REMARK   11  A    between atoms: N_24  and  C_26 
ROOT
HETATM    1  C           1     -21.057  -6.831  -6.020  0.00  0.00     0.189 C 
ENDROOT
BRANCH   1   2
HETATM    2  N           1     -20.601  -5.879  -7.015  0.00  0.00    -0.344 N 
HETATM    3  C           1     -21.382  -4.802  -7.339  0.00  0.00     0.251 C 
HETATM    4  O           1     -21.262  -3.765  -6.731  0.00  0.00    -0.271 OA
HETATM    5  H           1     -19.707  -6.011  -7.468  0.00  0.00     0.163 HD
BRANCH   3   6
HETATM    6  C           1     -22.392  -4.912  -8.455  0.00  0.00     0.302 C 
BRANCH   6   7
HETATM    7  C           1     -21.748  -4.478  -9.766  0.00  0.00     0.153 C 
HETATM    8  C           1     -22.615  -3.415 -10.428  0.00  0.00     0.042 C 
BRANCH   7   9
HETATM    9  O           1     -20.475  -3.948  -9.510  0.00  0.00    -0.393 OA
HETATM   10  H           1     -20.593  -3.034  -9.317  0.00  0.00     0.210 HD
ENDBRANCH   7   9
ENDBRANCH   6   7
BRANCH   6  11
HETATM   11  N           1     -23.563  -4.025  -8.157  0.00  0.00    -0.064 N 
HETATM   12  H           1     -24.450  -4.528  -8.388  0.00  0.00     0.275 HD
HETATM   13  H           1     -23.560  -3.773  -7.143  0.00  0.00     0.275 HD
HETATM   14  H           1     -23.498  -3.155  -8.733  0.00  0.00     0.275 HD
ENDBRANCH   6  11
ENDBRANCH   3   6
ENDBRANCH   1   2
BRANCH   1  15
HETATM   15  C           1     -21.651  -6.088  -4.849  0.00  0.00     0.197 C 
HETATM   16  O           1     -22.889  -6.090  -4.671  0.00  0.00    -0.646 OA
HETATM   17  O           1     -20.907  -5.472  -4.057  0.00  0.00    -0.646 OA
ENDBRANCH   1  15
BRANCH   1  18
HETATM   18  C           1     -19.879  -7.672  -5.545  0.00  0.00     0.074 C 
BRANCH  18  19
HETATM   19  C           1     -20.354  -8.672  -4.538  0.00  0.00    -0.056 A 
HETATM   20  C           1     -21.460  -9.474  -4.821  0.00  0.00     0.010 A 
HETATM   21  C           1     -21.903 -10.407  -3.882  0.00  0.00     0.038 A 
HETATM   22  C           1     -21.240 -10.537  -2.662  0.00  0.00     0.081 A 
HETATM   23  C           1     -20.135  -9.735  -2.379  0.00  0.00     0.038 A 
HETATM   24  C           1     -19.691  -8.802  -3.318  0.00  0.00     0.010 A 
BRANCH  22  25
HETATM   25  O           1     -21.671 -11.443  -1.750  0.00  0.00    -0.247 OA
BRANCH  25  26
HETATM   26  P           1     -22.890 -11.019  -0.779  0.00  0.00     0.411 P 
HETATM   27  O           1     -22.740 -11.701   0.526  0.00  0.00    -0.624 OA
HETATM   28  O           1     -24.174 -11.416  -1.398  0.00  0.00    -0.624 OA
BRANCH  26  29
HETATM   29  O           1     -22.869  -9.420  -0.556  0.00  0.00    -0.300 OA
HETATM   30  H           1     -23.117  -9.296   0.344  0.00  0.00     0.223 HD
ENDBRANCH  26  29
ENDBRANCH  25  26
ENDBRANCH  22  25
ENDBRANCH  18  19
ENDBRANCH   1  18
TORSDOF 11
ENDMDL
