MODEL 1
REMARK VINA RESULT:      -6.7      0.000      0.000
REMARK  10 active torsions:
REMARK  status: ('A' for Active; 'I' for Inactive)
REMARK    1  A    between atoms: C_3  and  C_29 
REMARK    2  A    between atoms: C_3  and  C_5 
REMARK    3  A    between atoms: C_5  and  C_6 
REMARK    4  A    between atoms: C_5  and  N_15 
REMARK    5  A    between atoms: C_11  and  C_12 
REMARK    6  A    between atoms: C_11  and  O_23 
REMARK    7  A    between atoms: C_12  and  C_14 
REMARK    8  A    between atoms: C_12  and  N_20 
REMARK       I    between atoms: C_14  and  N_15 
REMARK       I    between atoms: N_21  and  C_26 
REMARK    9  A    between atoms: N_21  and  C_22 
REMARK   10  A    between atoms: C_22  and  C_29 
REMARK       I    between atoms: N_25  and  C_26 
ROOT
HETATM    1  C           1     -34.987  -0.582 -11.705  0.00  0.00     0.185 C 
ENDROOT
BRANCH   1   2
HETATM    2  C           1     -35.028   0.484 -12.792  0.00  0.00     0.038 C 
BRANCH   2   3
HETATM    3  C           1     -36.223   0.234 -13.703  0.00  0.00     0.023 C 
BRANCH   3   4
HETATM    4  C           1     -35.790   0.362 -15.157  0.00  0.00     0.138 C 
BRANCH   4   5
HETATM    5  N           1     -35.006  -0.821 -15.542  0.00  0.00    -0.227 N 
HETATM    6  H           1     -34.216  -1.148 -14.933  0.00  0.00     0.177 HD
HETATM    7  C           1     -35.285  -1.445 -16.607  0.00  0.00     0.665 C 
HETATM    8  N           1     -36.238  -1.051 -17.341  0.00  0.00    -0.235 N 
HETATM    9  N           1     -34.593  -2.492 -16.948  0.00  0.00    -0.235 N 
HETATM   10  H           1     -36.798  -0.206 -17.066  0.00  0.00     0.174 HD
HETATM   11  H           1     -36.469  -1.569 -18.224  0.00  0.00     0.174 HD
HETATM   12  H           1     -34.823  -3.007 -17.827  0.00  0.00     0.174 HD
HETATM   13  H           1     -33.806  -2.817 -16.341  0.00  0.00     0.174 HD
ENDBRANCH   4   5
ENDBRANCH   3   4
ENDBRANCH   2   3
ENDBRANCH   1   2
BRANCH   1  14
HETATM   14  C           1     -36.265  -0.534 -10.905  0.00  0.00     0.196 C 
HETATM   15  O           1     -37.018  -1.531 -10.873  0.00  0.00    -0.646 OA
HETATM   16  O           1     -36.570   0.500 -10.274  0.00  0.00    -0.646 OA
ENDBRANCH   1  14
BRANCH   1  17
HETATM   17  N           1     -34.847  -1.889 -12.315  0.00  0.00    -0.345 N 
HETATM   18  C           1     -33.908  -2.767 -11.845  0.00  0.00     0.251 C 
HETATM   19  O           1     -33.196  -2.453 -10.922  0.00  0.00    -0.271 OA
HETATM   20  H           1     -35.444  -2.153 -13.089  0.00  0.00     0.163 HD
BRANCH  18  21
HETATM   21  C           1     -33.764  -4.129 -12.481  0.00  0.00     0.302 C 
BRANCH  21  22
HETATM   22  C           1     -34.762  -5.091 -11.852  0.00  0.00     0.153 C 
HETATM   23  C           1     -34.033  -6.019 -10.889  0.00  0.00     0.042 C 
BRANCH  22  24
HETATM   24  O           1     -35.736  -4.366 -11.153  0.00  0.00    -0.393 OA
HETATM   25  H           1     -36.020  -4.906 -10.436  0.00  0.00     0.210 HD
ENDBRANCH  22  24
ENDBRANCH  21  22
BRANCH  21  26
HETATM   26  N           1     -32.371  -4.639 -12.259  0.00  0.00    -0.064 N 
HETATM   27  H           1     -31.702  -4.092 -12.848  0.00  0.00     0.275 HD
HETATM   28  H           1     -32.117  -4.531 -11.251  0.00  0.00     0.275 HD
HETATM   29  H           1     -32.323  -5.649 -12.524  0.00  0.00     0.275 HD
ENDBRANCH  21  26
ENDBRANCH  18  21
ENDBRANCH   1  17
TORSDOF 10
ENDMDL
MODEL 2
REMARK VINA RESULT:      -6.1      3.113      4.992
REMARK  10 active torsions:
REMARK  status: ('A' for Active; 'I' for Inactive)
REMARK    1  A    between atoms: C_3  and  C_29 
REMARK    2  A    between atoms: C_3  and  C_5 
REMARK    3  A    between atoms: C_5  and  C_6 
REMARK    4  A    between atoms: C_5  and  N_15 
REMARK    5  A    between atoms: C_11  and  C_12 
REMARK    6  A    between atoms: C_11  and  O_23 
REMARK    7  A    between atoms: C_12  and  C_14 
REMARK    8  A    between atoms: C_12  and  N_20 
REMARK       I    between atoms: C_14  and  N_15 
REMARK       I    between atoms: N_21  and  C_26 
REMARK    9  A    between atoms: N_21  and  C_22 
REMARK   10  A    between atoms: C_22  and  C_29 
REMARK       I    between atoms: N_25  and  C_26 
ROOT
HETATM    1  C           1     -35.924  -0.918 -13.279  0.00  0.00     0.185 C 
ENDROOT
BRANCH   1   2
HETATM    2  C           1     -37.078  -0.282 -12.515  0.00  0.00     0.038 C 
BRANCH   2   3
HETATM    3  C           1     -36.978  -0.654 -11.041  0.00  0.00     0.023 C 
BRANCH   3   4
HETATM    4  C           1     -36.827   0.611 -10.207  0.00  0.00     0.138 C 
BRANCH   4   5
HETATM    5  N           1     -36.597   0.247  -8.802  0.00  0.00    -0.227 N 
HETATM    6  H           1     -36.149  -0.672  -8.564  0.00  0.00     0.177 HD
HETATM    7  C           1     -36.940   1.042  -7.878  0.00  0.00     0.665 C 
HETATM    8  N           1     -37.481   2.150  -8.164  0.00  0.00    -0.235 N 
HETATM    9  N           1     -36.737   0.720  -6.635  0.00  0.00    -0.235 N 
HETATM   10  H           1     -37.645   2.410  -9.168  0.00  0.00     0.174 HD
HETATM   11  H           1     -37.766   2.809  -7.398  0.00  0.00     0.174 HD
HETATM   12  H           1     -37.021   1.376  -5.872  0.00  0.00     0.174 HD
HETATM   13  H           1     -36.291  -0.194  -6.398  0.00  0.00     0.174 HD
ENDBRANCH   4   5
ENDBRANCH   3   4
ENDBRANCH   2   3
ENDBRANCH   1   2
BRANCH   1  14
HETATM   14  C           1     -35.069   0.164 -13.891  0.00  0.00     0.196 C 
HETATM   15  O           1     -34.683   1.125 -13.190  0.00  0.00    -0.646 OA
HETATM   16  O           1     -34.746   0.101 -15.096  0.00  0.00    -0.646 OA
ENDBRANCH   1  14
BRANCH   1  17
HETATM   17  N           1     -35.122  -1.711 -12.369  0.00  0.00    -0.345 N 
HETATM   18  C           1     -34.405  -2.778 -12.841  0.00  0.00     0.251 C 
HETATM   19  O           1     -34.442  -3.059 -14.014  0.00  0.00    -0.271 OA
HETATM   20  H           1     -35.091  -1.476 -11.385  0.00  0.00     0.163 HD
BRANCH  18  21
HETATM   21  C           1     -33.570  -3.604 -11.892  0.00  0.00     0.302 C 
BRANCH  21  22
HETATM   22  C           1     -34.094  -5.033 -11.867  0.00  0.00     0.153 C 
HETATM   23  C           1     -34.212  -5.505 -10.424  0.00  0.00     0.042 C 
BRANCH  22  24
HETATM   24  O           1     -35.354  -5.081 -12.479  0.00  0.00    -0.393 OA
HETATM   25  H           1     -35.233  -4.829 -13.378  0.00  0.00     0.210 HD
ENDBRANCH  22  24
ENDBRANCH  21  22
BRANCH  21  26
HETATM   26  N           1     -33.652  -3.018 -10.515  0.00  0.00    -0.064 N 
HETATM   27  H           1     -33.650  -1.975 -10.579  0.00  0.00     0.275 HD
HETATM   28  H           1     -34.534  -3.337 -10.053  0.00  0.00     0.275 HD
HETATM   29  H           1     -32.830  -3.333  -9.952  0.00  0.00     0.275 HD
ENDBRANCH  21  26
ENDBRANCH  18  21
ENDBRANCH   1  17
TORSDOF 10
ENDMDL
MODEL 3
REMARK VINA RESULT:      -6.0      2.187      5.239
REMARK  10 active torsions:
REMARK  status: ('A' for Active; 'I' for Inactive)
REMARK    1  A    between atoms: C_3  and  C_29 
REMARK    2  A    between atoms: C_3  and  C_5 
REMARK    3  A    between atoms: C_5  and  C_6 
REMARK    4  A    between atoms: C_5  and  N_15 
REMARK    5  A    between atoms: C_11  and  C_12 
REMARK    6  A    between atoms: C_11  and  O_23 
REMARK    7  A    between atoms: C_12  and  C_14 
REMARK    8  A    between atoms: C_12  and  N_20 
REMARK       I    between atoms: C_14  and  N_15 
REMARK       I    between atoms: N_21  and  C_26 
REMARK    9  A    between atoms: N_21  and  C_22 
REMARK   10  A    between atoms: C_22  and  C_29 
REMARK       I    between atoms: N_25  and  C_26 
ROOT
HETATM    1  C           1     -35.534  -1.560 -11.723  0.00  0.00     0.185 C 
ENDROOT
BRANCH   1   2
HETATM    2  C           1     -34.154  -1.454 -11.086  0.00  0.00     0.038 C 
BRANCH   2   3
HETATM    3  C           1     -33.846  -2.738 -10.325  0.00  0.00     0.023 C 
BRANCH   3   4
HETATM    4  C           1     -33.248  -3.763 -11.279  0.00  0.00     0.138 C 
BRANCH   4   5
HETATM    5  N           1     -33.615  -5.116 -10.838  0.00  0.00    -0.227 N 
HETATM    6  H           1     -33.249  -5.488  -9.927  0.00  0.00     0.177 HD
HETATM    7  C           1     -34.371  -5.833 -11.558  0.00  0.00     0.665 C 
HETATM    8  N           1     -34.812  -5.384 -12.656  0.00  0.00    -0.235 N 
HETATM    9  N           1     -34.696  -7.030 -11.167  0.00  0.00    -0.235 N 
HETATM   10  H           1     -34.550  -4.417 -12.971  0.00  0.00     0.174 HD
HETATM   11  H           1     -35.439  -5.979 -13.252  0.00  0.00     0.174 HD
HETATM   12  H           1     -35.320  -7.621 -11.761  0.00  0.00     0.174 HD
HETATM   13  H           1     -34.332  -7.400 -10.261  0.00  0.00     0.174 HD
ENDBRANCH   4   5
ENDBRANCH   3   4
ENDBRANCH   2   3
ENDBRANCH   1   2
BRANCH   1  14
HETATM   14  C           1     -36.567  -0.992 -10.781  0.00  0.00     0.196 C 
HETATM   15  O           1     -37.783  -1.149 -11.021  0.00  0.00    -0.646 OA
HETATM   16  O           1     -36.207  -0.366  -9.761  0.00  0.00    -0.646 OA
ENDBRANCH   1  14
BRANCH   1  17
HETATM   17  N           1     -35.550  -0.813 -12.965  0.00  0.00    -0.345 N 
HETATM   18  C           1     -35.179  -1.422 -14.134  0.00  0.00     0.251 C 
HETATM   19  O           1     -34.838  -2.579 -14.130  0.00  0.00    -0.271 OA
HETATM   20  H           1     -35.836   0.158 -12.968  0.00  0.00     0.163 HD
BRANCH  18  21
HETATM   21  C           1     -35.196  -0.643 -15.428  0.00  0.00     0.302 C 
BRANCH  21  22
HETATM   22  C           1     -36.470   0.188 -15.502  0.00  0.00     0.153 C 
HETATM   23  C           1     -36.110   1.644 -15.763  0.00  0.00     0.042 C 
BRANCH  22  24
HETATM   24  O           1     -37.279  -0.287 -16.543  0.00  0.00    -0.393 OA
HETATM   25  H           1     -37.833  -0.957 -16.178  0.00  0.00     0.210 HD
ENDBRANCH  22  24
ENDBRANCH  21  22
BRANCH  21  26
HETATM   26  N           1     -35.154  -1.597 -16.584  0.00  0.00    -0.064 N 
HETATM   27  H           1     -34.882  -2.546 -16.243  0.00  0.00     0.275 HD
HETATM   28  H           1     -36.097  -1.644 -17.032  0.00  0.00     0.275 HD
HETATM   29  H           1     -34.452  -1.265 -17.284  0.00  0.00     0.275 HD
ENDBRANCH  21  26
ENDBRANCH  18  21
ENDBRANCH   1  17
TORSDOF 10
ENDMDL
MODEL 4
REMARK VINA RESULT:      -5.9      2.823      6.737
REMARK  10 active torsions:
REMARK  status: ('A' for Active; 'I' for Inactive)
REMARK    1  A    between atoms: C_3  and  C_29 
REMARK    2  A    between atoms: C_3  and  C_5 
REMARK    3  A    between atoms: C_5  and  C_6 
REMARK    4  A    between atoms: C_5  and  N_15 
REMARK    5  A    between atoms: C_11  and  C_12 
REMARK    6  A    between atoms: C_11  and  O_23 
REMARK    7  A    between atoms: C_12  and  C_14 
REMARK    8  A    between atoms: C_12  and  N_20 
REMARK       I    between atoms: C_14  and  N_15 
REMARK       I    between atoms: N_21  and  C_26 
REMARK    9  A    between atoms: N_21  and  C_22 
REMARK   10  A    between atoms: C_22  and  C_29 
REMARK       I    between atoms: N_25  and  C_26 
ROOT
HETATM    1  C           1     -34.563  -3.533 -11.420  0.00  0.00     0.185 C 
ENDROOT
BRANCH   1   2
HETATM    2  C           1     -35.286  -4.811 -11.011  0.00  0.00     0.038 C 
BRANCH   2   3
HETATM    3  C           1     -34.344  -5.689 -10.198  0.00  0.00     0.023 C 
BRANCH   3   4
HETATM    4  C           1     -35.029  -7.010  -9.879  0.00  0.00     0.138 C 
BRANCH   4   5
HETATM    5  N           1     -34.413  -8.086 -10.669  0.00  0.00    -0.227 N 
HETATM    6  H           1     -34.329  -7.989 -11.711  0.00  0.00     0.177 HD
HETATM    7  C           1     -33.985  -9.129 -10.093  0.00  0.00     0.665 C 
HETATM    8  N           1     -34.087  -9.245  -8.837  0.00  0.00    -0.235 N 
HETATM    9  N           1     -33.440 -10.080 -10.792  0.00  0.00    -0.235 N 
HETATM   10  H           1     -34.527  -8.477  -8.272  0.00  0.00     0.174 HD
HETATM   11  H           1     -33.731 -10.110  -8.359  0.00  0.00     0.174 HD
HETATM   12  H           1     -33.086 -10.940 -10.316  0.00  0.00     0.174 HD
HETATM   13  H           1     -33.356  -9.983 -11.828  0.00  0.00     0.174 HD
ENDBRANCH   4   5
ENDBRANCH   3   4
ENDBRANCH   2   3
ENDBRANCH   1   2
BRANCH   1  14
HETATM   14  C           1     -33.726  -3.799 -12.646  0.00  0.00     0.196 C 
HETATM   15  O           1     -34.217  -3.635 -13.784  0.00  0.00    -0.646 OA
HETATM   16  O           1     -32.543  -4.182 -12.525  0.00  0.00    -0.646 OA
ENDBRANCH   1  14
BRANCH   1  17
HETATM   17  N           1     -35.538  -2.501 -11.715  0.00  0.00    -0.345 N 
HETATM   18  C           1     -35.637  -1.402 -10.904  0.00  0.00     0.251 C 
HETATM   19  O           1     -34.913  -1.292  -9.945  0.00  0.00    -0.271 OA
HETATM   20  H           1     -36.145  -2.593 -12.519  0.00  0.00     0.163 HD
BRANCH  18  21
HETATM   21  C           1     -36.652  -0.327 -11.212  0.00  0.00     0.302 C 
BRANCH  21  22
HETATM   22  C           1     -36.495   0.118 -12.660  0.00  0.00     0.153 C 
HETATM   23  C           1     -35.026   0.398 -12.948  0.00  0.00     0.042 C 
BRANCH  22  24
HETATM   24  O           1     -36.954  -0.893 -13.514  0.00  0.00    -0.393 OA
HETATM   25  H           1     -36.985  -0.527 -14.382  0.00  0.00     0.210 HD
ENDBRANCH  22  24
ENDBRANCH  21  22
BRANCH  21  26
HETATM   26  N           1     -36.429   0.844 -10.303  0.00  0.00    -0.064 N 
HETATM   27  H           1     -36.986   0.716  -9.427  0.00  0.00     0.275 HD
HETATM   28  H           1     -35.414   0.913 -10.064  0.00  0.00     0.275 HD
HETATM   29  H           1     -36.734   1.721 -10.783  0.00  0.00     0.275 HD
ENDBRANCH  21  26
ENDBRANCH  18  21
ENDBRANCH   1  17
TORSDOF 10
ENDMDL
MODEL 5
REMARK VINA RESULT:      -5.7     13.472     15.734
REMARK  10 active torsions:
REMARK  status: ('A' for Active; 'I' for Inactive)
REMARK    1  A    between atoms: C_3  and  C_29 
REMARK    2  A    between atoms: C_3  and  C_5 
REMARK    3  A    between atoms: C_5  and  C_6 
REMARK    4  A    between atoms: C_5  and  N_15 
REMARK    5  A    between atoms: C_11  and  C_12 
REMARK    6  A    between atoms: C_11  and  O_23 
REMARK    7  A    between atoms: C_12  and  C_14 
REMARK    8  A    between atoms: C_12  and  N_20 
REMARK       I    between atoms: C_14  and  N_15 
REMARK       I    between atoms: N_21  and  C_26 
REMARK    9  A    between atoms: N_21  and  C_22 
REMARK   10  A    between atoms: C_22  and  C_29 
REMARK       I    between atoms: N_25  and  C_26 
ROOT
HETATM    1  C           1     -21.300  -5.421  -6.801  0.00  0.00     0.185 C 
ENDROOT
BRANCH   1   2
HETATM    2  C           1     -21.853  -4.088  -7.291  0.00  0.00     0.038 C 
BRANCH   2   3
HETATM    3  C           1     -23.249  -4.298  -7.864  0.00  0.00     0.023 C 
BRANCH   3   4
HETATM    4  C           1     -23.275  -3.841  -9.317  0.00  0.00     0.138 C 
BRANCH   4   5
HETATM    5  N           1     -21.898  -3.656  -9.797  0.00  0.00    -0.227 N 
HETATM    6  H           1     -21.180  -3.210  -9.174  0.00  0.00     0.177 HD
HETATM    7  C           1     -21.579  -4.033 -10.963  0.00  0.00     0.665 C 
HETATM    8  N           1     -22.444  -4.569 -11.715  0.00  0.00    -0.235 N 
HETATM    9  N           1     -20.361  -3.868 -11.388  0.00  0.00    -0.235 N 
HETATM   10  H           1     -23.428  -4.702 -11.371  0.00  0.00     0.174 HD
HETATM   11  H           1     -22.179  -4.882 -12.681  0.00  0.00     0.174 HD
HETATM   12  H           1     -20.098  -4.180 -12.350  0.00  0.00     0.174 HD
HETATM   13  H           1     -19.647  -3.425 -10.768  0.00  0.00     0.174 HD
ENDBRANCH   4   5
ENDBRANCH   3   4
ENDBRANCH   2   3
ENDBRANCH   1   2
BRANCH   1  14
HETATM   14  C           1     -20.028  -5.742  -7.546  0.00  0.00     0.196 C 
HETATM   15  O           1     -19.368  -6.759  -7.243  0.00  0.00    -0.646 OA
HETATM   16  O           1     -19.635  -4.993  -8.465  0.00  0.00    -0.646 OA
ENDBRANCH   1  14
BRANCH   1  17
HETATM   17  N           1     -21.020  -5.334  -5.381  0.00  0.00    -0.345 N 
HETATM   18  C           1     -21.620  -6.204  -4.511  0.00  0.00     0.251 C 
HETATM   19  O           1     -22.382  -7.043  -4.925  0.00  0.00    -0.271 OA
HETATM   20  H           1     -20.381  -4.630  -5.034  0.00  0.00     0.163 HD
BRANCH  18  21
HETATM   21  C           1     -21.328  -6.113  -3.032  0.00  0.00     0.302 C 
BRANCH  21  22
HETATM   22  C           1     -20.647  -7.394  -2.571  0.00  0.00     0.153 C 
HETATM   23  C           1     -21.623  -8.216  -1.740  0.00  0.00     0.042 C 
BRANCH  22  24
HETATM   24  O           1     -20.241  -8.139  -3.687  0.00  0.00    -0.393 OA
HETATM   25  H           1     -20.984  -8.195  -4.264  0.00  0.00     0.210 HD
ENDBRANCH  22  24
ENDBRANCH  21  22
BRANCH  21  26
HETATM   26  N           1     -22.612  -5.932  -2.280  0.00  0.00    -0.064 N 
HETATM   27  H           1     -23.126  -6.841  -2.243  0.00  0.00     0.275 HD
HETATM   28  H           1     -22.404  -5.609  -1.308  0.00  0.00     0.275 HD
HETATM   29  H           1     -23.202  -5.218  -2.764  0.00  0.00     0.275 HD
ENDBRANCH  21  26
ENDBRANCH  18  21
ENDBRANCH   1  17
TORSDOF 10
ENDMDL
MODEL 6
REMARK VINA RESULT:      -5.7     14.142     16.568
REMARK  10 active torsions:
REMARK  status: ('A' for Active; 'I' for Inactive)
REMARK    1  A    between atoms: C_3  and  C_29 
REMARK    2  A    between atoms: C_3  and  C_5 
REMARK    3  A    between atoms: C_5  and  C_6 
REMARK    4  A    between atoms: C_5  and  N_15 
REMARK    5  A    between atoms: C_11  and  C_12 
REMARK    6  A    between atoms: C_11  and  O_23 
REMARK    7  A    between atoms: C_12  and  C_14 
REMARK    8  A    between atoms: C_12  and  N_20 
REMARK       I    between atoms: C_14  and  N_15 
REMARK       I    between atoms: N_21  and  C_26 
REMARK    9  A    between atoms: N_21  and  C_22 
REMARK   10  A    between atoms: C_22  and  C_29 
REMARK       I    between atoms: N_25  and  C_26 
ROOT
HETATM    1  C           1     -20.703  -6.781  -5.427  0.00  0.00     0.185 C 
ENDROOT
BRANCH   1   2
HETATM    2  C           1     -20.534  -6.010  -6.731  0.00  0.00     0.038 C 
BRANCH   2   3
HETATM    3  C           1     -20.188  -4.559  -6.423  0.00  0.00     0.023 C 
BRANCH   3   4
HETATM    4  C           1     -20.799  -3.655  -7.485  0.00  0.00     0.138 C 
BRANCH   4   5
HETATM    5  N           1     -22.264  -3.774  -7.447  0.00  0.00    -0.227 N 
HETATM    6  H           1     -22.764  -3.805  -6.525  0.00  0.00     0.177 HD
HETATM    7  C           1     -22.922  -3.839  -8.527  0.00  0.00     0.665 C 
HETATM    8  N           1     -22.318  -3.802  -9.639  0.00  0.00    -0.235 N 
HETATM    9  N           1     -24.217  -3.945  -8.494  0.00  0.00    -0.235 N 
HETATM   10  H           1     -21.272  -3.717  -9.666  0.00  0.00     0.174 HD
HETATM   11  H           1     -22.864  -3.856 -10.534  0.00  0.00     0.174 HD
HETATM   12  H           1     -24.759  -3.999  -9.385  0.00  0.00     0.174 HD
HETATM   13  H           1     -24.714  -3.976  -7.575  0.00  0.00     0.174 HD
ENDBRANCH   4   5
ENDBRANCH   3   4
ENDBRANCH   2   3
ENDBRANCH   1   2
BRANCH   1  14
HETATM   14  C           1     -21.979  -6.347  -4.749  0.00  0.00     0.196 C 
HETATM   15  O           1     -22.033  -6.287  -3.502  0.00  0.00    -0.646 OA
HETATM   16  O           1     -22.980  -6.047  -5.433  0.00  0.00    -0.646 OA
ENDBRANCH   1  14
BRANCH   1  17
HETATM   17  N           1     -20.764  -8.201  -5.710  0.00  0.00    -0.345 N 
HETATM   18  C           1     -20.033  -9.081  -4.958  0.00  0.00     0.251 C 
HETATM   19  O           1     -19.337  -8.674  -4.060  0.00  0.00    -0.271 OA
HETATM   20  H           1     -21.348  -8.542  -6.463  0.00  0.00     0.163 HD
BRANCH  18  21
HETATM   21  C           1     -20.098 -10.560  -5.253  0.00  0.00     0.302 C 
BRANCH  21  22
HETATM   22  C           1     -18.792 -11.007  -5.896  0.00  0.00     0.153 C 
HETATM   23  C           1     -19.086 -12.041  -6.974  0.00  0.00     0.042 C 
BRANCH  22  24
HETATM   24  O           1     -18.151  -9.901  -6.472  0.00  0.00    -0.393 OA
HETATM   25  H           1     -17.230  -9.995  -6.295  0.00  0.00     0.210 HD
ENDBRANCH  22  24
ENDBRANCH  21  22
BRANCH  21  26
HETATM   26  N           1     -21.235 -10.832  -6.192  0.00  0.00    -0.064 N 
HETATM   27  H           1     -21.613 -11.790  -6.012  0.00  0.00     0.275 HD
HETATM   28  H           1     -21.990 -10.125  -6.040  0.00  0.00     0.275 HD
HETATM   29  H           1     -20.895 -10.772  -7.178  0.00  0.00     0.275 HD
ENDBRANCH  21  26
ENDBRANCH  18  21
ENDBRANCH   1  17
TORSDOF 10
ENDMDL
MODEL 7
REMARK VINA RESULT:      -5.6     13.354     16.516
REMARK  10 active torsions:
REMARK  status: ('A' for Active; 'I' for Inactive)
REMARK    1  A    between atoms: C_3  and  C_29 
REMARK    2  A    between atoms: C_3  and  C_5 
REMARK    3  A    between atoms: C_5  and  C_6 
REMARK    4  A    between atoms: C_5  and  N_15 
REMARK    5  A    between atoms: C_11  and  C_12 
REMARK    6  A    between atoms: C_11  and  O_23 
REMARK    7  A    between atoms: C_12  and  C_14 
REMARK    8  A    between atoms: C_12  and  N_20 
REMARK       I    between atoms: C_14  and  N_15 
REMARK       I    between atoms: N_21  and  C_26 
REMARK    9  A    between atoms: N_21  and  C_22 
REMARK   10  A    between atoms: C_22  and  C_29 
REMARK       I    between atoms: N_25  and  C_26 
ROOT
HETATM    1  C           1     -21.284  -5.229  -6.920  0.00  0.00     0.185 C 
ENDROOT
BRANCH   1   2
HETATM    2  C           1     -21.399  -6.571  -6.208  0.00  0.00     0.038 C 
BRANCH   2   3
HETATM    3  C           1     -22.290  -6.420  -4.982  0.00  0.00     0.023 C 
BRANCH   3   4
HETATM    4  C           1     -21.424  -6.216  -3.746  0.00  0.00     0.138 C 
BRANCH   4   5
HETATM    5  N           1     -22.263  -6.286  -2.542  0.00  0.00    -0.227 N 
HETATM    6  H           1     -23.147  -5.722  -2.484  0.00  0.00     0.177 HD
HETATM    7  C           1     -21.920  -7.027  -1.573  0.00  0.00     0.665 C 
HETATM    8  N           1     -20.855  -7.706  -1.643  0.00  0.00    -0.235 N 
HETATM    9  N           1     -22.662  -7.089  -0.508  0.00  0.00    -0.235 N 
HETATM   10  H           1     -20.255  -7.656  -2.504  0.00  0.00     0.174 HD
HETATM   11  H           1     -20.570  -8.320  -0.840  0.00  0.00     0.174 HD
HETATM   12  H           1     -22.379  -7.700   0.291  0.00  0.00     0.174 HD
HETATM   13  H           1     -23.542  -6.528  -0.451  0.00  0.00     0.174 HD
ENDBRANCH   4   5
ENDBRANCH   3   4
ENDBRANCH   2   3
ENDBRANCH   1   2
BRANCH   1  14
HETATM   14  C           1     -19.891  -4.680  -6.735  0.00  0.00     0.196 C 
HETATM   15  O           1     -19.501  -4.339  -5.597  0.00  0.00    -0.646 OA
HETATM   16  O           1     -19.127  -4.566  -7.717  0.00  0.00    -0.646 OA
ENDBRANCH   1  14
BRANCH   1  17
HETATM   17  N           1     -21.548  -5.409  -8.334  0.00  0.00    -0.345 N 
HETATM   18  C           1     -22.242  -4.455  -9.028  0.00  0.00     0.251 C 
HETATM   19  O           1     -22.635  -3.463  -8.462  0.00  0.00    -0.271 OA
HETATM   20  H           1     -21.219  -6.241  -8.809  0.00  0.00     0.163 HD
BRANCH  18  21
HETATM   21  C           1     -22.517  -4.643 -10.500  0.00  0.00     0.302 C 
BRANCH  21  22
HETATM   22  C           1     -21.666  -3.668 -11.303  0.00  0.00     0.153 C 
HETATM   23  C           1     -20.192  -3.936 -11.026  0.00  0.00     0.042 C 
BRANCH  22  24
HETATM   24  O           1     -21.922  -3.838 -12.670  0.00  0.00    -0.393 OA
HETATM   25  H           1     -22.421  -3.089 -12.951  0.00  0.00     0.210 HD
ENDBRANCH  22  24
ENDBRANCH  21  22
BRANCH  21  26
HETATM   26  N           1     -23.967  -4.381 -10.775  0.00  0.00    -0.064 N 
HETATM   27  H           1     -24.219  -4.766 -11.713  0.00  0.00     0.275 HD
HETATM   28  H           1     -24.550  -4.844 -10.041  0.00  0.00     0.275 HD
HETATM   29  H           1     -24.145  -3.351 -10.762  0.00  0.00     0.275 HD
ENDBRANCH  21  26
ENDBRANCH  18  21
ENDBRANCH   1  17
TORSDOF 10
ENDMDL
MODEL 8
REMARK VINA RESULT:      -5.4     15.129     18.128
REMARK  10 active torsions:
REMARK  status: ('A' for Active; 'I' for Inactive)
REMARK    1  A    between atoms: C_3  and  C_29 
REMARK    2  A    between atoms: C_3  and  C_5 
REMARK    3  A    between atoms: C_5  and  C_6 
REMARK    4  A    between atoms: C_5  and  N_15 
REMARK    5  A    between atoms: C_11  and  C_12 
REMARK    6  A    between atoms: C_11  and  O_23 
REMARK    7  A    between atoms: C_12  and  C_14 
REMARK    8  A    between atoms: C_12  and  N_20 
REMARK       I    between atoms: C_14  and  N_15 
REMARK       I    between atoms: N_21  and  C_26 
REMARK    9  A    between atoms: N_21  and  C_22 
REMARK   10  A    between atoms: C_22  and  C_29 
REMARK       I    between atoms: N_25  and  C_26 
ROOT
HETATM    1  C           1     -20.840  -6.837  -4.566  0.00  0.00     0.185 C 
ENDROOT
BRANCH   1   2
HETATM    2  C           1     -22.035  -6.977  -3.632  0.00  0.00     0.038 C 
BRANCH   2   3
HETATM    3  C           1     -21.825  -6.100  -2.404  0.00  0.00     0.023 C 
BRANCH   3   4
HETATM    4  C           1     -22.283  -6.850  -1.160  0.00  0.00     0.138 C 
BRANCH   4   5
HETATM    5  N           1     -21.715  -8.206  -1.168  0.00  0.00    -0.227 N 
HETATM    6  H           1     -21.549  -8.700  -2.080  0.00  0.00     0.177 HD
HETATM    7  C           1     -21.426  -8.778  -0.076  0.00  0.00     0.665 C 
HETATM    8  N           1     -21.627  -8.182   1.023  0.00  0.00    -0.235 N 
HETATM    9  N           1     -20.924  -9.977  -0.083  0.00  0.00    -0.235 N 
HETATM   10  H           1     -22.032  -7.213   1.028  0.00  0.00     0.174 HD
HETATM   11  H           1     -21.387  -8.656   1.928  0.00  0.00     0.174 HD
HETATM   12  H           1     -20.686 -10.448   0.818  0.00  0.00     0.174 HD
HETATM   13  H           1     -20.759 -10.468  -0.990  0.00  0.00     0.174 HD
ENDBRANCH   4   5
ENDBRANCH   3   4
ENDBRANCH   2   3
ENDBRANCH   1   2
BRANCH   1  14
HETATM   14  C           1     -20.101  -8.151  -4.638  0.00  0.00     0.196 C 
HETATM   15  O           1     -19.501  -8.473  -5.686  0.00  0.00    -0.646 OA
HETATM   16  O           1     -20.089  -8.916  -3.651  0.00  0.00    -0.646 OA
ENDBRANCH   1  14
BRANCH   1  17
HETATM   17  N           1     -21.302  -6.470  -5.890  0.00  0.00    -0.345 N 
HETATM   18  C           1     -21.045  -5.218  -6.382  0.00  0.00     0.251 C 
HETATM   19  O           1     -20.434  -4.421  -5.713  0.00  0.00    -0.271 OA
HETATM   20  H           1     -21.815  -7.139  -6.450  0.00  0.00     0.163 HD
BRANCH  18  21
HETATM   21  C           1     -21.527  -4.836  -7.761  0.00  0.00     0.302 C 
BRANCH  21  22
HETATM   22  C           1     -20.334  -4.720  -8.700  0.00  0.00     0.153 C 
HETATM   23  C           1     -20.816  -4.290 -10.080  0.00  0.00     0.042 C 
BRANCH  22  24
HETATM   24  O           1     -19.435  -3.768  -8.202  0.00  0.00    -0.393 OA
HETATM   25  H           1     -19.479  -3.022  -8.775  0.00  0.00     0.210 HD
ENDBRANCH  22  24
ENDBRANCH  21  22
BRANCH  21  26
HETATM   26  N           1     -22.239  -3.519  -7.694  0.00  0.00    -0.064 N 
HETATM   27  H           1     -23.268  -3.674  -7.792  0.00  0.00     0.275 HD
HETATM   28  H           1     -22.042  -3.062  -6.774  0.00  0.00     0.275 HD
HETATM   29  H           1     -21.905  -2.902  -8.468  0.00  0.00     0.275 HD
ENDBRANCH  21  26
ENDBRANCH  18  21
ENDBRANCH   1  17
TORSDOF 10
ENDMDL
MODEL 9
REMARK VINA RESULT:      -5.3      2.793      6.658
REMARK  10 active torsions:
REMARK  status: ('A' for Active; 'I' for Inactive)
REMARK    1  A    between atoms: C_3  and  C_29 
REMARK    2  A    between atoms: C_3  and  C_5 
REMARK    3  A    between atoms: C_5  and  C_6 
REMARK    4  A    between atoms: C_5  and  N_15 
REMARK    5  A    between atoms: C_11  and  C_12 
REMARK    6  A    between atoms: C_11  and  O_23 
REMARK    7  A    between atoms: C_12  and  C_14 
REMARK    8  A    between atoms: C_12  and  N_20 
REMARK       I    between atoms: C_14  and  N_15 
REMARK       I    between atoms: N_21  and  C_26 
REMARK    9  A    between atoms: N_21  and  C_22 
REMARK   10  A    between atoms: C_22  and  C_29 
REMARK       I    between atoms: N_25  and  C_26 
ROOT
HETATM    1  C           1     -34.229  -2.847 -11.861  0.00  0.00     0.185 C 
ENDROOT
BRANCH   1   2
HETATM    2  C           1     -34.926  -3.639 -10.762  0.00  0.00     0.038 C 
BRANCH   2   3
HETATM    3  C           1     -35.127  -5.077 -11.222  0.00  0.00     0.023 C 
BRANCH   3   4
HETATM    4  C           1     -34.721  -6.030 -10.105  0.00  0.00     0.138 C 
BRANCH   4   5
HETATM    5  N           1     -34.113  -7.236 -10.685  0.00  0.00    -0.227 N 
HETATM    6  H           1     -33.760  -7.222 -11.674  0.00  0.00     0.177 HD
HETATM    7  C           1     -34.016  -8.291  -9.993  0.00  0.00     0.665 C 
HETATM    8  N           1     -34.442  -8.308  -8.801  0.00  0.00    -0.235 N 
HETATM    9  N           1     -33.478  -9.358 -10.506  0.00  0.00    -0.235 N 
HETATM   10  H           1     -34.876  -7.447  -8.386  0.00  0.00     0.174 HD
HETATM   11  H           1     -34.361  -9.183  -8.227  0.00  0.00     0.174 HD
HETATM   12  H           1     -33.398 -10.229  -9.934  0.00  0.00     0.174 HD
HETATM   13  H           1     -33.126  -9.344 -11.490  0.00  0.00     0.174 HD
ENDBRANCH   4   5
ENDBRANCH   3   4
ENDBRANCH   2   3
ENDBRANCH   1   2
BRANCH   1  14
HETATM   14  C           1     -33.218  -3.729 -12.552  0.00  0.00     0.196 C 
HETATM   15  O           1     -32.225  -4.152 -11.921  0.00  0.00    -0.646 OA
HETATM   16  O           1     -33.373  -4.036 -13.752  0.00  0.00    -0.646 OA
ENDBRANCH   1  14
BRANCH   1  17
HETATM   17  N           1     -35.211  -2.391 -12.824  0.00  0.00    -0.345 N 
HETATM   18  C           1     -35.395  -1.051 -13.032  0.00  0.00     0.251 C 
HETATM   19  O           1     -34.739  -0.248 -12.414  0.00  0.00    -0.271 OA
HETATM   20  H           1     -35.761  -3.064 -13.343  0.00  0.00     0.163 HD
BRANCH  18  21
HETATM   21  C           1     -36.418  -0.577 -14.037  0.00  0.00     0.302 C 
BRANCH  21  22
HETATM   22  C           1     -35.708   0.086 -15.209  0.00  0.00     0.153 C 
HETATM   23  C           1     -35.634  -0.891 -16.375  0.00  0.00     0.042 C 
BRANCH  22  24
HETATM   24  O           1     -36.418   1.228 -15.602  0.00  0.00    -0.393 OA
HETATM   25  H           1     -36.532   1.760 -14.832  0.00  0.00     0.210 HD
ENDBRANCH  22  24
ENDBRANCH  21  22
BRANCH  21  26
HETATM   26  N           1     -37.336   0.413 -13.384  0.00  0.00    -0.064 N 
HETATM   27  H           1     -37.025   1.383 -13.619  0.00  0.00     0.275 HD
HETATM   28  H           1     -38.311   0.266 -13.731  0.00  0.00     0.275 HD
HETATM   29  H           1     -37.311   0.281 -12.348  0.00  0.00     0.275 HD
ENDBRANCH  21  26
ENDBRANCH  18  21
ENDBRANCH   1  17
TORSDOF 10
ENDMDL
