MODEL 1
REMARK VINA RESULT:      -6.2      0.000      0.000
REMARK  9 active torsions:
REMARK  status: ('A' for Active; 'I' for Inactive)
REMARK    1  A    between atoms: C_1  and  C_11 
REMARK    2  A    between atoms: C_1  and  C_2 
REMARK    3  A    between atoms: C_1  and  N_4 
REMARK    4  A    between atoms: C_2  and  Se_3 
REMARK       I    between atoms: C_11  and  N_12 
REMARK    5  A    between atoms: N_12  and  C_16 
REMARK    6  A    between atoms: C_15  and  C_16 
REMARK    7  A    between atoms: C_16  and  C_17 
REMARK    8  A    between atoms: C_17  and  C_18 
REMARK    9  A    between atoms: C_18  and  C_20 
ROOT
HETATM    1  O           1     -26.262  -5.999 -17.522  0.00  0.00    -0.271 OA
HETATM    2  H           1     -27.879  -7.123 -19.965  0.00  0.00     0.163 HD
HETATM    3  C           1     -26.448  -6.469 -18.621  0.00  0.00     0.249 C 
HETATM    4  N           1     -27.723  -6.729 -19.046  0.00  0.00    -0.345 N 
ENDROOT
BRANCH   4   5
HETATM    5  C           1     -28.849  -6.439 -18.181  0.00  0.00     0.186 C 
BRANCH   5   6
HETATM    6  C           1     -29.912  -7.494 -18.370  0.00  0.00     0.196 C 
HETATM    7  O           1     -29.722  -8.436 -19.170  0.00  0.00    -0.646 OA
HETATM    8  O           1     -30.982  -7.426 -17.728  0.00  0.00    -0.646 OA
ENDBRANCH   5   6
BRANCH   5   9
HETATM    9  C           1     -29.421  -5.072 -18.532  0.00  0.00     0.046 C 
BRANCH   9  10
HETATM   10  C           1     -29.686  -4.288 -17.254  0.00  0.00     0.116 C 
BRANCH  10  11
HETATM   11  C           1     -31.142  -3.892 -17.199  0.00  0.00     0.172 C 
HETATM   12  O           1     -31.916  -4.465 -16.403  0.00  0.00    -0.648 OA
HETATM   13  O           1     -31.573  -2.990 -17.950  0.00  0.00    -0.648 OA
ENDBRANCH  10  11
ENDBRANCH   9  10
ENDBRANCH   5   9
ENDBRANCH   4   5
BRANCH   3  14
HETATM   14  C           1     -25.275  -6.771 -19.520  0.00  0.00     0.274 C 
BRANCH  14  15
HETATM   15  C           1     -25.744  -7.600 -20.708  0.00  0.00     0.045 C 
BRANCH  15  16
HETATM   16 Se           1     -24.256  -7.880 -21.934  0.00  0.00     0.000 Se
HETATM   17  H           1     -24.618  -9.275 -22.238  0.00  0.00     0.000 HD
ENDBRANCH  15  16
ENDBRANCH  14  15
BRANCH  14  18
HETATM   18  N           1     -24.243  -7.541 -18.751  0.00  0.00    -0.067 N 
HETATM   19  H           1     -23.427  -6.921 -18.543  0.00  0.00     0.275 HD
HETATM   20  H           1     -24.658  -7.883 -17.855  0.00  0.00     0.275 HD
HETATM   21  H           1     -23.922  -8.358 -19.320  0.00  0.00     0.275 HD
ENDBRANCH  14  18
ENDBRANCH   3  14
TORSDOF 9
ENDMDL
MODEL 2
REMARK VINA RESULT:      -5.5     12.609     13.810
REMARK  9 active torsions:
REMARK  status: ('A' for Active; 'I' for Inactive)
REMARK    1  A    between atoms: C_1  and  C_11 
REMARK    2  A    between atoms: C_1  and  C_2 
REMARK    3  A    between atoms: C_1  and  N_4 
REMARK    4  A    between atoms: C_2  and  Se_3 
REMARK       I    between atoms: C_11  and  N_12 
REMARK    5  A    between atoms: N_12  and  C_16 
REMARK    6  A    between atoms: C_15  and  C_16 
REMARK    7  A    between atoms: C_16  and  C_17 
REMARK    8  A    between atoms: C_17  and  C_18 
REMARK    9  A    between atoms: C_18  and  C_20 
ROOT
HETATM    1  O           1     -21.114  -7.255  -6.772  0.00  0.00    -0.271 OA
HETATM    2  H           1     -21.353  -4.223  -6.002  0.00  0.00     0.163 HD
HETATM    3  C           1     -21.144  -6.281  -6.057  0.00  0.00     0.249 C 
HETATM    4  N           1     -21.329  -5.038  -6.600  0.00  0.00    -0.345 N 
ENDROOT
BRANCH   4   5
HETATM    5  C           1     -21.489  -4.890  -8.034  0.00  0.00     0.186 C 
BRANCH   5   6
HETATM    6  C           1     -20.149  -4.594  -8.661  0.00  0.00     0.196 C 
HETATM    7  O           1     -19.985  -4.758  -9.890  0.00  0.00    -0.646 OA
HETATM    8  O           1     -19.203  -4.186  -7.954  0.00  0.00    -0.646 OA
ENDBRANCH   5   6
BRANCH   5   9
HETATM    9  C           1     -22.449  -3.744  -8.321  0.00  0.00     0.046 C 
BRANCH   9  10
HETATM   10  C           1     -23.680  -4.280  -9.040  0.00  0.00     0.116 C 
BRANCH  10  11
HETATM   11  C           1     -23.880  -3.523 -10.330  0.00  0.00     0.172 C 
HETATM   12  O           1     -25.030  -3.197 -10.692  0.00  0.00    -0.648 OA
HETATM   13  O           1     -22.894  -3.222 -11.037  0.00  0.00    -0.648 OA
ENDBRANCH  10  11
ENDBRANCH   9  10
ENDBRANCH   5   9
ENDBRANCH   4   5
BRANCH   3  14
HETATM   14  C           1     -20.977  -6.436  -4.566  0.00  0.00     0.274 C 
BRANCH  14  15
HETATM   15  C           1     -20.429  -7.822  -4.256  0.00  0.00     0.045 C 
BRANCH  15  16
HETATM   16 Se           1     -20.678  -8.212  -2.363  0.00  0.00     0.000 Se
HETATM   17  H           1     -19.990  -9.513  -2.421  0.00  0.00     0.000 HD
ENDBRANCH  15  16
ENDBRANCH  14  15
BRANCH  14  18
HETATM   18  N           1     -22.306  -6.263  -3.894  0.00  0.00    -0.067 N 
HETATM   19  H           1     -22.700  -5.325  -4.133  0.00  0.00     0.275 HD
HETATM   20  H           1     -22.961  -7.009  -4.221  0.00  0.00     0.275 HD
HETATM   21  H           1     -22.185  -6.336  -2.858  0.00  0.00     0.275 HD
ENDBRANCH  14  18
ENDBRANCH   3  14
TORSDOF 9
ENDMDL
MODEL 3
REMARK VINA RESULT:      -5.2      3.498      6.168
REMARK  9 active torsions:
REMARK  status: ('A' for Active; 'I' for Inactive)
REMARK    1  A    between atoms: C_1  and  C_11 
REMARK    2  A    between atoms: C_1  and  C_2 
REMARK    3  A    between atoms: C_1  and  N_4 
REMARK    4  A    between atoms: C_2  and  Se_3 
REMARK       I    between atoms: C_11  and  N_12 
REMARK    5  A    between atoms: N_12  and  C_16 
REMARK    6  A    between atoms: C_15  and  C_16 
REMARK    7  A    between atoms: C_16  and  C_17 
REMARK    8  A    between atoms: C_17  and  C_18 
REMARK    9  A    between atoms: C_18  and  C_20 
ROOT
HETATM    1  O           1     -28.868  -7.079 -16.697  0.00  0.00    -0.271 OA
HETATM    2  H           1     -27.082  -4.815 -17.934  0.00  0.00     0.163 HD
HETATM    3  C           1     -28.587  -5.985 -17.128  0.00  0.00     0.249 C 
HETATM    4  N           1     -27.318  -5.731 -17.574  0.00  0.00    -0.345 N 
ENDROOT
BRANCH   4   5
HETATM    5  C           1     -26.311  -6.773 -17.530  0.00  0.00     0.186 C 
BRANCH   5   6
HETATM    6  C           1     -25.531  -6.665 -16.244  0.00  0.00     0.196 C 
HETATM    7  O           1     -25.407  -7.664 -15.503  0.00  0.00    -0.646 OA
HETATM    8  O           1     -25.008  -5.578 -15.918  0.00  0.00    -0.646 OA
ENDBRANCH   5   6
BRANCH   5   9
HETATM    9  C           1     -25.366  -6.616 -18.714  0.00  0.00     0.046 C 
BRANCH   9  10
HETATM   10  C           1     -26.157  -6.704 -20.012  0.00  0.00     0.116 C 
BRANCH  10  11
HETATM   11  C           1     -25.579  -7.794 -20.881  0.00  0.00     0.172 C 
HETATM   12  O           1     -24.341  -7.892 -21.020  0.00  0.00    -0.648 OA
HETATM   13  O           1     -26.338  -8.599 -21.462  0.00  0.00    -0.648 OA
ENDBRANCH  10  11
ENDBRANCH   9  10
ENDBRANCH   5   9
ENDBRANCH   4   5
BRANCH   3  14
HETATM   14  C           1     -29.634  -4.901 -17.172  0.00  0.00     0.274 C 
BRANCH  14  15
HETATM   15  C           1     -31.017  -5.521 -17.022  0.00  0.00     0.045 C 
BRANCH  15  16
HETATM   16 Se           1     -32.366  -4.115 -17.039  0.00  0.00     0.000 Se
HETATM   17  H           1     -31.519  -3.151 -17.763  0.00  0.00     0.000 HD
ENDBRANCH  15  16
ENDBRANCH  14  15
BRANCH  14  18
HETATM   18  N           1     -29.551  -4.180 -18.484  0.00  0.00    -0.067 N 
HETATM   19  H           1     -29.161  -4.821 -19.212  0.00  0.00     0.275 HD
HETATM   20  H           1     -30.506  -3.867 -18.772  0.00  0.00     0.275 HD
HETATM   21  H           1     -28.927  -3.346 -18.385  0.00  0.00     0.275 HD
ENDBRANCH  14  18
ENDBRANCH   3  14
TORSDOF 9
ENDMDL
MODEL 4
REMARK VINA RESULT:      -5.1     13.118     14.445
REMARK  9 active torsions:
REMARK  status: ('A' for Active; 'I' for Inactive)
REMARK    1  A    between atoms: C_1  and  C_11 
REMARK    2  A    between atoms: C_1  and  C_2 
REMARK    3  A    between atoms: C_1  and  N_4 
REMARK    4  A    between atoms: C_2  and  Se_3 
REMARK       I    between atoms: C_11  and  N_12 
REMARK    5  A    between atoms: N_12  and  C_16 
REMARK    6  A    between atoms: C_15  and  C_16 
REMARK    7  A    between atoms: C_16  and  C_17 
REMARK    8  A    between atoms: C_17  and  C_18 
REMARK    9  A    between atoms: C_18  and  C_20 
ROOT
HETATM    1  O           1     -21.892  -3.070  -7.759  0.00  0.00    -0.271 OA
HETATM    2  H           1     -22.473  -6.153  -7.778  0.00  0.00     0.163 HD
HETATM    3  C           1     -22.369  -4.117  -8.132  0.00  0.00     0.249 C 
HETATM    4  N           1     -22.076  -5.277  -7.466  0.00  0.00    -0.345 N 
ENDROOT
BRANCH   4   5
HETATM    5  C           1     -21.195  -5.250  -6.315  0.00  0.00     0.186 C 
BRANCH   5   6
HETATM    6  C           1     -19.806  -5.665  -6.734  0.00  0.00     0.196 C 
HETATM    7  O           1     -19.526  -6.878  -6.853  0.00  0.00    -0.646 OA
HETATM    8  O           1     -18.936  -4.798  -6.963  0.00  0.00    -0.646 OA
ENDBRANCH   5   6
BRANCH   5   9
HETATM    9  C           1     -21.715  -6.211  -5.255  0.00  0.00     0.046 C 
BRANCH   9  10
HETATM   10  C           1     -21.049  -5.906  -3.920  0.00  0.00     0.116 C 
BRANCH  10  11
HETATM   11  C           1     -21.791  -6.615  -2.813  0.00  0.00     0.172 C 
HETATM   12  O           1     -21.594  -7.832  -2.609  0.00  0.00    -0.648 OA
HETATM   13  O           1     -22.603  -5.985  -2.101  0.00  0.00    -0.648 OA
ENDBRANCH  10  11
ENDBRANCH   9  10
ENDBRANCH   5   9
ENDBRANCH   4   5
BRANCH   3  14
HETATM   14  C           1     -23.284  -4.145  -9.330  0.00  0.00     0.274 C 
BRANCH  14  15
HETATM   15  C           1     -22.603  -3.460 -10.507  0.00  0.00     0.045 C 
BRANCH  15  16
HETATM   16 Se           1     -20.877  -4.301 -10.840  0.00  0.00     0.000 Se
HETATM   17  H           1     -21.235  -4.769 -12.190  0.00  0.00     0.000 HD
ENDBRANCH  15  16
ENDBRANCH  14  15
BRANCH  14  18
HETATM   18  N           1     -24.557  -3.424  -9.002  0.00  0.00    -0.067 N 
HETATM   19  H           1     -25.084  -3.958  -8.273  0.00  0.00     0.275 HD
HETATM   20  H           1     -24.335  -2.470  -8.640  0.00  0.00     0.275 HD
HETATM   21  H           1     -25.143  -3.342  -9.864  0.00  0.00     0.275 HD
ENDBRANCH  14  18
ENDBRANCH   3  14
TORSDOF 9
ENDMDL
MODEL 5
REMARK VINA RESULT:      -5.1     14.285     15.455
REMARK  9 active torsions:
REMARK  status: ('A' for Active; 'I' for Inactive)
REMARK    1  A    between atoms: C_1  and  C_11 
REMARK    2  A    between atoms: C_1  and  C_2 
REMARK    3  A    between atoms: C_1  and  N_4 
REMARK    4  A    between atoms: C_2  and  Se_3 
REMARK       I    between atoms: C_11  and  N_12 
REMARK    5  A    between atoms: N_12  and  C_16 
REMARK    6  A    between atoms: C_15  and  C_16 
REMARK    7  A    between atoms: C_16  and  C_17 
REMARK    8  A    between atoms: C_17  and  C_18 
REMARK    9  A    between atoms: C_18  and  C_20 
ROOT
HETATM    1  O           1     -20.579  -4.396  -6.109  0.00  0.00    -0.271 OA
HETATM    2  H           1     -21.489  -7.228  -7.108  0.00  0.00     0.163 HD
HETATM    3  C           1     -21.011  -5.228  -6.872  0.00  0.00     0.249 C 
HETATM    4  N           1     -21.128  -6.531  -6.469  0.00  0.00    -0.345 N 
ENDROOT
BRANCH   4   5
HETATM    5  C           1     -20.735  -6.914  -5.127  0.00  0.00     0.186 C 
BRANCH   5   6
HETATM    6  C           1     -20.227  -8.334  -5.138  0.00  0.00     0.196 C 
HETATM    7  O           1     -19.178  -8.627  -4.522  0.00  0.00    -0.646 OA
HETATM    8  O           1     -20.853  -9.218  -5.760  0.00  0.00    -0.646 OA
ENDBRANCH   5   6
BRANCH   5   9
HETATM    9  C           1     -21.936  -6.809  -4.197  0.00  0.00     0.046 C 
BRANCH   9  10
HETATM   10  C           1     -21.506  -6.174  -2.881  0.00  0.00     0.116 C 
BRANCH  10  11
HETATM   11  C           1     -21.861  -7.094  -1.738  0.00  0.00     0.172 C 
HETATM   12  O           1     -21.339  -8.227  -1.663  0.00  0.00    -0.648 OA
HETATM   13  O           1     -22.677  -6.724  -0.867  0.00  0.00    -0.648 OA
ENDBRANCH  10  11
ENDBRANCH   9  10
ENDBRANCH   5   9
ENDBRANCH   4   5
BRANCH   3  14
HETATM   14  C           1     -21.419  -4.830  -8.268  0.00  0.00     0.274 C 
BRANCH  14  15
HETATM   15  C           1     -20.182  -4.461  -9.075  0.00  0.00     0.045 C 
BRANCH  15  16
HETATM   16 Se           1     -20.689  -4.122 -10.926  0.00  0.00     0.000 Se
HETATM   17  H           1     -19.355  -4.430 -11.470  0.00  0.00     0.000 HD
ENDBRANCH  15  16
ENDBRANCH  14  15
BRANCH  14  18
HETATM   18  N           1     -22.341  -3.649  -8.201  0.00  0.00    -0.067 N 
HETATM   19  H           1     -22.555  -3.316  -9.169  0.00  0.00     0.275 HD
HETATM   20  H           1     -23.229  -3.927  -7.725  0.00  0.00     0.275 HD
HETATM   21  H           1     -21.883  -2.879  -7.661  0.00  0.00     0.275 HD
ENDBRANCH  14  18
ENDBRANCH   3  14
TORSDOF 9
ENDMDL
MODEL 6
REMARK VINA RESULT:      -5.0      4.413      6.550
REMARK  9 active torsions:
REMARK  status: ('A' for Active; 'I' for Inactive)
REMARK    1  A    between atoms: C_1  and  C_11 
REMARK    2  A    between atoms: C_1  and  C_2 
REMARK    3  A    between atoms: C_1  and  N_4 
REMARK    4  A    between atoms: C_2  and  Se_3 
REMARK       I    between atoms: C_11  and  N_12 
REMARK    5  A    between atoms: N_12  and  C_16 
REMARK    6  A    between atoms: C_15  and  C_16 
REMARK    7  A    between atoms: C_16  and  C_17 
REMARK    8  A    between atoms: C_17  and  C_18 
REMARK    9  A    between atoms: C_18  and  C_20 
ROOT
HETATM    1  O           1     -30.951  -3.538 -17.295  0.00  0.00    -0.271 OA
HETATM    2  H           1     -31.494  -6.451 -16.265  0.00  0.00     0.163 HD
HETATM    3  C           1     -31.587  -4.475 -16.873  0.00  0.00     0.249 C 
HETATM    4  N           1     -30.961  -5.666 -16.617  0.00  0.00    -0.345 N 
ENDROOT
BRANCH   4   5
HETATM    5  C           1     -29.537  -5.802 -16.851  0.00  0.00     0.186 C 
BRANCH   5   6
HETATM    6  C           1     -29.292  -6.940 -17.811  0.00  0.00     0.196 C 
HETATM    7  O           1     -28.472  -6.803 -18.745  0.00  0.00    -0.646 OA
HETATM    8  O           1     -29.908  -8.019 -17.674  0.00  0.00    -0.646 OA
ENDBRANCH   5   6
BRANCH   5   9
HETATM    9  C           1     -28.831  -6.089 -15.532  0.00  0.00     0.046 C 
BRANCH   9  10
HETATM   10  C           1     -27.826  -7.216 -15.728  0.00  0.00     0.116 C 
BRANCH  10  11
HETATM   11  C           1     -26.430  -6.643 -15.767  0.00  0.00     0.172 C 
HETATM   12  O           1     -25.479  -7.282 -15.267  0.00  0.00    -0.648 OA
HETATM   13  O           1     -26.225  -5.531 -16.298  0.00  0.00    -0.648 OA
ENDBRANCH  10  11
ENDBRANCH   9  10
ENDBRANCH   5   9
ENDBRANCH   4   5
BRANCH   3  14
HETATM   14  C           1     -33.068  -4.333 -16.631  0.00  0.00     0.274 C 
BRANCH  14  15
HETATM   15  C           1     -33.591  -3.113 -17.377  0.00  0.00     0.045 C 
BRANCH  15  16
HETATM   16 Se           1     -35.000  -2.265 -16.330  0.00  0.00     0.000 Se
HETATM   17  H           1     -34.772  -3.096 -15.135  0.00  0.00     0.000 HD
ENDBRANCH  15  16
ENDBRANCH  14  15
BRANCH  14  18
HETATM   18  N           1     -33.320  -4.166 -15.162  0.00  0.00    -0.067 N 
HETATM   19  H           1     -33.587  -5.087 -14.746  0.00  0.00     0.275 HD
HETATM   20  H           1     -32.454  -3.812 -14.698  0.00  0.00     0.275 HD
HETATM   21  H           1     -34.097  -3.480 -15.017  0.00  0.00     0.275 HD
ENDBRANCH  14  18
ENDBRANCH   3  14
TORSDOF 9
ENDMDL
MODEL 7
REMARK VINA RESULT:      -4.9     15.055     16.079
REMARK  9 active torsions:
REMARK  status: ('A' for Active; 'I' for Inactive)
REMARK    1  A    between atoms: C_1  and  C_11 
REMARK    2  A    between atoms: C_1  and  C_2 
REMARK    3  A    between atoms: C_1  and  N_4 
REMARK    4  A    between atoms: C_2  and  Se_3 
REMARK       I    between atoms: C_11  and  N_12 
REMARK    5  A    between atoms: N_12  and  C_16 
REMARK    6  A    between atoms: C_15  and  C_16 
REMARK    7  A    between atoms: C_16  and  C_17 
REMARK    8  A    between atoms: C_17  and  C_18 
REMARK    9  A    between atoms: C_18  and  C_20 
ROOT
HETATM    1  O           1     -19.667  -7.234  -5.994  0.00  0.00    -0.271 OA
HETATM    2  H           1     -22.500  -7.509  -4.676  0.00  0.00     0.163 HD
HETATM    3  C           1     -20.822  -6.969  -5.760  0.00  0.00     0.249 C 
HETATM    4  N           1     -21.533  -7.731  -4.872  0.00  0.00    -0.345 N 
ENDROOT
BRANCH   4   5
HETATM    5  C           1     -20.899  -8.855  -4.212  0.00  0.00     0.186 C 
BRANCH   5   6
HETATM    6  C           1     -21.330 -10.138  -4.879  0.00  0.00     0.196 C 
HETATM    7  O           1     -22.059 -10.947  -4.265  0.00  0.00    -0.646 OA
HETATM    8  O           1     -20.960 -10.392  -6.045  0.00  0.00    -0.646 OA
ENDBRANCH   5   6
BRANCH   5   9
HETATM    9  C           1     -21.310  -8.881  -2.746  0.00  0.00     0.046 C 
BRANCH   9  10
HETATM   10  C           1     -20.872  -7.588  -2.072  0.00  0.00     0.116 C 
BRANCH  10  11
HETATM   11  C           1     -22.082  -6.727  -1.799  0.00  0.00     0.172 C 
HETATM   12  O           1     -22.689  -6.829  -0.712  0.00  0.00    -0.648 OA
HETATM   13  O           1     -22.478  -5.913  -2.662  0.00  0.00    -0.648 OA
ENDBRANCH  10  11
ENDBRANCH   9  10
ENDBRANCH   5   9
ENDBRANCH   4   5
BRANCH   3  14
HETATM   14  C           1     -21.482  -5.799  -6.448  0.00  0.00     0.274 C 
BRANCH  14  15
HETATM   15  C           1     -20.552  -4.595  -6.408  0.00  0.00     0.045 C 
BRANCH  15  16
HETATM   16 Se           1     -19.851  -4.255  -8.195  0.00  0.00     0.000 Se
HETATM   17  H           1     -20.015  -5.646  -8.650  0.00  0.00     0.000 HD
ENDBRANCH  15  16
ENDBRANCH  14  15
BRANCH  14  18
HETATM   18  N           1     -22.763  -5.464  -5.743  0.00  0.00    -0.067 N 
HETATM   19  H           1     -22.566  -5.264  -4.736  0.00  0.00     0.275 HD
HETATM   20  H           1     -23.195  -4.622  -6.187  0.00  0.00     0.275 HD
HETATM   21  H           1     -23.422  -6.272  -5.815  0.00  0.00     0.275 HD
ENDBRANCH  14  18
ENDBRANCH   3  14
TORSDOF 9
ENDMDL
MODEL 8
REMARK VINA RESULT:      -4.5     15.040     16.548
REMARK  9 active torsions:
REMARK  status: ('A' for Active; 'I' for Inactive)
REMARK    1  A    between atoms: C_1  and  C_11 
REMARK    2  A    between atoms: C_1  and  C_2 
REMARK    3  A    between atoms: C_1  and  N_4 
REMARK    4  A    between atoms: C_2  and  Se_3 
REMARK       I    between atoms: C_11  and  N_12 
REMARK    5  A    between atoms: N_12  and  C_16 
REMARK    6  A    between atoms: C_15  and  C_16 
REMARK    7  A    between atoms: C_16  and  C_17 
REMARK    8  A    between atoms: C_17  and  C_18 
REMARK    9  A    between atoms: C_18  and  C_20 
ROOT
HETATM    1  O           1     -22.563  -5.586  -5.758  0.00  0.00    -0.271 OA
HETATM    2  H           1     -19.736  -6.402  -4.667  0.00  0.00     0.163 HD
HETATM    3  C           1     -21.360  -5.561  -5.636  0.00  0.00     0.249 C 
HETATM    4  N           1     -20.743  -6.422  -4.769  0.00  0.00    -0.345 N 
ENDROOT
BRANCH   4   5
HETATM    5  C           1     -21.530  -7.364  -3.998  0.00  0.00     0.186 C 
BRANCH   5   6
HETATM    6  C           1     -21.651  -6.872  -2.576  0.00  0.00     0.196 C 
HETATM    7  O           1     -20.971  -7.403  -1.672  0.00  0.00    -0.646 OA
HETATM    8  O           1     -22.430  -5.934  -2.303  0.00  0.00    -0.646 OA
ENDBRANCH   5   6
BRANCH   5   9
HETATM    9  C           1     -20.848  -8.725  -4.009  0.00  0.00     0.046 C 
BRANCH   9  10
HETATM   10  C           1     -19.547  -8.636  -4.794  0.00  0.00     0.116 C 
BRANCH  10  11
HETATM   11  C           1     -18.440  -9.302  -4.012  0.00  0.00     0.172 C 
HETATM   12  O           1     -17.545  -9.933  -4.612  0.00  0.00    -0.648 OA
HETATM   13  O           1     -18.420  -9.222  -2.765  0.00  0.00    -0.648 OA
ENDBRANCH  10  11
ENDBRANCH   9  10
ENDBRANCH   5   9
ENDBRANCH   4   5
BRANCH   3  14
HETATM   14  C           1     -20.541  -4.581  -6.438  0.00  0.00     0.274 C 
BRANCH  14  15
HETATM   15  C           1     -21.468  -3.699  -7.264  0.00  0.00     0.045 C 
BRANCH  15  16
HETATM   16 Se           1     -21.536  -4.364  -9.095  0.00  0.00     0.000 Se
HETATM   17  H           1     -22.771  -3.638  -9.436  0.00  0.00     0.000 HD
ENDBRANCH  15  16
ENDBRANCH  14  15
BRANCH  14  18
HETATM   18  N           1     -19.620  -5.331  -7.353  0.00  0.00    -0.067 N 
HETATM   19  H           1     -20.179  -5.819  -8.090  0.00  0.00     0.275 HD
HETATM   20  H           1     -18.957  -4.662  -7.805  0.00  0.00     0.275 HD
HETATM   21  H           1     -19.080  -6.038  -6.802  0.00  0.00     0.275 HD
ENDBRANCH  14  18
ENDBRANCH   3  14
TORSDOF 9
ENDMDL
MODEL 9
REMARK VINA RESULT:      -4.4     16.286     17.282
REMARK  9 active torsions:
REMARK  status: ('A' for Active; 'I' for Inactive)
REMARK    1  A    between atoms: C_1  and  C_11 
REMARK    2  A    between atoms: C_1  and  C_2 
REMARK    3  A    between atoms: C_1  and  N_4 
REMARK    4  A    between atoms: C_2  and  Se_3 
REMARK       I    between atoms: C_11  and  N_12 
REMARK    5  A    between atoms: N_12  and  C_16 
REMARK    6  A    between atoms: C_15  and  C_16 
REMARK    7  A    between atoms: C_16  and  C_17 
REMARK    8  A    between atoms: C_17  and  C_18 
REMARK    9  A    between atoms: C_18  and  C_20 
ROOT
HETATM    1  O           1     -19.581  -8.099  -5.497  0.00  0.00    -0.271 OA
HETATM    2  H           1     -21.993  -7.351  -3.635  0.00  0.00     0.163 HD
HETATM    3  C           1     -20.594  -7.538  -5.148  0.00  0.00     0.249 C 
HETATM    4  N           1     -21.146  -7.819  -3.927  0.00  0.00    -0.345 N 
ENDROOT
BRANCH   4   5
HETATM    5  C           1     -20.517  -8.790  -3.053  0.00  0.00     0.186 C 
BRANCH   5   6
HETATM    6  C           1     -21.367 -10.035  -2.989  0.00  0.00     0.196 C 
HETATM    7  O           1     -21.113 -10.922  -2.146  0.00  0.00    -0.646 OA
HETATM    8  O           1     -22.325 -10.180  -3.779  0.00  0.00    -0.646 OA
ENDBRANCH   5   6
BRANCH   5   9
HETATM    9  C           1     -20.375  -8.199  -1.657  0.00  0.00     0.046 C 
BRANCH   9  10
HETATM   10  C           1     -21.674  -7.512  -1.261  0.00  0.00     0.116 C 
BRANCH  10  11
HETATM   11  C           1     -22.112  -8.005   0.097  0.00  0.00     0.172 C 
HETATM   12  O           1     -23.316  -7.949   0.424  0.00  0.00    -0.648 OA
HETATM   13  O           1     -21.269  -8.469   0.895  0.00  0.00    -0.648 OA
ENDBRANCH  10  11
ENDBRANCH   9  10
ENDBRANCH   5   9
ENDBRANCH   4   5
BRANCH   3  14
HETATM   14  C           1     -21.249  -6.529  -6.058  0.00  0.00     0.274 C 
BRANCH  14  15
HETATM   15  C           1     -20.249  -5.436  -6.409  0.00  0.00     0.045 C 
BRANCH  15  16
HETATM   16 Se           1     -21.186  -3.937  -7.232  0.00  0.00     0.000 Se
HETATM   17  H           1     -22.514  -4.569  -7.143  0.00  0.00     0.000 HD
ENDBRANCH  15  16
ENDBRANCH  14  15
BRANCH  14  18
HETATM   18  N           1     -22.429  -5.921  -5.361  0.00  0.00    -0.067 N 
HETATM   19  H           1     -22.672  -5.010  -5.813  0.00  0.00     0.275 HD
HETATM   20  H           1     -23.245  -6.570  -5.426  0.00  0.00     0.275 HD
HETATM   21  H           1     -22.194  -5.757  -4.355  0.00  0.00     0.275 HD
ENDBRANCH  14  18
ENDBRANCH   3  14
TORSDOF 9
ENDMDL
