MODEL 1
REMARK VINA RESULT:      -8.9      0.000      0.000
REMARK  11 active torsions:
REMARK  status: ('A' for Active; 'I' for Inactive)
REMARK    1  A    between atoms: C_4  and  C_6 
REMARK    2  A    between atoms: C_6  and  C_7 
REMARK    3  A    between atoms: C_6  and  N_14 
REMARK    4  A    between atoms: C_7  and  C_8 
REMARK       I    between atoms: N_14  and  C_15 
REMARK    5  A    between atoms: C_15  and  C_16 
REMARK    6  A    between atoms: C_16  and  C_17 
REMARK    7  A    between atoms: C_16  and  N_27 
REMARK    8  A    between atoms: C_17  and  C_18 
REMARK    9  A    between atoms: C_21  and  O_22 
REMARK   10  A    between atoms: O_22  and  P_23 
REMARK   11  A    between atoms: P_23  and  O_24 
ROOT
HETATM    1  C           1     -21.016  -6.103  -5.128  0.00  0.00     0.278 C 
ENDROOT
BRANCH   1   2
HETATM    2  C           1     -20.358  -7.446  -5.333  0.00  0.00     0.249 C 
HETATM    3  N           1     -20.872  -8.560  -4.724  0.00  0.00    -0.344 N 
HETATM    4  H           1     -21.575  -9.116  -5.195  0.00  0.00     0.163 HD
HETATM    5  O           1     -19.380  -7.539  -6.035  0.00  0.00    -0.271 OA
BRANCH   3   6
HETATM    6  C           1     -20.410  -8.942  -3.404  0.00  0.00     0.189 C 
BRANCH   6   7
HETATM    7  C           1     -19.045  -9.577  -3.514  0.00  0.00     0.197 C 
HETATM    8  O           1     -18.074  -9.082  -2.903  0.00  0.00    -0.646 OA
HETATM    9  O           1     -18.887 -10.598  -4.218  0.00  0.00    -0.646 OA
ENDBRANCH   6   7
BRANCH   6  10
HETATM   10  C           1     -21.386  -9.938  -2.793  0.00  0.00     0.074 C 
BRANCH  10  11
HETATM   11  C           1     -22.025  -9.333  -1.581  0.00  0.00    -0.056 A 
HETATM   12  C           1     -21.688  -8.037  -1.190  0.00  0.00     0.007 A 
HETATM   13  C           1     -22.283  -7.473  -0.060  0.00  0.00     0.001 A 
HETATM   14  C           1     -23.214  -8.206   0.677  0.00  0.00     0.000 A 
HETATM   15  C           1     -23.549  -9.502   0.285  0.00  0.00     0.001 A 
HETATM   16  C           1     -22.955 -10.066  -0.844  0.00  0.00     0.007 A 
ENDBRANCH  10  11
ENDBRANCH   6  10
ENDBRANCH   3   6
ENDBRANCH   1   2
BRANCH   1  17
HETATM   17  C           1     -20.160  -5.017  -5.765  0.00  0.00     0.081 C 
BRANCH  17  18
HETATM   18  C           1     -20.743  -4.637  -7.092  0.00  0.00    -0.056 A 
HETATM   19  C           1     -20.014  -4.854  -8.261  0.00  0.00     0.010 A 
HETATM   20  C           1     -20.557  -4.501  -9.496  0.00  0.00     0.038 A 
HETATM   21  C           1     -21.829  -3.932  -9.562  0.00  0.00     0.081 A 
HETATM   22  C           1     -22.557  -3.715  -8.393  0.00  0.00     0.038 A 
HETATM   23  C           1     -22.014  -4.068  -7.157  0.00  0.00     0.010 A 
BRANCH  21  24
HETATM   24  O           1     -22.355  -3.588 -10.762  0.00  0.00    -0.247 OA
BRANCH  24  25
HETATM   25  P           1     -23.730  -4.301 -11.219  0.00  0.00     0.411 P 
HETATM   26  O           1     -23.974  -5.490 -10.374  0.00  0.00    -0.624 OA
HETATM   27  O           1     -24.854  -3.349 -11.068  0.00  0.00    -0.624 OA
BRANCH  25  28
HETATM   28  O           1     -23.614  -4.755 -12.765  0.00  0.00    -0.300 OA
HETATM   29  H           1     -22.738  -4.525 -13.022  0.00  0.00     0.223 HD
ENDBRANCH  25  28
ENDBRANCH  24  25
ENDBRANCH  21  24
ENDBRANCH  17  18
ENDBRANCH   1  17
BRANCH   1  30
HETATM   30  N           1     -21.151  -5.834  -3.658  0.00  0.00    -0.066 N 
HETATM   31  H           1     -22.143  -5.588  -3.439  0.00  0.00     0.275 HD
HETATM   32  H           1     -20.877  -6.687  -3.121  0.00  0.00     0.275 HD
HETATM   33  H           1     -20.528  -5.037  -3.391  0.00  0.00     0.275 HD
ENDBRANCH   1  30
TORSDOF 11
ENDMDL
MODEL 2
REMARK VINA RESULT:      -8.9      0.081      1.083
REMARK  11 active torsions:
REMARK  status: ('A' for Active; 'I' for Inactive)
REMARK    1  A    between atoms: C_4  and  C_6 
REMARK    2  A    between atoms: C_6  and  C_7 
REMARK    3  A    between atoms: C_6  and  N_14 
REMARK    4  A    between atoms: C_7  and  C_8 
REMARK       I    between atoms: N_14  and  C_15 
REMARK    5  A    between atoms: C_15  and  C_16 
REMARK    6  A    between atoms: C_16  and  C_17 
REMARK    7  A    between atoms: C_16  and  N_27 
REMARK    8  A    between atoms: C_17  and  C_18 
REMARK    9  A    between atoms: C_21  and  O_22 
REMARK   10  A    between atoms: O_22  and  P_23 
REMARK   11  A    between atoms: P_23  and  O_24 
ROOT
HETATM    1  C           1     -21.081  -6.067  -5.081  0.00  0.00     0.278 C 
ENDROOT
BRANCH   1   2
HETATM    2  C           1     -20.427  -7.403  -5.337  0.00  0.00     0.249 C 
HETATM    3  N           1     -20.924  -8.533  -4.745  0.00  0.00    -0.344 N 
HETATM    4  H           1     -21.637  -9.078  -5.214  0.00  0.00     0.163 HD
HETATM    5  O           1     -19.466  -7.475  -6.066  0.00  0.00    -0.271 OA
BRANCH   3   6
HETATM    6  C           1     -20.429  -8.949  -3.447  0.00  0.00     0.189 C 
BRANCH   6   7
HETATM    7  C           1     -19.073  -9.592  -3.610  0.00  0.00     0.197 C 
HETATM    8  O           1     -18.921 -10.534  -4.417  0.00  0.00    -0.646 OA
HETATM    9  O           1     -18.104  -9.182  -2.936  0.00  0.00    -0.646 OA
ENDBRANCH   6   7
BRANCH   6  10
HETATM   10  C           1     -21.397  -9.950  -2.832  0.00  0.00     0.074 C 
BRANCH  10  11
HETATM   11  C           1     -22.031  -9.349  -1.615  0.00  0.00    -0.056 A 
HETATM   12  C           1     -22.972 -10.078  -0.888  0.00  0.00     0.007 A 
HETATM   13  C           1     -23.563  -9.518   0.245  0.00  0.00     0.001 A 
HETATM   14  C           1     -23.213  -8.230   0.650  0.00  0.00     0.000 A 
HETATM   15  C           1     -22.273  -7.502  -0.078  0.00  0.00     0.001 A 
HETATM   16  C           1     -21.682  -8.061  -1.211  0.00  0.00     0.007 A 
ENDBRANCH  10  11
ENDBRANCH   6  10
ENDBRANCH   3   6
ENDBRANCH   1   2
BRANCH   1  17
HETATM   17  C           1     -20.234  -4.961  -5.697  0.00  0.00     0.081 C 
BRANCH  17  18
HETATM   18  C           1     -20.778  -4.609  -7.047  0.00  0.00    -0.056 A 
HETATM   19  C           1     -20.006  -4.826  -8.188  0.00  0.00     0.010 A 
HETATM   20  C           1     -20.512  -4.500  -9.446  0.00  0.00     0.038 A 
HETATM   21  C           1     -21.792  -3.956  -9.562  0.00  0.00     0.081 A 
HETATM   22  C           1     -22.564  -3.739  -8.421  0.00  0.00     0.038 A 
HETATM   23  C           1     -22.057  -4.066  -7.164  0.00  0.00     0.010 A 
BRANCH  21  24
HETATM   24  O           1     -22.283  -3.637 -10.784  0.00  0.00    -0.247 OA
BRANCH  24  25
HETATM   25  P           1     -23.669  -4.325 -11.247  0.00  0.00     0.411 P 
HETATM   26  O           1     -23.912  -5.539 -10.437  0.00  0.00    -0.624 OA
HETATM   27  O           1     -24.783  -3.370 -11.052  0.00  0.00    -0.624 OA
BRANCH  25  28
HETATM   28  O           1     -23.575  -4.730 -12.808  0.00  0.00    -0.300 OA
HETATM   29  H           1     -24.391  -5.160 -12.998  0.00  0.00     0.223 HD
ENDBRANCH  25  28
ENDBRANCH  24  25
ENDBRANCH  21  24
ENDBRANCH  17  18
ENDBRANCH   1  17
BRANCH   1  30
HETATM   30  N           1     -21.197  -5.844  -3.602  0.00  0.00    -0.066 N 
HETATM   31  H           1     -20.921  -6.715  -3.096  0.00  0.00     0.275 HD
HETATM   32  H           1     -20.566  -5.061  -3.318  0.00  0.00     0.275 HD
HETATM   33  H           1     -22.185  -5.600  -3.363  0.00  0.00     0.275 HD
ENDBRANCH   1  30
TORSDOF 11
ENDMDL
MODEL 3
REMARK VINA RESULT:      -8.6      1.900      3.537
REMARK  11 active torsions:
REMARK  status: ('A' for Active; 'I' for Inactive)
REMARK    1  A    between atoms: C_4  and  C_6 
REMARK    2  A    between atoms: C_6  and  C_7 
REMARK    3  A    between atoms: C_6  and  N_14 
REMARK    4  A    between atoms: C_7  and  C_8 
REMARK       I    between atoms: N_14  and  C_15 
REMARK    5  A    between atoms: C_15  and  C_16 
REMARK    6  A    between atoms: C_16  and  C_17 
REMARK    7  A    between atoms: C_16  and  N_27 
REMARK    8  A    between atoms: C_17  and  C_18 
REMARK    9  A    between atoms: C_21  and  O_22 
REMARK   10  A    between atoms: O_22  and  P_23 
REMARK   11  A    between atoms: P_23  and  O_24 
ROOT
HETATM    1  C           1     -20.463  -6.295  -5.320  0.00  0.00     0.278 C 
ENDROOT
BRANCH   1   2
HETATM    2  C           1     -21.598  -6.285  -4.325  0.00  0.00     0.249 C 
HETATM    3  N           1     -21.344  -6.491  -2.995  0.00  0.00    -0.344 N 
HETATM    4  H           1     -21.142  -5.705  -2.390  0.00  0.00     0.163 HD
HETATM    5  O           1     -22.730  -6.093  -4.701  0.00  0.00    -0.271 OA
BRANCH   3   6
HETATM    6  C           1     -21.364  -7.836  -2.454  0.00  0.00     0.189 C 
BRANCH   6   7
HETATM    7  C           1     -22.183  -7.855  -1.186  0.00  0.00     0.197 C 
HETATM    8  O           1     -22.635  -6.788  -0.717  0.00  0.00    -0.646 OA
HETATM    9  O           1     -22.408  -8.939  -0.605  0.00  0.00    -0.646 OA
ENDBRANCH   6   7
BRANCH   6  10
HETATM   10  C           1     -19.941  -8.281  -2.148  0.00  0.00     0.074 C 
BRANCH  10  11
HETATM   11  C           1     -19.439  -9.153  -3.258  0.00  0.00    -0.056 A 
HETATM   12  C           1     -18.068  -9.332  -3.437  0.00  0.00     0.007 A 
HETATM   13  C           1     -17.601 -10.145  -4.471  0.00  0.00     0.001 A 
HETATM   14  C           1     -18.506 -10.776  -5.325  0.00  0.00     0.000 A 
HETATM   15  C           1     -19.877 -10.595  -5.145  0.00  0.00     0.001 A 
HETATM   16  C           1     -20.344  -9.783  -4.111  0.00  0.00     0.007 A 
ENDBRANCH  10  11
ENDBRANCH   6  10
ENDBRANCH   3   6
ENDBRANCH   1   2
BRANCH   1  17
HETATM   17  C           1     -20.112  -4.864  -5.705  0.00  0.00     0.081 C 
BRANCH  17  18
HETATM   18  C           1     -20.681  -4.557  -7.056  0.00  0.00    -0.056 A 
HETATM   19  C           1     -21.948  -3.984  -7.165  0.00  0.00     0.010 A 
HETATM   20  C           1     -22.478  -3.697  -8.423  0.00  0.00     0.038 A 
HETATM   21  C           1     -21.741  -3.985  -9.572  0.00  0.00     0.081 A 
HETATM   22  C           1     -20.474  -4.558  -9.463  0.00  0.00     0.038 A 
HETATM   23  C           1     -19.944  -4.844  -8.204  0.00  0.00     0.010 A 
BRANCH  21  24
HETATM   24  O           1     -22.256  -3.707 -10.794  0.00  0.00    -0.247 OA
BRANCH  24  25
HETATM   25  P           1     -23.683  -4.356 -11.180  0.00  0.00     0.411 P 
HETATM   26  O           1     -23.951  -5.517 -10.303  0.00  0.00    -0.624 OA
HETATM   27  O           1     -24.749  -3.345 -11.000  0.00  0.00    -0.624 OA
BRANCH  25  28
HETATM   28  O           1     -23.657  -4.840 -12.721  0.00  0.00    -0.300 OA
HETATM   29  H           1     -24.215  -5.597 -12.748  0.00  0.00     0.223 HD
ENDBRANCH  25  28
ENDBRANCH  24  25
ENDBRANCH  21  24
ENDBRANCH  17  18
ENDBRANCH   1  17
BRANCH   1  30
HETATM   30  N           1     -20.882  -7.054  -6.545  0.00  0.00    -0.066 N 
HETATM   31  H           1     -21.749  -6.626  -6.940  0.00  0.00     0.275 HD
HETATM   32  H           1     -20.119  -7.013  -7.257  0.00  0.00     0.275 HD
HETATM   33  H           1     -21.070  -8.050  -6.290  0.00  0.00     0.275 HD
ENDBRANCH   1  30
TORSDOF 11
ENDMDL
MODEL 4
REMARK VINA RESULT:      -8.2      1.722      2.310
REMARK  11 active torsions:
REMARK  status: ('A' for Active; 'I' for Inactive)
REMARK    1  A    between atoms: C_4  and  C_6 
REMARK    2  A    between atoms: C_6  and  C_7 
REMARK    3  A    between atoms: C_6  and  N_14 
REMARK    4  A    between atoms: C_7  and  C_8 
REMARK       I    between atoms: N_14  and  C_15 
REMARK    5  A    between atoms: C_15  and  C_16 
REMARK    6  A    between atoms: C_16  and  C_17 
REMARK    7  A    between atoms: C_16  and  N_27 
REMARK    8  A    between atoms: C_17  and  C_18 
REMARK    9  A    between atoms: C_21  and  O_22 
REMARK   10  A    between atoms: O_22  and  P_23 
REMARK   11  A    between atoms: P_23  and  O_24 
ROOT
HETATM    1  C           1     -21.141  -7.814  -4.703  0.00  0.00     0.278 C 
ENDROOT
BRANCH   1   2
HETATM    2  C           1     -21.095  -9.305  -4.936  0.00  0.00     0.249 C 
HETATM    3  N           1     -21.934 -10.133  -4.239  0.00  0.00    -0.344 N 
HETATM    4  H           1     -22.847 -10.359  -4.612  0.00  0.00     0.163 HD
HETATM    5  O           1     -20.318  -9.767  -5.738  0.00  0.00    -0.271 OA
BRANCH   3   6
HETATM    6  C           1     -21.514 -10.686  -2.966  0.00  0.00     0.189 C 
BRANCH   6   7
HETATM    7  C           1     -21.194 -12.151  -3.136  0.00  0.00     0.197 C 
HETATM    8  O           1     -20.017 -12.514  -3.352  0.00  0.00    -0.646 OA
HETATM    9  O           1     -22.107 -13.002  -3.062  0.00  0.00    -0.646 OA
ENDBRANCH   6   7
BRANCH   6  10
HETATM   10  C           1     -22.634 -10.524  -1.948  0.00  0.00     0.074 C 
BRANCH  10  11
HETATM   11  C           1     -22.095  -9.877  -0.710  0.00  0.00    -0.056 A 
HETATM   12  C           1     -21.111 -10.520   0.040  0.00  0.00     0.007 A 
HETATM   13  C           1     -20.608  -9.916   1.195  0.00  0.00     0.001 A 
HETATM   14  C           1     -21.090  -8.671   1.597  0.00  0.00     0.000 A 
HETATM   15  C           1     -22.076  -8.029   0.846  0.00  0.00     0.001 A 
HETATM   16  C           1     -22.578  -8.632  -0.307  0.00  0.00     0.007 A 
ENDBRANCH  10  11
ENDBRANCH   6  10
ENDBRANCH   3   6
ENDBRANCH   1   2
BRANCH   1  17
HETATM   17  C           1     -20.107  -7.130  -5.587  0.00  0.00     0.081 C 
BRANCH  17  18
HETATM   18  C           1     -20.789  -6.126  -6.465  0.00  0.00    -0.056 A 
HETATM   19  C           1     -20.168  -5.688  -7.635  0.00  0.00     0.010 A 
HETATM   20  C           1     -20.803  -4.753  -8.453  0.00  0.00     0.038 A 
HETATM   21  C           1     -22.058  -4.257  -8.100  0.00  0.00     0.081 A 
HETATM   22  C           1     -22.678  -4.695  -6.931  0.00  0.00     0.038 A 
HETATM   23  C           1     -22.043  -5.630  -6.113  0.00  0.00     0.010 A 
BRANCH  21  24
HETATM   24  O           1     -22.674  -3.348  -8.894  0.00  0.00    -0.247 OA
BRANCH  24  25
HETATM   25  P           1     -23.298  -3.861 -10.292  0.00  0.00     0.411 P 
HETATM   26  O           1     -22.337  -3.602 -11.386  0.00  0.00    -0.624 OA
HETATM   27  O           1     -23.571  -5.313 -10.207  0.00  0.00    -0.624 OA
BRANCH  25  28
HETATM   28  O           1     -24.676  -3.072 -10.590  0.00  0.00    -0.300 OA
HETATM   29  H           1     -25.341  -3.564 -10.139  0.00  0.00     0.223 HD
ENDBRANCH  25  28
ENDBRANCH  24  25
ENDBRANCH  21  24
ENDBRANCH  17  18
ENDBRANCH   1  17
BRANCH   1  30
HETATM   30  N           1     -20.835  -7.525  -3.262  0.00  0.00    -0.066 N 
HETATM   31  H           1     -21.333  -8.215  -2.656  0.00  0.00     0.275 HD
HETATM   32  H           1     -19.806  -7.601  -3.103  0.00  0.00     0.275 HD
HETATM   33  H           1     -21.156  -6.559  -3.026  0.00  0.00     0.275 HD
ENDBRANCH   1  30
TORSDOF 11
ENDMDL
MODEL 5
REMARK VINA RESULT:      -8.0      1.575      2.449
REMARK  11 active torsions:
REMARK  status: ('A' for Active; 'I' for Inactive)
REMARK    1  A    between atoms: C_4  and  C_6 
REMARK    2  A    between atoms: C_6  and  C_7 
REMARK    3  A    between atoms: C_6  and  N_14 
REMARK    4  A    between atoms: C_7  and  C_8 
REMARK       I    between atoms: N_14  and  C_15 
REMARK    5  A    between atoms: C_15  and  C_16 
REMARK    6  A    between atoms: C_16  and  C_17 
REMARK    7  A    between atoms: C_16  and  N_27 
REMARK    8  A    between atoms: C_17  and  C_18 
REMARK    9  A    between atoms: C_21  and  O_22 
REMARK   10  A    between atoms: O_22  and  P_23 
REMARK   11  A    between atoms: P_23  and  O_24 
ROOT
HETATM    1  C           1     -19.969  -8.715  -5.683  0.00  0.00     0.278 C 
ENDROOT
BRANCH   1   2
HETATM    2  C           1     -19.008  -9.580  -4.905  0.00  0.00     0.249 C 
HETATM    3  N           1     -19.486 -10.547  -4.061  0.00  0.00    -0.344 N 
HETATM    4  H           1     -19.651 -11.484  -4.407  0.00  0.00     0.163 HD
HETATM    5  O           1     -17.816  -9.420  -5.027  0.00  0.00    -0.271 OA
BRANCH   3   6
HETATM    6  C           1     -19.755 -10.228  -2.673  0.00  0.00     0.189 C 
BRANCH   6   7
HETATM    7  C           1     -18.823 -11.019  -1.786  0.00  0.00     0.197 C 
HETATM    8  O           1     -19.283 -11.700  -0.844  0.00  0.00    -0.646 OA
HETATM    9  O           1     -17.591 -10.993  -1.995  0.00  0.00    -0.646 OA
ENDBRANCH   6   7
BRANCH   6  10
HETATM   10  C           1     -21.197 -10.585  -2.341  0.00  0.00     0.074 C 
BRANCH  10  11
HETATM   11  C           1     -21.798  -9.502  -1.499  0.00  0.00    -0.056 A 
HETATM   12  C           1     -21.515  -8.165  -1.776  0.00  0.00     0.007 A 
HETATM   13  C           1     -22.075  -7.156  -0.992  0.00  0.00     0.001 A 
HETATM   14  C           1     -22.919  -7.485   0.069  0.00  0.00     0.000 A 
HETATM   15  C           1     -23.201  -8.822   0.346  0.00  0.00     0.001 A 
HETATM   16  C           1     -22.641  -9.831  -0.437  0.00  0.00     0.007 A 
ENDBRANCH  10  11
ENDBRANCH   6  10
ENDBRANCH   3   6
ENDBRANCH   1   2
BRANCH   1  17
HETATM   17  C           1     -20.143  -7.381  -4.971  0.00  0.00     0.081 C 
BRANCH  17  18
HETATM   18  C           1     -20.610  -6.349  -5.951  0.00  0.00    -0.056 A 
HETATM   19  C           1     -21.868  -5.765  -5.803  0.00  0.00     0.010 A 
HETATM   20  C           1     -22.303  -4.804  -6.714  0.00  0.00     0.038 A 
HETATM   21  C           1     -21.479  -4.427  -7.775  0.00  0.00     0.081 A 
HETATM   22  C           1     -20.221  -5.010  -7.923  0.00  0.00     0.038 A 
HETATM   23  C           1     -19.786  -5.972  -7.011  0.00  0.00     0.010 A 
BRANCH  21  24
HETATM   24  O           1     -21.902  -3.494  -8.662  0.00  0.00    -0.247 OA
BRANCH  24  25
HETATM   25  P           1     -23.162  -3.858  -9.603  0.00  0.00     0.411 P 
HETATM   26  O           1     -23.031  -3.154 -10.898  0.00  0.00    -0.624 OA
HETATM   27  O           1     -23.199  -5.319  -9.836  0.00  0.00    -0.624 OA
BRANCH  25  28
HETATM   28  O           1     -24.529  -3.395  -8.876  0.00  0.00    -0.300 OA
HETATM   29  H           1     -24.287  -3.232  -7.982  0.00  0.00     0.223 HD
ENDBRANCH  25  28
ENDBRANCH  24  25
ENDBRANCH  21  24
ENDBRANCH  17  18
ENDBRANCH   1  17
BRANCH   1  30
HETATM   30  N           1     -21.297  -9.408  -5.779  0.00  0.00    -0.066 N 
HETATM   31  H           1     -21.147 -10.439  -5.857  0.00  0.00     0.275 HD
HETATM   32  H           1     -21.859  -9.201  -4.924  0.00  0.00     0.275 HD
HETATM   33  H           1     -21.807  -9.065  -6.625  0.00  0.00     0.275 HD
ENDBRANCH   1  30
TORSDOF 11
ENDMDL
MODEL 6
REMARK VINA RESULT:      -8.0      4.939      6.742
REMARK  11 active torsions:
REMARK  status: ('A' for Active; 'I' for Inactive)
REMARK    1  A    between atoms: C_4  and  C_6 
REMARK    2  A    between atoms: C_6  and  C_7 
REMARK    3  A    between atoms: C_6  and  N_14 
REMARK    4  A    between atoms: C_7  and  C_8 
REMARK       I    between atoms: N_14  and  C_15 
REMARK    5  A    between atoms: C_15  and  C_16 
REMARK    6  A    between atoms: C_16  and  C_17 
REMARK    7  A    between atoms: C_16  and  N_27 
REMARK    8  A    between atoms: C_17  and  C_18 
REMARK    9  A    between atoms: C_21  and  O_22 
REMARK   10  A    between atoms: O_22  and  P_23 
REMARK   11  A    between atoms: P_23  and  O_24 
ROOT
HETATM    1  C           1     -18.691 -12.161  -1.056  0.00  0.00     0.278 C 
ENDROOT
BRANCH   1   2
HETATM    2  C           1     -19.243 -13.245  -0.162  0.00  0.00     0.249 C 
HETATM    3  N           1     -20.586 -13.511  -0.156  0.00  0.00    -0.344 N 
HETATM    4  H           1     -20.970 -14.195  -0.796  0.00  0.00     0.163 HD
HETATM    5  O           1     -18.498 -13.880   0.548  0.00  0.00    -0.271 OA
BRANCH   3   6
HETATM    6  C           1     -21.459 -12.811   0.767  0.00  0.00     0.189 C 
BRANCH   6   7
HETATM    7  C           1     -22.154 -13.812   1.657  0.00  0.00     0.197 C 
HETATM    8  O           1     -21.547 -14.833   2.044  0.00  0.00    -0.646 OA
HETATM    9  O           1     -23.339 -13.619   2.006  0.00  0.00    -0.646 OA
ENDBRANCH   6   7
BRANCH   6  10
HETATM   10  C           1     -22.496 -12.020  -0.017  0.00  0.00     0.074 C 
BRANCH  10  11
HETATM   11  C           1     -22.329 -10.558   0.266  0.00  0.00    -0.056 A 
HETATM   12  C           1     -21.147 -10.090   0.838  0.00  0.00     0.007 A 
HETATM   13  C           1     -20.992  -8.728   1.102  0.00  0.00     0.001 A 
HETATM   14  C           1     -22.019  -7.837   0.794  0.00  0.00     0.000 A 
HETATM   15  C           1     -23.202  -8.307   0.222  0.00  0.00     0.001 A 
HETATM   16  C           1     -23.357  -9.667  -0.042  0.00  0.00     0.007 A 
ENDBRANCH  10  11
ENDBRANCH   6  10
ENDBRANCH   3   6
ENDBRANCH   1   2
BRANCH   1  17
HETATM   17  C           1     -19.388 -12.216  -2.409  0.00  0.00     0.081 C 
BRANCH  17  18
HETATM   18  C           1     -20.067 -10.907  -2.673  0.00  0.00    -0.056 A 
HETATM   19  C           1     -19.432  -9.712  -2.336  0.00  0.00     0.010 A 
HETATM   20  C           1     -20.063  -8.493  -2.583  0.00  0.00     0.038 A 
HETATM   21  C           1     -21.330  -8.470  -3.167  0.00  0.00     0.081 A 
HETATM   22  C           1     -21.965  -9.665  -3.504  0.00  0.00     0.038 A 
HETATM   23  C           1     -21.333 -10.884  -3.258  0.00  0.00     0.010 A 
BRANCH  21  24
HETATM   24  O           1     -21.944  -7.286  -3.406  0.00  0.00    -0.247 OA
BRANCH  24  25
HETATM   25  P           1     -21.719  -6.592  -4.846  0.00  0.00     0.411 P 
HETATM   26  O           1     -22.991  -5.993  -5.309  0.00  0.00    -0.624 OA
HETATM   27  O           1     -20.689  -5.536  -4.730  0.00  0.00    -0.624 OA
BRANCH  25  28
HETATM   28  O           1     -21.231  -7.704  -5.911  0.00  0.00    -0.300 OA
HETATM   29  H           1     -20.479  -8.108  -5.514  0.00  0.00     0.223 HD
ENDBRANCH  25  28
ENDBRANCH  24  25
ENDBRANCH  21  24
ENDBRANCH  17  18
ENDBRANCH   1  17
BRANCH   1  30
HETATM   30  N           1     -17.218 -12.371  -1.243  0.00  0.00    -0.066 N 
HETATM   31  H           1     -16.985 -12.318  -2.260  0.00  0.00     0.275 HD
HETATM   32  H           1     -16.693 -11.631  -0.727  0.00  0.00     0.275 HD
HETATM   33  H           1     -16.951 -13.312  -0.874  0.00  0.00     0.275 HD
ENDBRANCH   1  30
TORSDOF 11
ENDMDL
MODEL 7
REMARK VINA RESULT:      -7.8      3.212      4.770
REMARK  11 active torsions:
REMARK  status: ('A' for Active; 'I' for Inactive)
REMARK    1  A    between atoms: C_4  and  C_6 
REMARK    2  A    between atoms: C_6  and  C_7 
REMARK    3  A    between atoms: C_6  and  N_14 
REMARK    4  A    between atoms: C_7  and  C_8 
REMARK       I    between atoms: N_14  and  C_15 
REMARK    5  A    between atoms: C_15  and  C_16 
REMARK    6  A    between atoms: C_16  and  C_17 
REMARK    7  A    between atoms: C_16  and  N_27 
REMARK    8  A    between atoms: C_17  and  C_18 
REMARK    9  A    between atoms: C_21  and  O_22 
REMARK   10  A    between atoms: O_22  and  P_23 
REMARK   11  A    between atoms: P_23  and  O_24 
ROOT
HETATM    1  C           1     -20.368 -10.842  -3.369  0.00  0.00     0.278 C 
ENDROOT
BRANCH   1   2
HETATM    2  C           1     -19.405 -11.827  -2.751  0.00  0.00     0.249 C 
HETATM    3  N           1     -19.735 -12.468  -1.587  0.00  0.00    -0.344 N 
HETATM    4  H           1     -20.225 -13.353  -1.618  0.00  0.00     0.163 HD
HETATM    5  O           1     -18.344 -12.051  -3.285  0.00  0.00    -0.271 OA
BRANCH   3   6
HETATM    6  C           1     -19.382 -11.878  -0.311  0.00  0.00     0.189 C 
BRANCH   6   7
HETATM    7  C           1     -18.199 -12.613   0.272  0.00  0.00     0.197 C 
HETATM    8  O           1     -18.292 -13.828   0.549  0.00  0.00    -0.646 OA
HETATM    9  O           1     -17.127 -12.004   0.478  0.00  0.00    -0.646 OA
ENDBRANCH   6   7
BRANCH   6  10
HETATM   10  C           1     -20.566 -11.983   0.641  0.00  0.00     0.074 C 
BRANCH  10  11
HETATM   11  C           1     -21.401 -10.744   0.539  0.00  0.00    -0.056 A 
HETATM   12  C           1     -22.686 -10.813   0.003  0.00  0.00     0.007 A 
HETATM   13  C           1     -23.465  -9.658  -0.093  0.00  0.00     0.001 A 
HETATM   14  C           1     -22.957  -8.436   0.349  0.00  0.00     0.000 A 
HETATM   15  C           1     -21.670  -8.369   0.885  0.00  0.00     0.001 A 
HETATM   16  C           1     -20.892  -9.522   0.980  0.00  0.00     0.007 A 
ENDBRANCH  10  11
ENDBRANCH   6  10
ENDBRANCH   3   6
ENDBRANCH   1   2
BRANCH   1  17
HETATM   17  C           1     -20.275  -9.512  -2.634  0.00  0.00     0.081 C 
BRANCH  17  18
HETATM   18  C           1     -20.810  -8.420  -3.508  0.00  0.00    -0.056 A 
HETATM   19  C           1     -20.794  -8.567  -4.895  0.00  0.00     0.010 A 
HETATM   20  C           1     -21.293  -7.551  -5.710  0.00  0.00     0.038 A 
HETATM   21  C           1     -21.809  -6.388  -5.137  0.00  0.00     0.081 A 
HETATM   22  C           1     -21.825  -6.242  -3.750  0.00  0.00     0.038 A 
HETATM   23  C           1     -21.326  -7.258  -2.936  0.00  0.00     0.010 A 
BRANCH  21  24
HETATM   24  O           1     -22.293  -5.401  -5.928  0.00  0.00    -0.247 OA
BRANCH  24  25
HETATM   25  P           1     -21.254  -4.616  -6.884  0.00  0.00     0.411 P 
HETATM   26  O           1     -19.947  -4.501  -6.200  0.00  0.00    -0.624 OA
HETATM   27  O           1     -21.086  -5.364  -8.149  0.00  0.00    -0.624 OA
BRANCH  25  28
HETATM   28  O           1     -21.825  -3.139  -7.203  0.00  0.00    -0.300 OA
HETATM   29  H           1     -21.458  -2.912  -8.040  0.00  0.00     0.223 HD
ENDBRANCH  25  28
ENDBRANCH  24  25
ENDBRANCH  21  24
ENDBRANCH  17  18
ENDBRANCH   1  17
BRANCH   1  30
HETATM   30  N           1     -21.766 -11.376  -3.261  0.00  0.00    -0.066 N 
HETATM   31  H           1     -22.399 -10.825  -3.883  0.00  0.00     0.275 HD
HETATM   32  H           1     -21.778 -12.379  -3.551  0.00  0.00     0.275 HD
HETATM   33  H           1     -22.093 -11.294  -2.271  0.00  0.00     0.275 HD
ENDBRANCH   1  30
TORSDOF 11
ENDMDL
MODEL 8
REMARK VINA RESULT:      -7.6      5.458      9.119
REMARK  11 active torsions:
REMARK  status: ('A' for Active; 'I' for Inactive)
REMARK    1  A    between atoms: C_4  and  C_6 
REMARK    2  A    between atoms: C_6  and  C_7 
REMARK    3  A    between atoms: C_6  and  N_14 
REMARK    4  A    between atoms: C_7  and  C_8 
REMARK       I    between atoms: N_14  and  C_15 
REMARK    5  A    between atoms: C_15  and  C_16 
REMARK    6  A    between atoms: C_16  and  C_17 
REMARK    7  A    between atoms: C_16  and  N_27 
REMARK    8  A    between atoms: C_17  and  C_18 
REMARK    9  A    between atoms: C_21  and  O_22 
REMARK   10  A    between atoms: O_22  and  P_23 
REMARK   11  A    between atoms: P_23  and  O_24 
ROOT
HETATM    1  C           1     -19.513  -9.789  -4.439  0.00  0.00     0.278 C 
ENDROOT
BRANCH   1   2
HETATM    2  C           1     -20.545  -8.688  -4.485  0.00  0.00     0.249 C 
HETATM    3  N           1     -20.646  -7.801  -3.448  0.00  0.00    -0.344 N 
HETATM    4  H           1     -20.103  -6.946  -3.458  0.00  0.00     0.163 HD
HETATM    5  O           1     -21.281  -8.590  -5.439  0.00  0.00    -0.271 OA
BRANCH   3   6
HETATM    6  C           1     -21.529  -8.085  -2.334  0.00  0.00     0.189 C 
BRANCH   6   7
HETATM    7  C           1     -22.160  -6.801  -1.852  0.00  0.00     0.197 C 
HETATM    8  O           1     -22.158  -5.790  -2.587  0.00  0.00    -0.646 OA
HETATM    9  O           1     -22.684  -6.750  -0.718  0.00  0.00    -0.646 OA
ENDBRANCH   6   7
BRANCH   6  10
HETATM   10  C           1     -20.731  -8.716  -1.201  0.00  0.00     0.074 C 
BRANCH  10  11
HETATM   11  C           1     -21.455  -9.925  -0.692  0.00  0.00    -0.056 A 
HETATM   12  C           1     -22.735 -10.219  -1.161  0.00  0.00     0.007 A 
HETATM   13  C           1     -23.409 -11.345  -0.686  0.00  0.00     0.001 A 
HETATM   14  C           1     -22.803 -12.175   0.256  0.00  0.00     0.000 A 
HETATM   15  C           1     -21.523 -11.879   0.725  0.00  0.00     0.001 A 
HETATM   16  C           1     -20.848 -10.754   0.251  0.00  0.00     0.007 A 
ENDBRANCH  10  11
ENDBRANCH   6  10
ENDBRANCH   3   6
ENDBRANCH   1   2
BRANCH   1  17
HETATM   17  C           1     -18.206  -9.237  -3.887  0.00  0.00     0.081 C 
BRANCH  17  18
HETATM   18  C           1     -17.545 -10.277  -3.037  0.00  0.00    -0.056 A 
HETATM   19  C           1     -16.171 -10.218  -2.804  0.00  0.00     0.010 A 
HETATM   20  C           1     -15.555 -11.186  -2.012  0.00  0.00     0.038 A 
HETATM   21  C           1     -16.314 -12.213  -1.451  0.00  0.00     0.081 A 
HETATM   22  C           1     -17.688 -12.273  -1.683  0.00  0.00     0.038 A 
HETATM   23  C           1     -18.303 -11.304  -2.476  0.00  0.00     0.010 A 
BRANCH  21  24
HETATM   24  O           1     -15.715 -13.154  -0.681  0.00  0.00    -0.247 OA
BRANCH  24  25
HETATM   25  P           1     -15.987 -13.119   0.910  0.00  0.00     0.411 P 
HETATM   26  O           1     -17.197 -13.912   1.222  0.00  0.00    -0.624 OA
HETATM   27  O           1     -14.824 -13.691   1.623  0.00  0.00    -0.624 OA
BRANCH  25  28
HETATM   28  O           1     -16.210 -11.591   1.385  0.00  0.00    -0.300 OA
HETATM   29  H           1     -16.880 -11.254   0.817  0.00  0.00     0.223 HD
ENDBRANCH  25  28
ENDBRANCH  24  25
ENDBRANCH  21  24
ENDBRANCH  17  18
ENDBRANCH   1  17
BRANCH   1  30
HETATM   30  N           1     -19.287 -10.318  -5.825  0.00  0.00    -0.066 N 
HETATM   31  H           1     -18.442 -10.933  -5.830  0.00  0.00     0.275 HD
HETATM   32  H           1     -20.121 -10.871  -6.127  0.00  0.00     0.275 HD
HETATM   33  H           1     -19.140  -9.519  -6.483  0.00  0.00     0.275 HD
ENDBRANCH   1  30
TORSDOF 11
ENDMDL
MODEL 9
REMARK VINA RESULT:      -7.3      4.351      6.708
REMARK  11 active torsions:
REMARK  status: ('A' for Active; 'I' for Inactive)
REMARK    1  A    between atoms: C_4  and  C_6 
REMARK    2  A    between atoms: C_6  and  C_7 
REMARK    3  A    between atoms: C_6  and  N_14 
REMARK    4  A    between atoms: C_7  and  C_8 
REMARK       I    between atoms: N_14  and  C_15 
REMARK    5  A    between atoms: C_15  and  C_16 
REMARK    6  A    between atoms: C_16  and  C_17 
REMARK    7  A    between atoms: C_16  and  N_27 
REMARK    8  A    between atoms: C_17  and  C_18 
REMARK    9  A    between atoms: C_21  and  O_22 
REMARK   10  A    between atoms: O_22  and  P_23 
REMARK   11  A    between atoms: P_23  and  O_24 
ROOT
HETATM    1  C           1     -22.526 -10.578  -0.285  0.00  0.00     0.278 C 
ENDROOT
BRANCH   1   2
HETATM    2  C           1     -21.659 -11.583   0.433  0.00  0.00     0.249 C 
HETATM    3  N           1     -20.297 -11.440   0.426  0.00  0.00    -0.344 N 
HETATM    4  H           1     -19.840 -10.905   1.153  0.00  0.00     0.163 HD
HETATM    5  O           1     -22.166 -12.512   1.016  0.00  0.00    -0.271 OA
BRANCH   3   6
HETATM    6  C           1     -19.510 -12.056  -0.625  0.00  0.00     0.189 C 
BRANCH   6   7
HETATM    7  C           1     -19.768 -13.543  -0.639  0.00  0.00     0.197 C 
HETATM    8  O           1     -20.388 -14.061  -1.592  0.00  0.00    -0.646 OA
HETATM    9  O           1     -19.360 -14.256   0.303  0.00  0.00    -0.646 OA
ENDBRANCH   6   7
BRANCH   6  10
HETATM   10  C           1     -18.032 -11.798  -0.370  0.00  0.00     0.074 C 
BRANCH  10  11
HETATM   11  C           1     -17.382 -11.320  -1.631  0.00  0.00    -0.056 A 
HETATM   12  C           1     -16.198 -11.909  -2.072  0.00  0.00     0.007 A 
HETATM   13  C           1     -15.592 -11.462  -3.248  0.00  0.00     0.001 A 
HETATM   14  C           1     -16.173 -10.428  -3.982  0.00  0.00     0.000 A 
HETATM   15  C           1     -17.357  -9.839  -3.540  0.00  0.00     0.001 A 
HETATM   16  C           1     -17.962 -10.284  -2.365  0.00  0.00     0.007 A 
ENDBRANCH  10  11
ENDBRANCH   6  10
ENDBRANCH   3   6
ENDBRANCH   1   2
BRANCH   1  17
HETATM   17  C           1     -22.216  -9.179   0.231  0.00  0.00     0.081 C 
BRANCH  17  18
HETATM   18  C           1     -21.892  -8.282  -0.924  0.00  0.00    -0.056 A 
HETATM   19  C           1     -21.145  -8.769  -1.996  0.00  0.00     0.010 A 
HETATM   20  C           1     -20.843  -7.935  -3.072  0.00  0.00     0.038 A 
HETATM   21  C           1     -21.289  -6.613  -3.075  0.00  0.00     0.081 A 
HETATM   22  C           1     -22.036  -6.126  -2.003  0.00  0.00     0.038 A 
HETATM   23  C           1     -22.338  -6.961  -0.927  0.00  0.00     0.010 A 
BRANCH  21  24
HETATM   24  O           1     -20.995  -5.802  -4.120  0.00  0.00    -0.247 OA
BRANCH  24  25
HETATM   25  P           1     -21.774  -6.046  -5.513  0.00  0.00     0.411 P 
HETATM   26  O           1     -21.266  -7.280  -6.152  0.00  0.00    -0.624 OA
HETATM   27  O           1     -23.224  -6.187  -5.250  0.00  0.00    -0.624 OA
BRANCH  25  28
HETATM   28  O           1     -21.526  -4.790  -6.498  0.00  0.00    -0.300 OA
HETATM   29  H           1     -21.129  -5.158  -7.267  0.00  0.00     0.223 HD
ENDBRANCH  25  28
ENDBRANCH  24  25
ENDBRANCH  21  24
ENDBRANCH  17  18
ENDBRANCH   1  17
BRANCH   1  30
HETATM   30  N           1     -23.971 -10.895  -0.031  0.00  0.00    -0.066 N 
HETATM   31  H           1     -24.503 -10.007   0.110  0.00  0.00     0.275 HD
HETATM   32  H           1     -24.363 -11.410  -0.851  0.00  0.00     0.275 HD
HETATM   33  H           1     -24.051 -11.489   0.826  0.00  0.00     0.275 HD
ENDBRANCH   1  30
TORSDOF 11
ENDMDL
