MODEL 1
REMARK VINA RESULT:      -6.8      0.000      0.000
REMARK  8 active torsions:
REMARK  status: ('A' for Active; 'I' for Inactive)
REMARK    1  A    between atoms: C_2  and  C_10 
REMARK    2  A    between atoms: C_2  and  C_14 
REMARK    3  A    between atoms: C_2  and  N_16 
REMARK    4  A    between atoms: C_7  and  C_19 
REMARK       I    between atoms: C_10  and  N_11 
REMARK    5  A    between atoms: N_11  and  C_18 
REMARK       I    between atoms: N_12  and  C_13 
REMARK    6  A    between atoms: C_13  and  C_14 
REMARK    7  A    between atoms: C_18  and  C_19 
REMARK    8  A    between atoms: C_18  and  C_23 
ROOT
HETATM    1  H           1     -34.297  -0.009 -11.836  0.00  0.00     0.163 HD
HETATM    2  C           1     -35.980  -0.428 -12.966  0.00  0.00     0.249 C 
HETATM    3  N           1     -35.131  -0.579 -11.903  0.00  0.00    -0.345 N 
HETATM    4  O           1     -36.975  -1.108 -13.045  0.00  0.00    -0.271 OA
ENDROOT
BRANCH   2   5
HETATM    5  C           1     -35.673   0.589 -14.038  0.00  0.00     0.283 C 
BRANCH   5   6
HETATM    6  C           1     -35.546  -0.113 -15.383  0.00  0.00     0.145 C 
BRANCH   6   7
HETATM    7  C           1     -36.838   0.028 -16.150  0.00  0.00     0.217 C 
HETATM    8  N           1     -37.655   1.102 -15.922  0.00  0.00    -0.370 N 
HETATM    9  H           1     -37.393   1.801 -15.239  0.00  0.00     0.159 HD
HETATM   10  H           1     -38.522   1.197 -16.437  0.00  0.00     0.159 HD
HETATM   11  O           1     -37.150  -0.806 -16.967  0.00  0.00    -0.274 OA
ENDBRANCH   6   7
ENDBRANCH   5   6
BRANCH   5  12
HETATM   12  N           1     -34.383   1.282 -13.713  0.00  0.00    -0.066 N 
HETATM   13  H           1     -34.242   2.082 -14.371  0.00  0.00     0.275 HD
HETATM   14  H           1     -34.419   1.641 -12.733  0.00  0.00     0.275 HD
HETATM   15  H           1     -33.591   0.608 -13.809  0.00  0.00     0.275 HD
ENDBRANCH   5  12
ENDBRANCH   2   5
BRANCH   3  16
HETATM   16  C           1     -35.426  -1.555 -10.872  0.00  0.00     0.185 C 
BRANCH  16  17
HETATM   17  C           1     -34.124  -2.061 -10.264  0.00  0.00     0.040 C 
BRANCH  17  18
HETATM   18  C           1     -33.950  -3.537 -10.592  0.00  0.00    -0.020 C 
HETATM   19  C           1     -35.273  -4.105 -11.087  0.00  0.00     0.009 C 
HETATM   20  C           1     -32.892  -3.694 -11.677  0.00  0.00     0.009 C 
ENDBRANCH  17  18
ENDBRANCH  16  17
BRANCH  16  21
HETATM   21  C           1     -36.267  -0.912  -9.798  0.00  0.00     0.196 C 
HETATM   22  O           1     -37.514  -0.973  -9.861  0.00  0.00    -0.646 OA
HETATM   23  O           1     -35.718  -0.319  -8.844  0.00  0.00    -0.646 OA
ENDBRANCH  16  21
ENDBRANCH   3  16
TORSDOF 8
ENDMDL
MODEL 2
REMARK VINA RESULT:      -6.6     11.370     13.070
REMARK  8 active torsions:
REMARK  status: ('A' for Active; 'I' for Inactive)
REMARK    1  A    between atoms: C_2  and  C_10 
REMARK    2  A    between atoms: C_2  and  C_14 
REMARK    3  A    between atoms: C_2  and  N_16 
REMARK    4  A    between atoms: C_7  and  C_19 
REMARK       I    between atoms: C_10  and  N_11 
REMARK    5  A    between atoms: N_11  and  C_18 
REMARK       I    between atoms: N_12  and  C_13 
REMARK    6  A    between atoms: C_13  and  C_14 
REMARK    7  A    between atoms: C_18  and  C_19 
REMARK    8  A    between atoms: C_18  and  C_23 
ROOT
HETATM    1  H           1     -28.254  -7.118 -20.343  0.00  0.00     0.163 HD
HETATM    2  C           1     -26.462  -6.697 -19.397  0.00  0.00     0.249 C 
HETATM    3  N           1     -27.822  -6.831 -19.473  0.00  0.00    -0.345 N 
HETATM    4  O           1     -25.946  -6.355 -18.359  0.00  0.00    -0.271 OA
ENDROOT
BRANCH   2   5
HETATM    5  C           1     -25.606  -6.977 -20.608  0.00  0.00     0.283 C 
BRANCH   5   6
HETATM    6  C           1     -24.313  -7.653 -20.173  0.00  0.00     0.145 C 
BRANCH   6   7
HETATM    7  C           1     -23.663  -8.312 -21.364  0.00  0.00     0.217 C 
HETATM    8  N           1     -22.555  -9.098 -21.192  0.00  0.00    -0.370 N 
HETATM    9  H           1     -22.172  -9.236 -20.265  0.00  0.00     0.159 HD
HETATM   10  H           1     -22.120  -9.541 -21.991  0.00  0.00     0.159 HD
HETATM   11  O           1     -24.121  -8.149 -22.470  0.00  0.00    -0.274 OA
ENDBRANCH   6   7
ENDBRANCH   5   6
BRANCH   5  12
HETATM   12  N           1     -25.285  -5.685 -21.300  0.00  0.00    -0.066 N 
HETATM   13  H           1     -25.151  -5.861 -22.322  0.00  0.00     0.275 HD
HETATM   14  H           1     -26.073  -5.013 -21.164  0.00  0.00     0.275 HD
HETATM   15  H           1     -24.409  -5.282 -20.898  0.00  0.00     0.275 HD
ENDBRANCH   5  12
ENDBRANCH   2   5
BRANCH   3  16
HETATM   16  C           1     -28.644  -6.564 -18.309  0.00  0.00     0.185 C 
BRANCH  16  17
HETATM   17  C           1     -29.132  -5.122 -18.353  0.00  0.00     0.040 C 
BRANCH  17  18
HETATM   18  C           1     -28.398  -4.304 -17.299  0.00  0.00    -0.020 C 
HETATM   19  C           1     -29.033  -2.924 -17.195  0.00  0.00     0.009 C 
HETATM   20  C           1     -28.492  -5.010 -15.953  0.00  0.00     0.009 C 
ENDBRANCH  17  18
ENDBRANCH  16  17
BRANCH  16  21
HETATM   21  C           1     -29.828  -7.498 -18.305  0.00  0.00     0.196 C 
HETATM   22  O           1     -29.853  -8.479 -19.078  0.00  0.00    -0.646 OA
HETATM   23  O           1     -30.786  -7.290 -17.528  0.00  0.00    -0.646 OA
ENDBRANCH  16  21
ENDBRANCH   3  16
TORSDOF 8
ENDMDL
MODEL 3
REMARK VINA RESULT:      -6.1      9.800     11.248
REMARK  8 active torsions:
REMARK  status: ('A' for Active; 'I' for Inactive)
REMARK    1  A    between atoms: C_2  and  C_10 
REMARK    2  A    between atoms: C_2  and  C_14 
REMARK    3  A    between atoms: C_2  and  N_16 
REMARK    4  A    between atoms: C_7  and  C_19 
REMARK       I    between atoms: C_10  and  N_11 
REMARK    5  A    between atoms: N_11  and  C_18 
REMARK       I    between atoms: N_12  and  C_13 
REMARK    6  A    between atoms: C_13  and  C_14 
REMARK    7  A    between atoms: C_18  and  C_19 
REMARK    8  A    between atoms: C_18  and  C_23 
ROOT
HETATM    1  H           1     -26.917  -4.820 -18.117  0.00  0.00     0.163 HD
HETATM    2  C           1     -28.447  -5.931 -17.274  0.00  0.00     0.249 C 
HETATM    3  N           1     -27.167  -5.710 -17.703  0.00  0.00    -0.345 N 
HETATM    4  O           1     -28.745  -6.993 -16.781  0.00  0.00    -0.271 OA
ENDROOT
BRANCH   2   5
HETATM    5  C           1     -29.488  -4.847 -17.417  0.00  0.00     0.283 C 
BRANCH   5   6
HETATM    6  C           1     -30.866  -5.421 -17.111  0.00  0.00     0.145 C 
BRANCH   6   7
HETATM    7  C           1     -31.857  -4.295 -16.952  0.00  0.00     0.217 C 
HETATM    8  N           1     -33.035  -4.509 -16.289  0.00  0.00    -0.370 N 
HETATM    9  H           1     -33.242  -5.422 -15.906  0.00  0.00     0.159 HD
HETATM   10  H           1     -33.700  -3.753 -16.181  0.00  0.00     0.159 HD
HETATM   11  O           1     -31.610  -3.204 -17.408  0.00  0.00    -0.274 OA
ENDBRANCH   6   7
ENDBRANCH   5   6
BRANCH   5  12
HETATM   12  N           1     -29.470  -4.320 -18.821  0.00  0.00    -0.066 N 
HETATM   13  H           1     -29.279  -5.105 -19.486  0.00  0.00     0.275 HD
HETATM   14  H           1     -30.397  -3.894 -19.045  0.00  0.00     0.275 HD
HETATM   15  H           1     -28.722  -3.597 -18.913  0.00  0.00     0.275 HD
ENDBRANCH   5  12
ENDBRANCH   2   5
BRANCH   3  16
HETATM   16  C           1     -26.166  -6.751 -17.565  0.00  0.00     0.185 C 
BRANCH  16  17
HETATM   17  C           1     -25.099  -6.575 -18.638  0.00  0.00     0.040 C 
BRANCH  17  18
HETATM   18  C           1     -25.548  -7.265 -19.918  0.00  0.00    -0.020 C 
HETATM   19  C           1     -26.182  -6.241 -20.850  0.00  0.00     0.009 C 
HETATM   20  C           1     -24.343  -7.897 -20.603  0.00  0.00     0.009 C 
ENDBRANCH  17  18
ENDBRANCH  16  17
BRANCH  16  21
HETATM   21  C           1     -25.529  -6.657 -16.201  0.00  0.00     0.196 C 
HETATM   22  O           1     -24.964  -5.600 -15.845  0.00  0.00    -0.646 OA
HETATM   23  O           1     -25.567  -7.637 -15.425  0.00  0.00    -0.646 OA
ENDBRANCH  16  21
ENDBRANCH   3  16
TORSDOF 8
ENDMDL
MODEL 4
REMARK VINA RESULT:      -6.0     10.837     12.604
REMARK  8 active torsions:
REMARK  status: ('A' for Active; 'I' for Inactive)
REMARK    1  A    between atoms: C_2  and  C_10 
REMARK    2  A    between atoms: C_2  and  C_14 
REMARK    3  A    between atoms: C_2  and  N_16 
REMARK    4  A    between atoms: C_7  and  C_19 
REMARK       I    between atoms: C_10  and  N_11 
REMARK    5  A    between atoms: N_11  and  C_18 
REMARK       I    between atoms: N_12  and  C_13 
REMARK    6  A    between atoms: C_13  and  C_14 
REMARK    7  A    between atoms: C_18  and  C_19 
REMARK    8  A    between atoms: C_18  and  C_23 
ROOT
HETATM    1  H           1     -27.232  -7.109 -19.030  0.00  0.00     0.163 HD
HETATM    2  C           1     -26.290  -6.264 -17.392  0.00  0.00     0.249 C 
HETATM    3  N           1     -27.370  -6.621 -18.154  0.00  0.00    -0.345 N 
HETATM    4  O           1     -26.453  -5.682 -16.346  0.00  0.00    -0.271 OA
ENDROOT
BRANCH   2   5
HETATM    5  C           1     -24.894  -6.598 -17.859  0.00  0.00     0.283 C 
BRANCH   5   6
HETATM    6  C           1     -24.929  -6.985 -19.332  0.00  0.00     0.145 C 
BRANCH   6   7
HETATM    7  C           1     -23.594  -7.564 -19.733  0.00  0.00     0.217 C 
HETATM    8  N           1     -23.523  -8.479 -20.749  0.00  0.00    -0.370 N 
HETATM    9  H           1     -24.364  -8.767 -21.230  0.00  0.00     0.159 HD
HETATM   10  H           1     -22.627  -8.867 -21.018  0.00  0.00     0.159 HD
HETATM   11  O           1     -22.588  -7.219 -19.159  0.00  0.00    -0.274 OA
ENDBRANCH   6   7
ENDBRANCH   5   6
BRANCH   5  12
HETATM   12  N           1     -24.361  -7.746 -17.055  0.00  0.00    -0.066 N 
HETATM   13  H           1     -23.687  -7.388 -16.340  0.00  0.00     0.275 HD
HETATM   14  H           1     -25.152  -8.231 -16.575  0.00  0.00     0.275 HD
HETATM   15  H           1     -23.872  -8.419 -17.688  0.00  0.00     0.275 HD
ENDBRANCH   5  12
ENDBRANCH   2   5
BRANCH   3  16
HETATM   16  C           1     -28.711  -6.302 -17.705  0.00  0.00     0.185 C 
BRANCH  16  17
HETATM   17  C           1     -29.173  -5.009 -18.364  0.00  0.00     0.040 C 
BRANCH  17  18
HETATM   18  C           1     -29.721  -4.065 -17.303  0.00  0.00    -0.020 C 
HETATM   19  C           1     -28.819  -2.842 -17.198  0.00  0.00     0.009 C 
HETATM   20  C           1     -31.127  -3.627 -17.692  0.00  0.00     0.009 C 
ENDBRANCH  17  18
ENDBRANCH  16  17
BRANCH  16  21
HETATM   21  C           1     -29.647  -7.422 -18.082  0.00  0.00     0.196 C 
HETATM   22  O           1     -29.472  -8.052 -19.147  0.00  0.00    -0.646 OA
HETATM   23  O           1     -30.599  -7.722 -17.329  0.00  0.00    -0.646 OA
ENDBRANCH  16  21
ENDBRANCH   3  16
TORSDOF 8
ENDMDL
MODEL 5
REMARK VINA RESULT:      -5.8     15.086     17.176
REMARK  8 active torsions:
REMARK  status: ('A' for Active; 'I' for Inactive)
REMARK    1  A    between atoms: C_2  and  C_10 
REMARK    2  A    between atoms: C_2  and  C_14 
REMARK    3  A    between atoms: C_2  and  N_16 
REMARK    4  A    between atoms: C_7  and  C_19 
REMARK       I    between atoms: C_10  and  N_11 
REMARK    5  A    between atoms: N_11  and  C_18 
REMARK       I    between atoms: N_12  and  C_13 
REMARK    6  A    between atoms: C_13  and  C_14 
REMARK    7  A    between atoms: C_18  and  C_19 
REMARK    8  A    between atoms: C_18  and  C_23 
ROOT
HETATM    1  H           1     -21.680  -7.532  -6.759  0.00  0.00     0.163 HD
HETATM    2  C           1     -20.887  -5.623  -6.645  0.00  0.00     0.249 C 
HETATM    3  N           1     -21.093  -6.908  -6.219  0.00  0.00    -0.345 N 
HETATM    4  O           1     -20.186  -4.879  -6.003  0.00  0.00    -0.271 OA
ENDROOT
BRANCH   2   5
HETATM    5  C           1     -21.535  -5.137  -7.919  0.00  0.00     0.283 C 
BRANCH   5   6
HETATM    6  C           1     -20.462  -4.632  -8.875  0.00  0.00     0.145 C 
BRANCH   6   7
HETATM    7  C           1     -21.091  -4.291 -10.203  0.00  0.00     0.217 C 
HETATM    8  N           1     -20.357  -3.644 -11.162  0.00  0.00    -0.370 N 
HETATM    9  H           1     -19.394  -3.395 -10.979  0.00  0.00     0.159 HD
HETATM   10  H           1     -20.779  -3.416 -12.054  0.00  0.00     0.159 HD
HETATM   11  O           1     -22.241  -4.590 -10.422  0.00  0.00    -0.274 OA
ENDBRANCH   6   7
ENDBRANCH   5   6
BRANCH   5  12
HETATM   12  N           1     -22.484  -4.020  -7.600  0.00  0.00    -0.066 N 
HETATM   13  H           1     -23.055  -4.277  -6.763  0.00  0.00     0.275 HD
HETATM   14  H           1     -21.941  -3.151  -7.398  0.00  0.00     0.275 HD
HETATM   15  H           1     -23.115  -3.855  -8.416  0.00  0.00     0.275 HD
ENDBRANCH   5  12
ENDBRANCH   2   5
BRANCH   3  16
HETATM   16  C           1     -20.469  -7.375  -4.997  0.00  0.00     0.185 C 
BRANCH  16  17
HETATM   17  C           1     -21.532  -7.549  -3.919  0.00  0.00     0.040 C 
BRANCH  17  18
HETATM   18  C           1     -21.057  -6.899  -2.627  0.00  0.00    -0.020 C 
HETATM   19  C           1     -22.224  -6.182  -1.962  0.00  0.00     0.009 C 
HETATM   20  C           1     -20.518  -7.971  -1.688  0.00  0.00     0.009 C 
ENDBRANCH  17  18
ENDBRANCH  16  17
BRANCH  16  21
HETATM   21  C           1     -19.790  -8.697  -5.253  0.00  0.00     0.196 C 
HETATM   22  O           1     -20.193  -9.730  -4.674  0.00  0.00    -0.646 OA
HETATM   23  O           1     -18.823  -8.761  -6.044  0.00  0.00    -0.646 OA
ENDBRANCH  16  21
ENDBRANCH   3  16
TORSDOF 8
ENDMDL
MODEL 6
REMARK VINA RESULT:      -5.6     10.160     11.807
REMARK  8 active torsions:
REMARK  status: ('A' for Active; 'I' for Inactive)
REMARK    1  A    between atoms: C_2  and  C_10 
REMARK    2  A    between atoms: C_2  and  C_14 
REMARK    3  A    between atoms: C_2  and  N_16 
REMARK    4  A    between atoms: C_7  and  C_19 
REMARK       I    between atoms: C_10  and  N_11 
REMARK    5  A    between atoms: N_11  and  C_18 
REMARK       I    between atoms: N_12  and  C_13 
REMARK    6  A    between atoms: C_13  and  C_14 
REMARK    7  A    between atoms: C_18  and  C_19 
REMARK    8  A    between atoms: C_18  and  C_23 
ROOT
HETATM    1  H           1     -27.761  -4.871 -18.754  0.00  0.00     0.163 HD
HETATM    2  C           1     -28.985  -6.472 -18.281  0.00  0.00     0.249 C 
HETATM    3  N           1     -27.824  -5.880 -18.700  0.00  0.00    -0.345 N 
HETATM    4  O           1     -29.060  -7.676 -18.216  0.00  0.00    -0.271 OA
ENDROOT
BRANCH   2   5
HETATM    5  C           1     -30.171  -5.621 -17.898  0.00  0.00     0.283 C 
BRANCH   5   6
HETATM    6  C           1     -29.718  -4.509 -16.961  0.00  0.00     0.145 C 
BRANCH   6   7
HETATM    7  C           1     -30.331  -3.201 -17.398  0.00  0.00     0.217 C 
HETATM    8  N           1     -29.554  -2.078 -17.490  0.00  0.00    -0.370 N 
HETATM    9  H           1     -28.569  -2.124 -17.265  0.00  0.00     0.159 HD
HETATM   10  H           1     -29.965  -1.200 -17.785  0.00  0.00     0.159 HD
HETATM   11  O           1     -31.507  -3.145 -17.670  0.00  0.00    -0.274 OA
ENDBRANCH   6   7
ENDBRANCH   5   6
BRANCH   5  12
HETATM   12  N           1     -31.192  -6.472 -17.203  0.00  0.00    -0.066 N 
HETATM   13  H           1     -31.155  -6.291 -16.174  0.00  0.00     0.275 HD
HETATM   14  H           1     -32.144  -6.236 -17.563  0.00  0.00     0.275 HD
HETATM   15  H           1     -30.990  -7.480 -17.387  0.00  0.00     0.275 HD
ENDBRANCH   5  12
ENDBRANCH   2   5
BRANCH   3  16
HETATM   16  C           1     -26.684  -6.698 -19.066  0.00  0.00     0.185 C 
BRANCH  16  17
HETATM   17  C           1     -26.136  -6.233 -20.409  0.00  0.00     0.040 C 
BRANCH  17  18
HETATM   18  C           1     -26.081  -7.412 -21.371  0.00  0.00    -0.020 C 
HETATM   19  C           1     -24.714  -8.076 -21.279  0.00  0.00     0.009 C 
HETATM   20  C           1     -27.161  -8.420 -21.001  0.00  0.00     0.009 C 
ENDBRANCH  17  18
ENDBRANCH  16  17
BRANCH  16  21
HETATM   21  C           1     -25.613  -6.568 -18.012  0.00  0.00     0.196 C 
HETATM   22  O           1     -25.914  -6.194 -16.858  0.00  0.00    -0.646 OA
HETATM   23  O           1     -24.424  -6.834 -18.293  0.00  0.00    -0.646 OA
ENDBRANCH  16  21
ENDBRANCH   3  16
TORSDOF 8
ENDMDL
MODEL 7
REMARK VINA RESULT:      -5.6      9.202     10.690
REMARK  8 active torsions:
REMARK  status: ('A' for Active; 'I' for Inactive)
REMARK    1  A    between atoms: C_2  and  C_10 
REMARK    2  A    between atoms: C_2  and  C_14 
REMARK    3  A    between atoms: C_2  and  N_16 
REMARK    4  A    between atoms: C_7  and  C_19 
REMARK       I    between atoms: C_10  and  N_11 
REMARK    5  A    between atoms: N_11  and  C_18 
REMARK       I    between atoms: N_12  and  C_13 
REMARK    6  A    between atoms: C_13  and  C_14 
REMARK    7  A    between atoms: C_18  and  C_19 
REMARK    8  A    between atoms: C_18  and  C_23 
ROOT
HETATM    1  H           1     -29.235  -4.843 -18.666  0.00  0.00     0.163 HD
HETATM    2  C           1     -30.134  -6.470 -17.755  0.00  0.00     0.249 C 
HETATM    3  N           1     -29.092  -5.783 -18.318  0.00  0.00    -0.345 N 
HETATM    4  O           1     -29.964  -7.591 -17.339  0.00  0.00    -0.271 OA
ENDROOT
BRANCH   2   5
HETATM    5  C           1     -31.495  -5.826 -17.653  0.00  0.00     0.283 C 
BRANCH   5   6
HETATM    6  C           1     -31.427  -4.640 -16.699  0.00  0.00     0.145 C 
BRANCH   6   7
HETATM    7  C           1     -32.789  -4.000 -16.593  0.00  0.00     0.217 C 
HETATM    8  N           1     -33.236  -3.175 -17.590  0.00  0.00    -0.370 N 
HETATM    9  H           1     -32.654  -2.995 -18.397  0.00  0.00     0.159 HD
HETATM   10  H           1     -34.151  -2.746 -17.520  0.00  0.00     0.159 HD
HETATM   11  O           1     -33.486  -4.216 -15.630  0.00  0.00    -0.274 OA
ENDBRANCH   6   7
ENDBRANCH   5   6
BRANCH   5  12
HETATM   12  N           1     -32.483  -6.828 -17.133  0.00  0.00    -0.066 N 
HETATM   13  H           1     -33.164  -6.350 -16.500  0.00  0.00     0.275 HD
HETATM   14  H           1     -32.997  -7.257 -17.935  0.00  0.00     0.275 HD
HETATM   15  H           1     -31.978  -7.573 -16.603  0.00  0.00     0.275 HD
ENDBRANCH   5  12
ENDBRANCH   2   5
BRANCH   3  16
HETATM   16  C           1     -27.784  -6.401 -18.414  0.00  0.00     0.185 C 
BRANCH  16  17
HETATM   17  C           1     -27.190  -6.120 -19.788  0.00  0.00     0.040 C 
BRANCH  17  18
HETATM   18  C           1     -26.296  -7.280 -20.202  0.00  0.00    -0.020 C 
HETATM   19  C           1     -27.078  -8.226 -21.103  0.00  0.00     0.009 C 
HETATM   20  C           1     -25.086  -6.744 -20.958  0.00  0.00     0.009 C 
ENDBRANCH  17  18
ENDBRANCH  16  17
BRANCH  16  21
HETATM   21  C           1     -26.880  -5.834 -17.348  0.00  0.00     0.196 C 
HETATM   22  O           1     -25.755  -6.341 -17.148  0.00  0.00    -0.646 OA
HETATM   23  O           1     -27.256  -4.857 -16.665  0.00  0.00    -0.646 OA
ENDBRANCH  16  21
ENDBRANCH   3  16
TORSDOF 8
ENDMDL
MODEL 8
REMARK VINA RESULT:      -5.5     14.633     16.804
REMARK  8 active torsions:
REMARK  status: ('A' for Active; 'I' for Inactive)
REMARK    1  A    between atoms: C_2  and  C_10 
REMARK    2  A    between atoms: C_2  and  C_14 
REMARK    3  A    between atoms: C_2  and  N_16 
REMARK    4  A    between atoms: C_7  and  C_19 
REMARK       I    between atoms: C_10  and  N_11 
REMARK    5  A    between atoms: N_11  and  C_18 
REMARK       I    between atoms: N_12  and  C_13 
REMARK    6  A    between atoms: C_13  and  C_14 
REMARK    7  A    between atoms: C_18  and  C_19 
REMARK    8  A    between atoms: C_18  and  C_23 
ROOT
HETATM    1  H           1     -19.986  -6.397  -4.890  0.00  0.00     0.163 HD
HETATM    2  C           1     -21.794  -5.713  -5.631  0.00  0.00     0.249 C 
HETATM    3  N           1     -20.994  -6.487  -4.835  0.00  0.00    -0.345 N 
HETATM    4  O           1     -22.995  -5.818  -5.565  0.00  0.00    -0.271 OA
ENDROOT
BRANCH   2   5
HETATM    5  C           1     -21.175  -4.726  -6.591  0.00  0.00     0.283 C 
BRANCH   5   6
HETATM    6  C           1     -21.502  -5.134  -8.021  0.00  0.00     0.145 C 
BRANCH   6   7
HETATM    7  C           1     -22.513  -4.175  -8.600  0.00  0.00     0.217 C 
HETATM    8  N           1     -23.744  -4.043  -8.017  0.00  0.00    -0.370 N 
HETATM    9  H           1     -23.977  -4.589  -7.197  0.00  0.00     0.159 HD
HETATM   10  H           1     -24.422  -3.399  -8.405  0.00  0.00     0.159 HD
HETATM   11  O           1     -22.235  -3.521  -9.578  0.00  0.00    -0.274 OA
ENDBRANCH   6   7
ENDBRANCH   5   6
BRANCH   5  12
HETATM   12  N           1     -19.687  -4.714  -6.404  0.00  0.00    -0.066 N 
HETATM   13  H           1     -19.404  -3.834  -5.916  0.00  0.00     0.275 HD
HETATM   14  H           1     -19.403  -5.538  -5.826  0.00  0.00     0.275 HD
HETATM   15  H           1     -19.218  -4.764  -7.335  0.00  0.00     0.275 HD
ENDBRANCH   5  12
ENDBRANCH   2   5
BRANCH   3  16
HETATM   16  C           1     -21.587  -7.434  -3.911  0.00  0.00     0.185 C 
BRANCH  16  17
HETATM   17  C           1     -20.822  -8.749  -3.970  0.00  0.00     0.040 C 
BRANCH  17  18
HETATM   18  C           1     -21.791  -9.890  -4.245  0.00  0.00    -0.020 C 
HETATM   19  C           1     -21.145 -10.885  -5.199  0.00  0.00     0.009 C 
HETATM   20  C           1     -22.134 -10.590  -2.936  0.00  0.00     0.009 C 
ENDBRANCH  17  18
ENDBRANCH  16  17
BRANCH  16  21
HETATM   21  C           1     -21.526  -6.877  -2.511  0.00  0.00     0.196 C 
HETATM   22  O           1     -20.767  -7.397  -1.664  0.00  0.00    -0.646 OA
HETATM   23  O           1     -22.233  -5.894  -2.197  0.00  0.00    -0.646 OA
ENDBRANCH  16  21
ENDBRANCH   3  16
TORSDOF 8
ENDMDL
MODEL 9
REMARK VINA RESULT:      -5.3     17.150     18.951
REMARK  8 active torsions:
REMARK  status: ('A' for Active; 'I' for Inactive)
REMARK    1  A    between atoms: C_2  and  C_10 
REMARK    2  A    between atoms: C_2  and  C_14 
REMARK    3  A    between atoms: C_2  and  N_16 
REMARK    4  A    between atoms: C_7  and  C_19 
REMARK       I    between atoms: C_10  and  N_11 
REMARK    5  A    between atoms: N_11  and  C_18 
REMARK       I    between atoms: N_12  and  C_13 
REMARK    6  A    between atoms: C_13  and  C_14 
REMARK    7  A    between atoms: C_18  and  C_19 
REMARK    8  A    between atoms: C_18  and  C_23 
ROOT
HETATM    1  H           1     -20.593  -8.141  -1.868  0.00  0.00     0.163 HD
HETATM    2  C           1     -21.474  -9.355  -3.294  0.00  0.00     0.249 C 
HETATM    3  N           1     -21.355  -8.781  -2.058  0.00  0.00    -0.345 N 
HETATM    4  O           1     -22.383 -10.119  -3.521  0.00  0.00    -0.271 OA
ENDROOT
BRANCH   2   5
HETATM    5  C           1     -20.472  -9.034  -4.376  0.00  0.00     0.283 C 
BRANCH   5   6
HETATM    6  C           1     -20.299  -7.525  -4.477  0.00  0.00     0.145 C 
BRANCH   6   7
HETATM    7  C           1     -21.334  -6.961  -5.419  0.00  0.00     0.217 C 
HETATM    8  N           1     -22.517  -6.480  -4.927  0.00  0.00    -0.370 N 
HETATM    9  H           1     -22.698  -6.503  -3.932  0.00  0.00     0.159 HD
HETATM   10  H           1     -23.212  -6.101  -5.559  0.00  0.00     0.159 HD
HETATM   11  O           1     -21.118  -6.932  -6.608  0.00  0.00    -0.274 OA
ENDBRANCH   6   7
ENDBRANCH   5   6
BRANCH   5  12
HETATM   12  N           1     -20.965  -9.569  -5.688  0.00  0.00    -0.066 N 
HETATM   13  H           1     -21.117 -10.600  -5.609  0.00  0.00     0.275 HD
HETATM   14  H           1     -21.868  -9.103  -5.935  0.00  0.00     0.275 HD
HETATM   15  H           1     -20.258  -9.376  -6.432  0.00  0.00     0.275 HD
ENDBRANCH   5  12
ENDBRANCH   2   5
BRANCH   3  16
HETATM   16  C           1     -22.319  -9.088  -1.019  0.00  0.00     0.185 C 
BRANCH  16  17
HETATM   17  C           1     -21.721 -10.106  -0.056  0.00  0.00     0.040 C 
BRANCH  17  18
HETATM   18  C           1     -22.432 -11.442  -0.223  0.00  0.00    -0.020 C 
HETATM   19  C           1     -21.988 -12.393   0.880  0.00  0.00     0.009 C 
HETATM   20  C           1     -23.938 -11.229  -0.135  0.00  0.00     0.009 C 
ENDBRANCH  17  18
ENDBRANCH  16  17
BRANCH  16  21
HETATM   21  C           1     -22.667  -7.827  -0.268  0.00  0.00     0.196 C 
HETATM   22  O           1     -22.632  -6.722  -0.851  0.00  0.00    -0.646 OA
HETATM   23  O           1     -22.990  -7.888   0.939  0.00  0.00    -0.646 OA
ENDBRANCH  16  21
ENDBRANCH   3  16
TORSDOF 8
ENDMDL
