MODEL 1
REMARK VINA RESULT:      -6.4      0.000      0.000
REMARK  4 active torsions:
REMARK  status: ('A' for Active; 'I' for Inactive)
REMARK    1  A    between atoms: C_2  and  C_3 
REMARK    2  A    between atoms: C_3  and  C_15 
REMARK    3  A    between atoms: C_3  and  N_7 
REMARK       I    between atoms: N_7  and  C_13 
REMARK    4  A    between atoms: C_9  and  C_13 
ROOT
HETATM    1  O           1     -34.442  -3.168 -13.439  0.00  0.00    -0.271 OA
HETATM    2  H           1     -34.531  -0.847 -11.330  0.00  0.00     0.163 HD
HETATM    3  N           1     -34.758  -1.353 -12.176  0.00  0.00    -0.344 N 
HETATM    4  C           1     -34.170  -2.564 -12.428  0.00  0.00     0.251 C 
ENDROOT
BRANCH   3   5
HETATM    5  C           1     -35.706  -0.795 -13.122  0.00  0.00     0.189 C 
BRANCH   5   6
HETATM    6  C           1     -36.799  -0.050 -12.367  0.00  0.00     0.010 C 
HETATM    7  C           1     -37.065  -0.745 -11.039  0.00  0.00     0.012 C 
HETATM    8  C           1     -38.074  -0.043 -13.200  0.00  0.00     0.012 C 
ENDBRANCH   5   6
BRANCH   5   9
HETATM    9  C           1     -34.992   0.160 -14.046  0.00  0.00     0.197 C 
HETATM   10  O           1     -34.865  -0.122 -15.258  0.00  0.00    -0.646 OA
HETATM   11  O           1     -34.528   1.231 -13.601  0.00  0.00    -0.646 OA
ENDBRANCH   5   9
ENDBRANCH   3   5
BRANCH   4  12
HETATM   12  C           1     -33.185  -3.143 -11.443  0.00  0.00     0.311 C 
HETATM   13  N           1     -33.860  -3.562 -10.218  0.00  0.00     0.097 N 
HETATM   14  C           1     -34.481  -4.841 -10.548  0.00  0.00     0.271 C 
HETATM   15  H           1     -33.189  -3.694  -9.463  0.00  0.00     0.317 HD
HETATM   16  C           1     -33.434  -5.546 -11.393  0.00  0.00     0.033 C 
HETATM   17  C           1     -32.579  -4.429 -11.979  0.00  0.00     0.047 C 
ENDBRANCH   4  12
TORSDOF 4
ENDMDL
MODEL 2
REMARK VINA RESULT:      -6.3     11.916     13.971
REMARK  4 active torsions:
REMARK  status: ('A' for Active; 'I' for Inactive)
REMARK    1  A    between atoms: C_2  and  C_3 
REMARK    2  A    between atoms: C_3  and  C_15 
REMARK    3  A    between atoms: C_3  and  N_7 
REMARK       I    between atoms: N_7  and  C_13 
REMARK    4  A    between atoms: C_9  and  C_13 
ROOT
HETATM    1  O           1     -22.107  -3.452  -7.372  0.00  0.00    -0.271 OA
HETATM    2  H           1     -22.170  -5.604  -9.654  0.00  0.00     0.163 HD
HETATM    3  N           1     -22.301  -4.703  -9.212  0.00  0.00    -0.344 N 
HETATM    4  C           1     -21.950  -4.527  -7.900  0.00  0.00     0.251 C 
ENDROOT
BRANCH   3   5
HETATM    5  C           1     -22.861  -3.599  -9.968  0.00  0.00     0.189 C 
BRANCH   5   6
HETATM    6  C           1     -22.109  -3.449 -11.283  0.00  0.00     0.010 C 
HETATM    7  C           1     -22.248  -4.729 -12.098  0.00  0.00     0.012 C 
HETATM    8  C           1     -20.637  -3.187 -10.997  0.00  0.00     0.012 C 
ENDBRANCH   5   6
BRANCH   5   9
HETATM    9  C           1     -24.318  -3.870 -10.250  0.00  0.00     0.197 C 
HETATM   10  O           1     -24.854  -4.913  -9.816  0.00  0.00    -0.646 OA
HETATM   11  O           1     -24.989  -3.054 -10.916  0.00  0.00    -0.646 OA
ENDBRANCH   5   9
ENDBRANCH   3   5
BRANCH   4  12
HETATM   12  C           1     -21.367  -5.677  -7.115  0.00  0.00     0.311 C 
HETATM   13  N           1     -20.010  -5.976  -7.565  0.00  0.00     0.097 N 
HETATM   14  C           1     -19.172  -4.956  -6.942  0.00  0.00     0.271 C 
HETATM   15  H           1     -19.719  -6.899  -7.242  0.00  0.00     0.317 HD
HETATM   16  C           1     -19.746  -4.819  -5.542  0.00  0.00     0.033 C 
HETATM   17  C           1     -21.189  -5.297  -5.655  0.00  0.00     0.047 C 
ENDBRANCH   4  12
TORSDOF 4
ENDMDL
MODEL 3
REMARK VINA RESULT:      -6.2      2.696      5.105
REMARK  4 active torsions:
REMARK  status: ('A' for Active; 'I' for Inactive)
REMARK    1  A    between atoms: C_2  and  C_3 
REMARK    2  A    between atoms: C_3  and  C_15 
REMARK    3  A    between atoms: C_3  and  N_7 
REMARK       I    between atoms: N_7  and  C_13 
REMARK    4  A    between atoms: C_9  and  C_13 
ROOT
HETATM    1  O           1     -36.065   1.080 -10.608  0.00  0.00    -0.271 OA
HETATM    2  H           1     -36.999  -1.912 -10.719  0.00  0.00     0.163 HD
HETATM    3  N           1     -36.439  -1.097 -10.933  0.00  0.00    -0.344 N 
HETATM    4  C           1     -36.734   0.107 -10.352  0.00  0.00     0.251 C 
ENDROOT
BRANCH   3   5
HETATM    5  C           1     -35.325  -1.205 -11.856  0.00  0.00     0.189 C 
BRANCH   5   6
HETATM    6  C           1     -34.578  -2.507 -11.602  0.00  0.00     0.010 C 
HETATM    7  C           1     -35.518  -3.517 -10.958  0.00  0.00     0.012 C 
HETATM    8  C           1     -33.403  -2.242 -10.670  0.00  0.00     0.012 C 
ENDBRANCH   5   6
BRANCH   5   9
HETATM    9  C           1     -35.843  -1.190 -13.273  0.00  0.00     0.197 C 
HETATM   10  O           1     -35.092  -1.525 -14.215  0.00  0.00    -0.646 OA
HETATM   11  O           1     -37.020  -0.843 -13.506  0.00  0.00    -0.646 OA
ENDBRANCH   5   9
ENDBRANCH   3   5
BRANCH   4  12
HETATM   12  C           1     -37.893   0.218  -9.392  0.00  0.00     0.311 C 
HETATM   13  N           1     -37.616  -0.513  -8.158  0.00  0.00     0.097 N 
HETATM   14  C           1     -36.730   0.360  -7.393  0.00  0.00     0.271 C 
HETATM   15  H           1     -38.474  -0.672  -7.632  0.00  0.00     0.317 HD
HETATM   16  C           1     -37.307   1.747  -7.616  0.00  0.00     0.033 C 
HETATM   17  C           1     -38.075   1.653  -8.929  0.00  0.00     0.047 C 
ENDBRANCH   4  12
TORSDOF 4
ENDMDL
MODEL 4
REMARK VINA RESULT:      -6.2      2.466      5.219
REMARK  4 active torsions:
REMARK  status: ('A' for Active; 'I' for Inactive)
REMARK    1  A    between atoms: C_2  and  C_3 
REMARK    2  A    between atoms: C_3  and  C_15 
REMARK    3  A    between atoms: C_3  and  N_7 
REMARK       I    between atoms: N_7  and  C_13 
REMARK    4  A    between atoms: C_9  and  C_13 
ROOT
HETATM    1  O           1     -36.963  -1.014 -13.007  0.00  0.00    -0.271 OA
HETATM    2  H           1     -33.868  -1.301 -13.432  0.00  0.00     0.163 HD
HETATM    3  N           1     -34.776  -1.469 -13.019  0.00  0.00    -0.344 N 
HETATM    4  C           1     -35.879  -0.813 -13.500  0.00  0.00     0.251 C 
ENDROOT
BRANCH   3   5
HETATM    5  C           1     -34.911  -2.403 -11.918  0.00  0.00     0.189 C 
BRANCH   5   6
HETATM    6  C           1     -33.948  -3.565 -12.116  0.00  0.00     0.010 C 
HETATM    7  C           1     -34.014  -4.041 -13.561  0.00  0.00     0.012 C 
HETATM    8  C           1     -34.336  -4.708 -11.187  0.00  0.00     0.012 C 
ENDBRANCH   5   6
BRANCH   5   9
HETATM    9  C           1     -34.592  -1.701 -10.621  0.00  0.00     0.197 C 
HETATM   10  O           1     -35.510  -1.177  -9.953  0.00  0.00    -0.646 OA
HETATM   11  O           1     -33.412  -1.643 -10.215  0.00  0.00    -0.646 OA
ENDBRANCH   5   9
ENDBRANCH   3   5
BRANCH   4  12
HETATM   12  C           1     -35.738   0.158 -14.647  0.00  0.00     0.311 C 
HETATM   13  N           1     -34.788  -0.342 -15.636  0.00  0.00     0.097 N 
HETATM   14  C           1     -35.530  -1.339 -16.402  0.00  0.00     0.271 C 
HETATM   15  H           1     -34.485   0.408 -16.258  0.00  0.00     0.317 HD
HETATM   16  C           1     -36.904  -0.716 -16.573  0.00  0.00     0.033 C 
HETATM   17  C           1     -37.040   0.272 -15.420  0.00  0.00     0.047 C 
ENDBRANCH   4  12
TORSDOF 4
ENDMDL
MODEL 5
REMARK VINA RESULT:      -5.5     12.238     14.100
REMARK  4 active torsions:
REMARK  status: ('A' for Active; 'I' for Inactive)
REMARK    1  A    between atoms: C_2  and  C_3 
REMARK    2  A    between atoms: C_3  and  C_15 
REMARK    3  A    between atoms: C_3  and  N_7 
REMARK       I    between atoms: N_7  and  C_13 
REMARK    4  A    between atoms: C_9  and  C_13 
ROOT
HETATM    1  O           1     -20.230  -5.354  -8.655  0.00  0.00    -0.271 OA
HETATM    2  H           1     -22.676  -3.389  -8.635  0.00  0.00     0.163 HD
HETATM    3  N           1     -21.999  -4.038  -9.015  0.00  0.00    -0.344 N 
HETATM    4  C           1     -21.039  -4.579  -8.202  0.00  0.00     0.251 C 
ENDROOT
BRANCH   3   5
HETATM    5  C           1     -22.044  -4.395 -10.420  0.00  0.00     0.189 C 
BRANCH   5   6
HETATM    6  C           1     -23.481  -4.311 -10.920  0.00  0.00     0.010 C 
HETATM    7  C           1     -24.436  -4.641  -9.780  0.00  0.00     0.012 C 
HETATM    8  C           1     -23.680  -5.306 -12.054  0.00  0.00     0.012 C 
ENDBRANCH   5   6
BRANCH   5   9
HETATM    9  C           1     -21.181  -3.442 -11.209  0.00  0.00     0.197 C 
HETATM   10  O           1     -21.668  -2.380 -11.653  0.00  0.00    -0.646 OA
HETATM   11  O           1     -19.980  -3.715 -11.419  0.00  0.00    -0.646 OA
ENDBRANCH   5   9
ENDBRANCH   3   5
BRANCH   4  12
HETATM   12  C           1     -20.992  -4.208  -6.740  0.00  0.00     0.311 C 
HETATM   13  N           1     -22.153  -4.741  -6.032  0.00  0.00     0.097 N 
HETATM   14  C           1     -21.848  -6.152  -5.817  0.00  0.00     0.271 C 
HETATM   15  H           1     -22.271  -4.277  -5.131  0.00  0.00     0.317 HD
HETATM   16  C           1     -20.375  -6.153  -5.447  0.00  0.00     0.033 C 
HETATM   17  C           1     -19.812  -4.872  -6.051  0.00  0.00     0.047 C 
ENDBRANCH   4  12
TORSDOF 4
ENDMDL
MODEL 6
REMARK VINA RESULT:      -5.5     15.029     16.987
REMARK  4 active torsions:
REMARK  status: ('A' for Active; 'I' for Inactive)
REMARK    1  A    between atoms: C_2  and  C_3 
REMARK    2  A    between atoms: C_3  and  C_15 
REMARK    3  A    between atoms: C_3  and  N_7 
REMARK       I    between atoms: N_7  and  C_13 
REMARK    4  A    between atoms: C_9  and  C_13 
ROOT
HETATM    1  O           1     -22.546  -5.571  -5.725  0.00  0.00    -0.271 OA
HETATM    2  H           1     -19.710  -6.135  -4.509  0.00  0.00     0.163 HD
HETATM    3  N           1     -20.702  -6.254  -4.666  0.00  0.00    -0.344 N 
HETATM    4  C           1     -21.361  -5.429  -5.538  0.00  0.00     0.251 C 
ENDROOT
BRANCH   3   5
HETATM    5  C           1     -21.427  -7.298  -3.967  0.00  0.00     0.189 C 
BRANCH   5   6
HETATM    6  C           1     -20.619  -8.588  -4.000  0.00  0.00     0.010 C 
HETATM    7  C           1     -19.560  -8.498  -5.090  0.00  0.00     0.012 C 
HETATM    8  C           1     -21.548  -9.759  -4.289  0.00  0.00     0.012 C 
ENDBRANCH   5   6
BRANCH   5   9
HETATM    9  C           1     -21.652  -6.881  -2.535  0.00  0.00     0.197 C 
HETATM   10  O           1     -21.031  -7.454  -1.613  0.00  0.00    -0.646 OA
HETATM   11  O           1     -22.459  -5.965  -2.269  0.00  0.00    -0.646 OA
ENDBRANCH   5   9
ENDBRANCH   3   5
BRANCH   4  12
HETATM   12  C           1     -20.606  -4.343  -6.266  0.00  0.00     0.311 C 
HETATM   13  N           1     -19.491  -4.906  -7.023  0.00  0.00     0.097 N 
HETATM   14  C           1     -20.097  -5.469  -8.225  0.00  0.00     0.271 C 
HETATM   15  H           1     -18.829  -4.176  -7.286  0.00  0.00     0.317 HD
HETATM   16  C           1     -21.146  -4.443  -8.618  0.00  0.00     0.033 C 
HETATM   17  C           1     -21.478  -3.700  -7.330  0.00  0.00     0.047 C 
ENDBRANCH   4  12
TORSDOF 4
ENDMDL
MODEL 7
REMARK VINA RESULT:      -5.4     24.461     25.764
REMARK  4 active torsions:
REMARK  status: ('A' for Active; 'I' for Inactive)
REMARK    1  A    between atoms: C_2  and  C_3 
REMARK    2  A    between atoms: C_3  and  C_15 
REMARK    3  A    between atoms: C_3  and  N_7 
REMARK       I    between atoms: N_7  and  C_13 
REMARK    4  A    between atoms: C_9  and  C_13 
ROOT
HETATM    1  O           1     -12.697   7.513 -21.809  0.00  0.00    -0.271 OA
HETATM    2  H           1     -12.065   5.791 -19.265  0.00  0.00     0.163 HD
HETATM    3  N           1     -12.450   6.013 -20.173  0.00  0.00    -0.344 N 
HETATM    4  C           1     -12.236   7.249 -20.724  0.00  0.00     0.251 C 
ENDROOT
BRANCH   3   5
HETATM    5  C           1     -13.229   5.023 -20.892  0.00  0.00     0.189 C 
BRANCH   5   6
HETATM    6  C           1     -12.790   3.627 -20.472  0.00  0.00     0.010 C 
HETATM    7  C           1     -11.269   3.548 -20.478  0.00  0.00     0.012 C 
HETATM    8  C           1     -13.355   2.604 -21.448  0.00  0.00     0.012 C 
ENDBRANCH   5   6
BRANCH   5   9
HETATM    9  C           1     -14.692   5.207 -20.574  0.00  0.00     0.197 C 
HETATM   10  O           1     -15.076   5.221 -19.384  0.00  0.00    -0.646 OA
HETATM   11  O           1     -15.521   5.345 -21.499  0.00  0.00    -0.646 OA
ENDBRANCH   5   9
ENDBRANCH   3   5
BRANCH   4  12
HETATM   12  C           1     -11.425   8.278 -19.976  0.00  0.00     0.311 C 
HETATM   13  N           1     -10.137   7.725 -19.565  0.00  0.00     0.097 N 
HETATM   14  C           1      -9.311   7.759 -20.768  0.00  0.00     0.271 C 
HETATM   15  H           1      -9.710   8.304 -18.843  0.00  0.00     0.317 HD
HETATM   16  C           1      -9.659   9.090 -21.410  0.00  0.00     0.033 C 
HETATM   17  C           1     -11.048   9.434 -20.886  0.00  0.00     0.047 C 
ENDBRANCH   4  12
TORSDOF 4
ENDMDL
MODEL 8
REMARK VINA RESULT:      -5.3     25.089     26.264
REMARK  4 active torsions:
REMARK  status: ('A' for Active; 'I' for Inactive)
REMARK    1  A    between atoms: C_2  and  C_3 
REMARK    2  A    between atoms: C_3  and  C_15 
REMARK    3  A    between atoms: C_3  and  N_7 
REMARK       I    between atoms: N_7  and  C_13 
REMARK    4  A    between atoms: C_9  and  C_13 
ROOT
HETATM    1  O           1     -11.664   5.642 -19.281  0.00  0.00    -0.271 OA
HETATM    2  H           1     -12.669   7.806 -21.319  0.00  0.00     0.163 HD
HETATM    3  N           1     -12.061   7.374 -20.636  0.00  0.00    -0.344 N 
HETATM    4  C           1     -12.391   6.159 -20.097  0.00  0.00     0.251 C 
ENDROOT
BRANCH   3   5
HETATM    5  C           1     -10.839   8.040 -20.228  0.00  0.00     0.189 C 
BRANCH   5   6
HETATM    6  C           1     -10.382   8.984 -21.332  0.00  0.00     0.010 C 
HETATM    7  C           1     -10.881   8.474 -22.677  0.00  0.00     0.012 C 
HETATM    8  C           1      -8.860   9.047 -21.345  0.00  0.00     0.012 C 
ENDBRANCH   5   6
BRANCH   5   9
HETATM    9  C           1     -11.093   8.827 -18.967  0.00  0.00     0.197 C 
HETATM   10  O           1     -10.157   9.041 -18.165  0.00  0.00    -0.646 OA
HETATM   11  O           1     -12.237   9.264 -18.721  0.00  0.00    -0.646 OA
ENDBRANCH   5   9
ENDBRANCH   3   5
BRANCH   4  12
HETATM   12  C           1     -13.662   5.465 -20.523  0.00  0.00     0.311 C 
HETATM   13  N           1     -13.944   5.718 -21.933  0.00  0.00     0.097 N 
HETATM   14  C           1     -13.055   4.818 -22.662  0.00  0.00     0.271 C 
HETATM   15  H           1     -14.914   5.492 -22.154  0.00  0.00     0.317 HD
HETATM   16  C           1     -13.101   3.531 -21.857  0.00  0.00     0.033 C 
HETATM   17  C           1     -13.504   3.956 -20.450  0.00  0.00     0.047 C 
ENDBRANCH   4  12
TORSDOF 4
ENDMDL
MODEL 9
REMARK VINA RESULT:      -5.1      8.663     11.029
REMARK  4 active torsions:
REMARK  status: ('A' for Active; 'I' for Inactive)
REMARK    1  A    between atoms: C_2  and  C_3 
REMARK    2  A    between atoms: C_3  and  C_15 
REMARK    3  A    between atoms: C_3  and  N_7 
REMARK       I    between atoms: N_7  and  C_13 
REMARK    4  A    between atoms: C_9  and  C_13 
ROOT
HETATM    1  O           1     -28.707  -7.693 -16.897  0.00  0.00    -0.271 OA
HETATM    2  H           1     -27.431  -5.500 -18.742  0.00  0.00     0.163 HD
HETATM    3  N           1     -27.464  -6.294 -18.117  0.00  0.00    -0.344 N 
HETATM    4  C           1     -28.668  -6.744 -17.644  0.00  0.00     0.251 C 
ENDROOT
BRANCH   3   5
HETATM    5  C           1     -26.236  -6.956 -17.720  0.00  0.00     0.189 C 
BRANCH   5   6
HETATM    6  C           1     -25.116  -6.564 -18.675  0.00  0.00     0.010 C 
HETATM    7  C           1     -25.520  -6.906 -20.102  0.00  0.00     0.012 C 
HETATM    8  C           1     -23.850  -7.326 -18.309  0.00  0.00     0.012 C 
ENDBRANCH   5   6
BRANCH   5   9
HETATM    9  C           1     -25.870  -6.539 -16.318  0.00  0.00     0.197 C 
HETATM   10  O           1     -25.735  -5.327 -16.041  0.00  0.00    -0.646 OA
HETATM   11  O           1     -25.701  -7.404 -15.432  0.00  0.00    -0.646 OA
ENDBRANCH   5   9
ENDBRANCH   3   5
BRANCH   4  12
HETATM   12  C           1     -29.946  -6.055 -18.057  0.00  0.00     0.311 C 
HETATM   13  N           1     -30.871  -5.959 -16.932  0.00  0.00     0.097 N 
HETATM   14  C           1     -30.376  -4.843 -16.131  0.00  0.00     0.271 C 
HETATM   15  H           1     -31.815  -5.751 -17.257  0.00  0.00     0.317 HD
HETATM   16  C           1     -29.960  -3.810 -17.164  0.00  0.00     0.033 C 
HETATM   17  C           1     -29.681  -4.607 -18.433  0.00  0.00     0.047 C 
ENDBRANCH   4  12
TORSDOF 4
ENDMDL
