MODEL 1
REMARK VINA RESULT:      -5.8      0.000      0.000
REMARK  5 active torsions:
REMARK  status: ('A' for Active; 'I' for Inactive)
REMARK    1  A    between atoms: C_3  and  C_18 
REMARK    2  A    between atoms: C_4  and  C_9 
REMARK    3  A    between atoms: C_4  and  C_17 
REMARK    4  A    between atoms: C_4  and  N_13 
REMARK    5  A    between atoms: C_9  and  C_10 
REMARK       I    between atoms: N_13  and  C_18 
ROOT
HETATM    1  O           1     -21.626  -3.003  -7.452  0.00  0.00    -0.271 OA
HETATM    2  H           1     -22.989  -5.388  -8.969  0.00  0.00     0.163 HD
HETATM    3  N           1     -22.664  -4.444  -8.808  0.00  0.00    -0.344 N 
HETATM    4  C           1     -22.014  -4.132  -7.644  0.00  0.00     0.251 C 
ENDROOT
BRANCH   3   5
HETATM    5  C           1     -22.888  -3.420  -9.810  0.00  0.00     0.189 C 
BRANCH   5   6
HETATM    6  C           1     -22.061  -3.734 -11.050  0.00  0.00     0.014 C 
HETATM    7  C           1     -21.182  -2.536 -11.390  0.00  0.00     0.012 C 
BRANCH   6   8
HETATM    8  C           1     -21.181  -4.947 -10.781  0.00  0.00     0.002 C 
HETATM    9  C           1     -19.729  -4.503 -10.652  0.00  0.00     0.005 C 
ENDBRANCH   6   8
ENDBRANCH   5   6
BRANCH   5  10
HETATM   10  C           1     -24.351  -3.388 -10.177  0.00  0.00     0.197 C 
HETATM   11  O           1     -25.177  -2.852  -9.407  0.00  0.00    -0.646 OA
HETATM   12  O           1     -24.737  -3.897 -11.252  0.00  0.00    -0.646 OA
ENDBRANCH   5  10
ENDBRANCH   3   5
BRANCH   4  13
HETATM   13  C           1     -21.781  -5.196  -6.601  0.00  0.00     0.311 C 
HETATM   14  N           1     -21.132  -6.366  -7.186  0.00  0.00     0.097 N 
HETATM   15  H           1     -21.219  -7.174  -6.571  0.00  0.00     0.317 HD
HETATM   16  C           1     -19.725  -5.994  -7.306  0.00  0.00     0.271 C 
HETATM   17  C           1     -19.437  -5.239  -6.019  0.00  0.00     0.033 C 
HETATM   18  C           1     -20.791  -4.719  -5.552  0.00  0.00     0.047 C 
ENDBRANCH   4  13
TORSDOF 5
ENDMDL
MODEL 2
REMARK VINA RESULT:      -5.5      3.408      6.469
REMARK  5 active torsions:
REMARK  status: ('A' for Active; 'I' for Inactive)
REMARK    1  A    between atoms: C_3  and  C_18 
REMARK    2  A    between atoms: C_4  and  C_9 
REMARK    3  A    between atoms: C_4  and  C_17 
REMARK    4  A    between atoms: C_4  and  N_13 
REMARK    5  A    between atoms: C_9  and  C_10 
REMARK       I    between atoms: N_13  and  C_18 
ROOT
HETATM    1  O           1     -19.415  -4.846  -5.858  0.00  0.00    -0.271 OA
HETATM    2  H           1     -22.341  -5.933  -5.540  0.00  0.00     0.163 HD
HETATM    3  N           1     -21.337  -5.895  -5.419  0.00  0.00    -0.344 N 
HETATM    4  C           1     -20.614  -4.891  -6.003  0.00  0.00     0.251 C 
ENDROOT
BRANCH   3   5
HETATM    5  C           1     -20.665  -6.907  -4.627  0.00  0.00     0.189 C 
BRANCH   5   6
HETATM    6  C           1     -21.564  -7.327  -3.471  0.00  0.00     0.014 C 
HETATM    7  C           1     -20.851  -8.380  -2.632  0.00  0.00     0.012 C 
BRANCH   6   8
HETATM    8  C           1     -21.877  -6.116  -2.604  0.00  0.00     0.002 C 
HETATM    9  C           1     -22.285  -6.580  -1.212  0.00  0.00     0.005 C 
ENDBRANCH   6   8
ENDBRANCH   5   6
BRANCH   5  10
HETATM   10  C           1     -20.365  -8.106  -5.492  0.00  0.00     0.197 C 
HETATM   11  O           1     -19.181  -8.459  -5.684  0.00  0.00    -0.646 OA
HETATM   12  O           1     -21.301  -8.746  -6.018  0.00  0.00    -0.646 OA
ENDBRANCH   5  10
ENDBRANCH   3   5
BRANCH   4  13
HETATM   13  C           1     -21.313  -3.838  -6.828  0.00  0.00     0.311 C 
HETATM   14  N           1     -20.510  -3.470  -7.991  0.00  0.00     0.097 N 
HETATM   15  H           1     -20.835  -2.590  -8.390  0.00  0.00     0.317 HD
HETATM   16  C           1     -20.723  -4.549  -8.951  0.00  0.00     0.271 C 
HETATM   17  C           1     -22.205  -4.860  -8.827  0.00  0.00     0.033 C 
HETATM   18  C           1     -22.595  -4.387  -7.431  0.00  0.00     0.047 C 
ENDBRANCH   4  13
TORSDOF 5
ENDMDL
MODEL 3
REMARK VINA RESULT:      -5.3      9.457     11.497
REMARK  5 active torsions:
REMARK  status: ('A' for Active; 'I' for Inactive)
REMARK    1  A    between atoms: C_3  and  C_18 
REMARK    2  A    between atoms: C_4  and  C_9 
REMARK    3  A    between atoms: C_4  and  C_17 
REMARK    4  A    between atoms: C_4  and  N_13 
REMARK    5  A    between atoms: C_9  and  C_10 
REMARK       I    between atoms: N_13  and  C_18 
ROOT
HETATM    1  O           1     -28.747  -7.689 -16.931  0.00  0.00    -0.271 OA
HETATM    2  H           1     -27.466  -5.462 -18.732  0.00  0.00     0.163 HD
HETATM    3  N           1     -27.502  -6.271 -18.126  0.00  0.00    -0.344 N 
HETATM    4  C           1     -28.705  -6.722 -17.654  0.00  0.00     0.251 C 
ENDROOT
BRANCH   3   5
HETATM    5  C           1     -26.277  -6.955 -17.757  0.00  0.00     0.189 C 
BRANCH   5   6
HETATM    6  C           1     -25.171  -6.579 -18.736  0.00  0.00     0.014 C 
HETATM    7  C           1     -23.904  -7.351 -18.391  0.00  0.00     0.012 C 
BRANCH   6   8
HETATM    8  C           1     -25.607  -6.930 -20.153  0.00  0.00     0.002 C 
HETATM    9  C           1     -24.532  -7.779 -20.819  0.00  0.00     0.005 C 
ENDBRANCH   6   8
ENDBRANCH   5   6
BRANCH   5  10
HETATM   10  C           1     -25.873  -6.545 -16.363  0.00  0.00     0.197 C 
HETATM   11  O           1     -25.736  -7.410 -15.471  0.00  0.00    -0.646 OA
HETATM   12  O           1     -25.674  -5.339 -16.099  0.00  0.00    -0.646 OA
ENDBRANCH   5  10
ENDBRANCH   3   5
BRANCH   4  13
HETATM   13  C           1     -29.979  -6.011 -18.036  0.00  0.00     0.311 C 
HETATM   14  N           1     -30.888  -5.922 -16.897  0.00  0.00     0.097 N 
HETATM   15  H           1     -31.834  -5.698 -17.205  0.00  0.00     0.317 HD
HETATM   16  C           1     -30.367  -4.825 -16.086  0.00  0.00     0.271 C 
HETATM   17  C           1     -29.954  -3.781 -17.108  0.00  0.00     0.033 C 
HETATM   18  C           1     -29.704  -4.560 -18.394  0.00  0.00     0.047 C 
ENDBRANCH   4  13
TORSDOF 5
ENDMDL
MODEL 4
REMARK VINA RESULT:      -5.2      6.537      8.573
REMARK  5 active torsions:
REMARK  status: ('A' for Active; 'I' for Inactive)
REMARK    1  A    between atoms: C_3  and  C_18 
REMARK    2  A    between atoms: C_4  and  C_9 
REMARK    3  A    between atoms: C_4  and  C_17 
REMARK    4  A    between atoms: C_4  and  N_13 
REMARK    5  A    between atoms: C_9  and  C_10 
REMARK       I    between atoms: N_13  and  C_18 
ROOT
HETATM    1  O           1     -23.122 -10.887  -3.562  0.00  0.00    -0.271 OA
HETATM    2  H           1     -20.610  -9.401  -2.412  0.00  0.00     0.163 HD
HETATM    3  N           1     -21.349  -9.623  -3.066  0.00  0.00    -0.344 N 
HETATM    4  C           1     -22.239 -10.622  -2.781  0.00  0.00     0.251 C 
ENDROOT
BRANCH   3   5
HETATM    5  C           1     -21.463  -8.882  -4.308  0.00  0.00     0.189 C 
BRANCH   5   6
HETATM    6  C           1     -21.112  -7.420  -4.061  0.00  0.00     0.014 C 
HETATM    7  C           1     -22.187  -6.531  -4.673  0.00  0.00     0.012 C 
BRANCH   6   8
HETATM    8  C           1     -21.035  -7.162  -2.562  0.00  0.00     0.002 C 
HETATM    9  C           1     -22.137  -6.192  -2.157  0.00  0.00     0.005 C 
ENDBRANCH   6   8
ENDBRANCH   5   6
BRANCH   5  10
HETATM   10  C           1     -20.515  -9.461  -5.328  0.00  0.00     0.197 C 
HETATM   11  O           1     -20.870 -10.431  -6.033  0.00  0.00    -0.646 OA
HETATM   12  O           1     -19.373  -8.972  -5.468  0.00  0.00    -0.646 OA
ENDBRANCH   5  10
ENDBRANCH   3   5
BRANCH   4  13
HETATM   13  C           1     -22.120 -11.394  -1.489  0.00  0.00     0.311 C 
HETATM   14  N           1     -21.829 -10.498  -0.373  0.00  0.00     0.097 N 
HETATM   15  H           1     -21.482 -11.022   0.430  0.00  0.00     0.317 HD
HETATM   16  C           1     -23.111  -9.886  -0.039  0.00  0.00     0.271 C 
HETATM   17  C           1     -24.104 -11.029  -0.160  0.00  0.00     0.033 C 
HETATM   18  C           1     -23.449 -12.024  -1.111  0.00  0.00     0.047 C 
ENDBRANCH   4  13
TORSDOF 5
ENDMDL
MODEL 5
REMARK VINA RESULT:      -5.1      8.314     10.442
REMARK  5 active torsions:
REMARK  status: ('A' for Active; 'I' for Inactive)
REMARK    1  A    between atoms: C_3  and  C_18 
REMARK    2  A    between atoms: C_4  and  C_9 
REMARK    3  A    between atoms: C_4  and  C_17 
REMARK    4  A    between atoms: C_4  and  N_13 
REMARK    5  A    between atoms: C_9  and  C_10 
REMARK       I    between atoms: N_13  and  C_18 
ROOT
HETATM    1  O           1     -22.984 -10.858  -3.079  0.00  0.00    -0.271 OA
HETATM    2  H           1     -22.535  -9.882  -0.131  0.00  0.00     0.163 HD
HETATM    3  N           1     -22.445  -9.891  -1.139  0.00  0.00    -0.344 N 
HETATM    4  C           1     -23.091 -10.847  -1.876  0.00  0.00     0.251 C 
ENDROOT
BRANCH   3   5
HETATM    5  C           1     -21.632  -8.890  -1.803  0.00  0.00     0.189 C 
BRANCH   5   6
HETATM    6  C           1     -21.659  -7.597  -0.998  0.00  0.00     0.014 C 
HETATM    7  C           1     -22.301  -6.495  -1.830  0.00  0.00     0.012 C 
BRANCH   6   8
HETATM    8  C           1     -22.470  -7.808   0.274  0.00  0.00     0.002 C 
HETATM    9  C           1     -21.534  -8.183   1.416  0.00  0.00     0.005 C 
ENDBRANCH   6   8
ENDBRANCH   5   6
BRANCH   5  10
HETATM   10  C           1     -20.211  -9.387  -1.908  0.00  0.00     0.197 C 
HETATM   11  O           1     -19.453  -8.929  -2.791  0.00  0.00    -0.646 OA
HETATM   12  O           1     -19.792 -10.255  -1.113  0.00  0.00    -0.646 OA
ENDBRANCH   5  10
ENDBRANCH   3   5
BRANCH   4  13
HETATM   13  C           1     -23.936 -11.888  -1.185  0.00  0.00     0.311 C 
HETATM   14  N           1     -23.434 -13.232  -1.459  0.00  0.00     0.097 N 
HETATM   15  H           1     -24.138 -13.934  -1.233  0.00  0.00     0.317 HD
HETATM   16  C           1     -22.284 -13.392  -0.574  0.00  0.00     0.271 C 
HETATM   17  C           1     -22.734 -12.747   0.726  0.00  0.00     0.033 C 
HETATM   18  C           1     -23.825 -11.761   0.325  0.00  0.00     0.047 C 
ENDBRANCH   4  13
TORSDOF 5
ENDMDL
MODEL 6
REMARK VINA RESULT:      -5.0      6.592      9.498
REMARK  5 active torsions:
REMARK  status: ('A' for Active; 'I' for Inactive)
REMARK    1  A    between atoms: C_3  and  C_18 
REMARK    2  A    between atoms: C_4  and  C_9 
REMARK    3  A    between atoms: C_4  and  C_17 
REMARK    4  A    between atoms: C_4  and  N_13 
REMARK    5  A    between atoms: C_9  and  C_10 
REMARK       I    between atoms: N_13  and  C_18 
ROOT
HETATM    1  O           1     -21.149  -6.826  -2.256  0.00  0.00    -0.271 OA
HETATM    2  H           1     -22.036  -9.794  -2.761  0.00  0.00     0.163 HD
HETATM    3  N           1     -21.663  -9.000  -2.256  0.00  0.00    -0.344 N 
HETATM    4  C           1     -21.594  -7.774  -2.860  0.00  0.00     0.251 C 
ENDROOT
BRANCH   3   5
HETATM    5  C           1     -21.201  -9.162  -0.890  0.00  0.00     0.189 C 
BRANCH   5   6
HETATM    6  C           1     -22.387  -9.481   0.012  0.00  0.00     0.014 C 
HETATM    7  C           1     -23.050  -8.183   0.454  0.00  0.00     0.012 C 
BRANCH   6   8
HETATM    8  C           1     -23.394 -10.329  -0.752  0.00  0.00     0.002 C 
HETATM    9  C           1     -23.722 -11.579   0.056  0.00  0.00     0.005 C 
ENDBRANCH   6   8
ENDBRANCH   5   6
BRANCH   5  10
HETATM   10  C           1     -20.205 -10.293  -0.828  0.00  0.00     0.197 C 
HETATM   11  O           1     -20.080 -10.959   0.222  0.00  0.00    -0.646 OA
HETATM   12  O           1     -19.504 -10.564  -1.827  0.00  0.00    -0.646 OA
ENDBRANCH   5  10
ENDBRANCH   3   5
BRANCH   4  13
HETATM   13  C           1     -22.074  -7.605  -4.281  0.00  0.00     0.311 C 
HETATM   14  N           1     -22.213  -6.191  -4.618  0.00  0.00     0.097 N 
HETATM   15  H           1     -22.783  -6.074  -5.455  0.00  0.00     0.317 HD
HETATM   16  C           1     -20.853  -5.732  -4.886  0.00  0.00     0.271 C 
HETATM   17  C           1     -20.228  -6.880  -5.661  0.00  0.00     0.033 C 
HETATM   18  C           1     -21.035  -8.112  -5.266  0.00  0.00     0.047 C 
ENDBRANCH   4  13
TORSDOF 5
ENDMDL
MODEL 7
REMARK VINA RESULT:      -5.0     11.147     12.513
REMARK  5 active torsions:
REMARK  status: ('A' for Active; 'I' for Inactive)
REMARK    1  A    between atoms: C_3  and  C_18 
REMARK    2  A    between atoms: C_4  and  C_9 
REMARK    3  A    between atoms: C_4  and  C_17 
REMARK    4  A    between atoms: C_4  and  N_13 
REMARK    5  A    between atoms: C_9  and  C_10 
REMARK       I    between atoms: N_13  and  C_18 
ROOT
HETATM    1  O           1     -28.693  -4.999 -19.403  0.00  0.00    -0.271 OA
HETATM    2  H           1     -27.213  -7.459 -18.137  0.00  0.00     0.163 HD
HETATM    3  N           1     -27.527  -6.825 -18.860  0.00  0.00    -0.344 N 
HETATM    4  C           1     -28.318  -5.756 -18.538  0.00  0.00     0.251 C 
ENDROOT
BRANCH   3   5
HETATM    5  C           1     -27.140  -7.052 -20.239  0.00  0.00     0.189 C 
BRANCH   5   6
HETATM    6  C           1     -25.623  -7.149 -20.332  0.00  0.00     0.014 C 
HETATM    7  C           1     -25.112  -6.141 -21.354  0.00  0.00     0.012 C 
BRANCH   6   8
HETATM    8  C           1     -25.010  -6.844 -18.971  0.00  0.00     0.002 C 
HETATM    9  C           1     -23.521  -7.163 -19.002  0.00  0.00     0.005 C 
ENDBRANCH   6   8
ENDBRANCH   5   6
BRANCH   5  10
HETATM   10  C           1     -27.756  -8.339 -20.729  0.00  0.00     0.197 C 
HETATM   11  O           1     -28.815  -8.761 -20.216  0.00  0.00    -0.646 OA
HETATM   12  O           1     -27.207  -8.984 -21.649  0.00  0.00    -0.646 OA
ENDBRANCH   5  10
ENDBRANCH   3   5
BRANCH   4  13
HETATM   13  C           1     -28.721  -5.520 -17.104  0.00  0.00     0.311 C 
HETATM   14  N           1     -29.009  -4.108 -16.869  0.00  0.00     0.097 N 
HETATM   15  H           1     -29.013  -3.901 -15.870  0.00  0.00     0.317 HD
HETATM   16  C           1     -30.347  -3.901 -17.414  0.00  0.00     0.271 C 
HETATM   17  C           1     -31.106  -5.149 -17.000  0.00  0.00     0.033 C 
HETATM   18  C           1     -30.036  -6.214 -16.790  0.00  0.00     0.047 C 
ENDBRANCH   4  13
TORSDOF 5
ENDMDL
MODEL 8
REMARK VINA RESULT:      -5.0      6.773      9.523
REMARK  5 active torsions:
REMARK  status: ('A' for Active; 'I' for Inactive)
REMARK    1  A    between atoms: C_3  and  C_18 
REMARK    2  A    between atoms: C_4  and  C_9 
REMARK    3  A    between atoms: C_4  and  C_17 
REMARK    4  A    between atoms: C_4  and  N_13 
REMARK    5  A    between atoms: C_9  and  C_10 
REMARK       I    between atoms: N_13  and  C_18 
ROOT
HETATM    1  O           1     -22.330  -6.668  -1.723  0.00  0.00    -0.271 OA
HETATM    2  H           1     -20.858  -9.415  -2.093  0.00  0.00     0.163 HD
HETATM    3  N           1     -21.507  -8.745  -1.701  0.00  0.00    -0.344 N 
HETATM    4  C           1     -21.554  -7.468  -2.191  0.00  0.00     0.251 C 
ENDROOT
BRANCH   3   5
HETATM    5  C           1     -22.389  -9.138  -0.619  0.00  0.00     0.189 C 
BRANCH   5   6
HETATM    6  C           1     -22.752 -10.610  -0.770  0.00  0.00     0.014 C 
HETATM    7  C           1     -24.106 -10.867  -0.121  0.00  0.00     0.012 C 
BRANCH   6   8
HETATM    8  C           1     -22.823 -10.968  -2.248  0.00  0.00     0.002 C 
HETATM    9  C           1     -22.726 -12.479  -2.411  0.00  0.00     0.005 C 
ENDBRANCH   6   8
ENDBRANCH   5   6
BRANCH   5  10
HETATM   10  C           1     -21.691  -8.926   0.701  0.00  0.00     0.197 C 
HETATM   11  O           1     -21.942  -7.911   1.386  0.00  0.00    -0.646 OA
HETATM   12  O           1     -20.860  -9.766   1.110  0.00  0.00    -0.646 OA
ENDBRANCH   5  10
ENDBRANCH   3   5
BRANCH   4  13
HETATM   13  C           1     -20.636  -7.058  -3.316  0.00  0.00     0.311 C 
HETATM   14  N           1     -20.452  -8.154  -4.263  0.00  0.00     0.097 N 
HETATM   15  H           1     -19.641  -7.985  -4.858  0.00  0.00     0.317 HD
HETATM   16  C           1     -21.662  -8.154  -5.079  0.00  0.00     0.271 C 
HETATM   17  C           1     -21.946  -6.680  -5.311  0.00  0.00     0.033 C 
HETATM   18  C           1     -21.266  -5.958  -4.154  0.00  0.00     0.047 C 
ENDBRANCH   4  13
TORSDOF 5
ENDMDL
MODEL 9
REMARK VINA RESULT:      -5.0      7.863      9.590
REMARK  5 active torsions:
REMARK  status: ('A' for Active; 'I' for Inactive)
REMARK    1  A    between atoms: C_3  and  C_18 
REMARK    2  A    between atoms: C_4  and  C_9 
REMARK    3  A    between atoms: C_4  and  C_17 
REMARK    4  A    between atoms: C_4  and  N_13 
REMARK    5  A    between atoms: C_9  and  C_10 
REMARK       I    between atoms: N_13  and  C_18 
ROOT
HETATM    1  O           1     -21.585 -10.564  -3.650  0.00  0.00    -0.271 OA
HETATM    2  H           1     -19.990  -9.497  -1.168  0.00  0.00     0.163 HD
HETATM    3  N           1     -20.774  -9.621  -1.795  0.00  0.00    -0.344 N 
HETATM    4  C           1     -20.648 -10.416  -2.902  0.00  0.00     0.251 C 
ENDROOT
BRANCH   3   5
HETATM    5  C           1     -22.034  -8.957  -1.519  0.00  0.00     0.189 C 
BRANCH   5   6
HETATM    6  C           1     -22.497  -9.309  -0.111  0.00  0.00     0.014 C 
HETATM    7  C           1     -23.577 -10.380  -0.186  0.00  0.00     0.012 C 
BRANCH   6   8
HETATM    8  C           1     -21.317  -9.835   0.695  0.00  0.00     0.002 C 
HETATM    9  C           1     -20.865  -8.770   1.687  0.00  0.00     0.005 C 
ENDBRANCH   6   8
ENDBRANCH   5   6
BRANCH   5  10
HETATM   10  C           1     -21.849  -7.464  -1.628  0.00  0.00     0.197 C 
HETATM   11  O           1     -20.926  -6.998  -2.331  0.00  0.00    -0.646 OA
HETATM   12  O           1     -22.617  -6.692  -1.015  0.00  0.00    -0.646 OA
ENDBRANCH   5  10
ENDBRANCH   3   5
BRANCH   4  13
HETATM   13  C           1     -19.338 -11.106  -3.189  0.00  0.00     0.311 C 
HETATM   14  N           1     -18.892 -10.832  -4.552  0.00  0.00     0.097 N 
HETATM   15  H           1     -18.174 -11.496  -4.839  0.00  0.00     0.317 HD
HETATM   16  C           1     -18.320  -9.489  -4.498  0.00  0.00     0.271 C 
HETATM   17  C           1     -17.560  -9.471  -3.183  0.00  0.00     0.033 C 
HETATM   18  C           1     -18.226 -10.539  -2.323  0.00  0.00     0.047 C 
ENDBRANCH   4  13
TORSDOF 5
ENDMDL
