MODEL 1
REMARK VINA RESULT:      -7.5      0.000      0.000
REMARK  8 active torsions:
REMARK  status: ('A' for Active; 'I' for Inactive)
REMARK    1  A    between atoms: C_3  and  C_5 
REMARK    2  A    between atoms: C_3  and  C_4 
REMARK    3  A    between atoms: C_3  and  N_19 
REMARK    4  A    between atoms: C_5  and  C_10 
REMARK       I    between atoms: C_13  and  N_19 
REMARK    5  A    between atoms: C_13  and  C_18 
REMARK    6  A    between atoms: N_16  and  C_18 
REMARK    7  A    between atoms: C_18  and  C_25 
REMARK    8  A    between atoms: O_22  and  C_23 
ROOT
HETATM    1  C           1     -35.783  -1.406 -12.092  0.00  0.00     0.189 C 
ENDROOT
BRANCH   1   2
HETATM    2  C           1     -34.352  -1.591 -11.605  0.00  0.00     0.074 C 
BRANCH   2   3
HETATM    3  C           1     -34.073  -3.048 -11.413  0.00  0.00    -0.056 A 
HETATM    4  C           1     -35.029  -3.869 -10.814  0.00  0.00     0.010 A 
HETATM    5  C           1     -34.770  -5.228 -10.635  0.00  0.00     0.037 A 
HETATM    6  C           1     -33.553  -5.766 -11.055  0.00  0.00     0.065 A 
HETATM    7  C           1     -32.597  -4.946 -11.655  0.00  0.00     0.037 A 
HETATM    8  C           1     -32.857  -3.588 -11.833  0.00  0.00     0.010 A 
BRANCH   6   9
HETATM    9  O           1     -33.301  -7.086 -10.882  0.00  0.00    -0.361 OA
HETATM   10  H           1     -33.679  -7.566 -11.638  0.00  0.00     0.217 HD
ENDBRANCH   6   9
ENDBRANCH   2   3
ENDBRANCH   1   2
BRANCH   1  11
HETATM   11  C           1     -36.626  -0.836 -10.978  0.00  0.00     0.197 C 
HETATM   12  O           1     -37.868  -0.974 -11.000  0.00  0.00    -0.646 OA
HETATM   13  O           1     -36.082  -0.226 -10.033  0.00  0.00    -0.646 OA
ENDBRANCH   1  11
BRANCH   1  14
HETATM   14  N           1     -35.794  -0.496 -13.220  0.00  0.00    -0.344 N 
HETATM   15  H           1     -36.061   0.471 -13.088  0.00  0.00     0.163 HD
HETATM   16  C           1     -35.445  -0.945 -14.466  0.00  0.00     0.249 C 
HETATM   17  O           1     -35.127  -2.099 -14.625  0.00  0.00    -0.271 OA
BRANCH  16  18
HETATM   18  C           1     -35.457   0.003 -15.640  0.00  0.00     0.278 C 
BRANCH  18  19
HETATM   19  N           1     -35.866  -0.739 -16.877  0.00  0.00    -0.066 N 
HETATM   20  H           1     -36.203  -1.693 -16.615  0.00  0.00     0.275 HD
HETATM   21  H           1     -35.047  -0.823 -17.520  0.00  0.00     0.275 HD
HETATM   22  H           1     -36.634  -0.219 -17.358  0.00  0.00     0.275 HD
ENDBRANCH  18  19
BRANCH  18  23
HETATM   23  C           1     -36.447   1.129 -15.373  0.00  0.00     0.017 C 
HETATM   24  C           1     -36.062   2.351 -16.198  0.00  0.00     0.012 C 
HETATM   25  C           1     -37.848   0.677 -15.761  0.00  0.00     0.012 C 
ENDBRANCH  18  23
ENDBRANCH  16  18
ENDBRANCH   1  14
TORSDOF 8
ENDMDL
MODEL 2
REMARK VINA RESULT:      -7.5     13.154     16.612
REMARK  8 active torsions:
REMARK  status: ('A' for Active; 'I' for Inactive)
REMARK    1  A    between atoms: C_3  and  C_5 
REMARK    2  A    between atoms: C_3  and  C_4 
REMARK    3  A    between atoms: C_3  and  N_19 
REMARK    4  A    between atoms: C_5  and  C_10 
REMARK       I    between atoms: C_13  and  N_19 
REMARK    5  A    between atoms: C_13  and  C_18 
REMARK    6  A    between atoms: N_16  and  C_18 
REMARK    7  A    between atoms: C_18  and  C_25 
REMARK    8  A    between atoms: O_22  and  C_23 
ROOT
HETATM    1  C           1     -21.067  -5.109  -6.969  0.00  0.00     0.189 C 
ENDROOT
BRANCH   1   2
HETATM    2  C           1     -21.930  -3.943  -7.435  0.00  0.00     0.074 C 
BRANCH   2   3
HETATM    3  C           1     -22.380  -4.186  -8.841  0.00  0.00    -0.056 A 
HETATM    4  C           1     -21.449  -4.198  -9.880  0.00  0.00     0.010 A 
HETATM    5  C           1     -21.868  -4.424 -11.191  0.00  0.00     0.037 A 
HETATM    6  C           1     -23.220  -4.637 -11.464  0.00  0.00     0.065 A 
HETATM    7  C           1     -24.151  -4.625 -10.425  0.00  0.00     0.037 A 
HETATM    8  C           1     -23.731  -4.399  -9.115  0.00  0.00     0.010 A 
BRANCH   6   9
HETATM    9  O           1     -23.628  -4.856 -12.737  0.00  0.00    -0.361 OA
HETATM   10  H           1     -23.976  -5.763 -12.789  0.00  0.00     0.217 HD
ENDBRANCH   6   9
ENDBRANCH   2   3
ENDBRANCH   1   2
BRANCH   1  11
HETATM   11  C           1     -19.662  -4.623  -6.710  0.00  0.00     0.197 C 
HETATM   12  O           1     -18.862  -4.487  -7.661  0.00  0.00    -0.646 OA
HETATM   13  O           1     -19.298  -4.357  -5.545  0.00  0.00    -0.646 OA
ENDBRANCH   1  11
BRANCH   1  14
HETATM   14  N           1     -21.620  -5.661  -5.748  0.00  0.00    -0.344 N 
HETATM   15  H           1     -22.189  -5.083  -5.143  0.00  0.00     0.163 HD
HETATM   16  C           1     -21.371  -6.965  -5.412  0.00  0.00     0.249 C 
HETATM   17  O           1     -20.691  -7.655  -6.133  0.00  0.00    -0.271 OA
BRANCH  16  18
HETATM   18  C           1     -21.947  -7.539  -4.141  0.00  0.00     0.278 C 
BRANCH  18  19
HETATM   19  N           1     -21.768  -9.028  -4.140  0.00  0.00    -0.066 N 
HETATM   20  H           1     -21.525  -9.350  -5.104  0.00  0.00     0.275 HD
HETATM   21  H           1     -22.657  -9.485  -3.834  0.00  0.00     0.275 HD
HETATM   22  H           1     -21.000  -9.286  -3.481  0.00  0.00     0.275 HD
ENDBRANCH  18  19
BRANCH  18  23
HETATM   23  C           1     -21.225  -6.940  -2.941  0.00  0.00     0.017 C 
HETATM   24  C           1     -22.228  -6.215  -2.053  0.00  0.00     0.012 C 
HETATM   25  C           1     -20.555  -8.052  -2.145  0.00  0.00     0.012 C 
ENDBRANCH  18  23
ENDBRANCH  16  18
ENDBRANCH   1  14
TORSDOF 8
ENDMDL
MODEL 3
REMARK VINA RESULT:      -7.3     13.338     16.946
REMARK  8 active torsions:
REMARK  status: ('A' for Active; 'I' for Inactive)
REMARK    1  A    between atoms: C_3  and  C_5 
REMARK    2  A    between atoms: C_3  and  C_4 
REMARK    3  A    between atoms: C_3  and  N_19 
REMARK    4  A    between atoms: C_5  and  C_10 
REMARK       I    between atoms: C_13  and  N_19 
REMARK    5  A    between atoms: C_13  and  C_18 
REMARK    6  A    between atoms: N_16  and  C_18 
REMARK    7  A    between atoms: C_18  and  C_25 
REMARK    8  A    between atoms: O_22  and  C_23 
ROOT
HETATM    1  C           1     -21.116  -5.363  -6.566  0.00  0.00     0.189 C 
ENDROOT
BRANCH   1   2
HETATM    2  C           1     -21.642  -4.032  -7.087  0.00  0.00     0.074 C 
BRANCH   2   3
HETATM    3  C           1     -22.159  -4.210  -8.480  0.00  0.00    -0.056 A 
HETATM    4  C           1     -21.281  -4.154  -9.563  0.00  0.00     0.010 A 
HETATM    5  C           1     -21.763  -4.320 -10.861  0.00  0.00     0.037 A 
HETATM    6  C           1     -23.123  -4.540 -11.077  0.00  0.00     0.065 A 
HETATM    7  C           1     -24.001  -4.596  -9.995  0.00  0.00     0.037 A 
HETATM    8  C           1     -23.519  -4.431  -8.697  0.00  0.00     0.010 A 
BRANCH   6   9
HETATM    9  O           1     -23.591  -4.702 -12.338  0.00  0.00    -0.361 OA
HETATM   10  H           1     -23.565  -5.650 -12.550  0.00  0.00     0.217 HD
ENDBRANCH   6   9
ENDBRANCH   2   3
ENDBRANCH   1   2
BRANCH   1  11
HETATM   11  C           1     -19.710  -5.581  -7.070  0.00  0.00     0.197 C 
HETATM   12  O           1     -18.916  -4.617  -7.144  0.00  0.00    -0.646 OA
HETATM   13  O           1     -19.339  -6.723  -7.412  0.00  0.00    -0.646 OA
ENDBRANCH   1  11
BRANCH   1  14
HETATM   14  N           1     -21.112  -5.346  -5.117  0.00  0.00    -0.344 N 
HETATM   15  H           1     -20.946  -4.479  -4.620  0.00  0.00     0.163 HD
HETATM   16  C           1     -21.332  -6.503  -4.418  0.00  0.00     0.249 C 
HETATM   17  O           1     -21.529  -7.537  -5.009  0.00  0.00    -0.271 OA
BRANCH  16  18
HETATM   18  C           1     -21.328  -6.485  -2.909  0.00  0.00     0.278 C 
BRANCH  18  19
HETATM   19  N           1     -22.569  -5.804  -2.414  0.00  0.00    -0.066 N 
HETATM   20  H           1     -22.924  -5.150  -3.148  0.00  0.00     0.275 HD
HETATM   21  H           1     -22.349  -5.266  -1.545  0.00  0.00     0.275 HD
HETATM   22  H           1     -23.300  -6.520  -2.203  0.00  0.00     0.275 HD
ENDBRANCH  18  19
BRANCH  18  23
HETATM   23  C           1     -21.290  -7.914  -2.384  0.00  0.00     0.017 C 
HETATM   24  C           1     -19.843  -8.345  -2.185  0.00  0.00     0.012 C 
HETATM   25  C           1     -22.029  -7.987  -1.055  0.00  0.00     0.012 C 
ENDBRANCH  18  23
ENDBRANCH  16  18
ENDBRANCH   1  14
TORSDOF 8
ENDMDL
MODEL 4
REMARK VINA RESULT:      -7.0      1.061      1.743
REMARK  8 active torsions:
REMARK  status: ('A' for Active; 'I' for Inactive)
REMARK    1  A    between atoms: C_3  and  C_5 
REMARK    2  A    between atoms: C_3  and  C_4 
REMARK    3  A    between atoms: C_3  and  N_19 
REMARK    4  A    between atoms: C_5  and  C_10 
REMARK       I    between atoms: C_13  and  N_19 
REMARK    5  A    between atoms: C_13  and  C_18 
REMARK    6  A    between atoms: N_16  and  C_18 
REMARK    7  A    between atoms: C_18  and  C_25 
REMARK    8  A    between atoms: O_22  and  C_23 
ROOT
HETATM    1  C           1     -35.977  -1.099 -11.237  0.00  0.00     0.189 C 
ENDROOT
BRANCH   1   2
HETATM    2  C           1     -34.562  -1.366 -10.743  0.00  0.00     0.074 C 
BRANCH   2   3
HETATM    3  C           1     -34.255  -2.825 -10.870  0.00  0.00    -0.056 A 
HETATM    4  C           1     -33.015  -3.238 -11.358  0.00  0.00     0.010 A 
HETATM    5  C           1     -32.728  -4.598 -11.477  0.00  0.00     0.037 A 
HETATM    6  C           1     -33.684  -5.546 -11.111  0.00  0.00     0.065 A 
HETATM    7  C           1     -34.924  -5.134 -10.623  0.00  0.00     0.037 A 
HETATM    8  C           1     -35.210  -3.774 -10.504  0.00  0.00     0.010 A 
BRANCH   6   9
HETATM    9  O           1     -33.406  -6.867 -11.227  0.00  0.00    -0.361 OA
HETATM   10  H           1     -32.446  -6.982 -11.123  0.00  0.00     0.217 HD
ENDBRANCH   6   9
ENDBRANCH   2   3
ENDBRANCH   1   2
BRANCH   1  11
HETATM   11  C           1     -36.822  -0.591 -10.094  0.00  0.00     0.197 C 
HETATM   12  O           1     -36.276  -0.182  -9.047  0.00  0.00    -0.646 OA
HETATM   13  O           1     -38.068  -0.579 -10.196  0.00  0.00    -0.646 OA
ENDBRANCH   1  11
BRANCH   1  14
HETATM   14  N           1     -35.940  -0.104 -12.290  0.00  0.00    -0.344 N 
HETATM   15  H           1     -36.097   0.871 -12.072  0.00  0.00     0.163 HD
HETATM   16  C           1     -35.695  -0.484 -13.583  0.00  0.00     0.249 C 
HETATM   17  O           1     -35.509  -1.649 -13.845  0.00  0.00    -0.271 OA
BRANCH  16  18
HETATM   18  C           1     -35.657   0.551 -14.680  0.00  0.00     0.278 C 
BRANCH  18  19
HETATM   19  N           1     -34.368   0.431 -15.436  0.00  0.00    -0.066 N 
HETATM   20  H           1     -34.007   1.385 -15.663  0.00  0.00     0.275 HD
HETATM   21  H           1     -34.532  -0.099 -16.322  0.00  0.00     0.275 HD
HETATM   22  H           1     -33.667  -0.077 -14.851  0.00  0.00     0.275 HD
ENDBRANCH  18  19
BRANCH  18  23
HETATM   23  C           1     -36.826   0.327 -15.630  0.00  0.00     0.017 C 
HETATM   24  C           1     -36.495  -0.814 -16.584  0.00  0.00     0.012 C 
HETATM   25  C           1     -38.071  -0.027 -14.829  0.00  0.00     0.012 C 
ENDBRANCH  18  23
ENDBRANCH  16  18
ENDBRANCH   1  14
TORSDOF 8
ENDMDL
MODEL 5
REMARK VINA RESULT:      -7.0      1.648      2.105
REMARK  8 active torsions:
REMARK  status: ('A' for Active; 'I' for Inactive)
REMARK    1  A    between atoms: C_3  and  C_5 
REMARK    2  A    between atoms: C_3  and  C_4 
REMARK    3  A    between atoms: C_3  and  N_19 
REMARK    4  A    between atoms: C_5  and  C_10 
REMARK       I    between atoms: C_13  and  N_19 
REMARK    5  A    between atoms: C_13  and  C_18 
REMARK    6  A    between atoms: N_16  and  C_18 
REMARK    7  A    between atoms: C_18  and  C_25 
REMARK    8  A    between atoms: O_22  and  C_23 
ROOT
HETATM    1  C           1     -36.857  -0.768 -10.619  0.00  0.00     0.189 C 
ENDROOT
BRANCH   1   2
HETATM    2  C           1     -36.206  -1.792  -9.700  0.00  0.00     0.074 C 
BRANCH   2   3
HETATM    3  C           1     -35.196  -2.584 -10.469  0.00  0.00    -0.056 A 
HETATM    4  C           1     -35.582  -3.744 -11.140  0.00  0.00     0.010 A 
HETATM    5  C           1     -34.641  -4.483 -11.857  0.00  0.00     0.037 A 
HETATM    6  C           1     -33.312  -4.061 -11.903  0.00  0.00     0.065 A 
HETATM    7  C           1     -32.925  -2.900 -11.232  0.00  0.00     0.037 A 
HETATM    8  C           1     -33.867  -2.162 -10.515  0.00  0.00     0.010 A 
BRANCH   6   9
HETATM    9  O           1     -32.398  -4.777 -12.599  0.00  0.00    -0.361 OA
HETATM   10  H           1     -31.749  -5.133 -11.968  0.00  0.00     0.217 HD
ENDBRANCH   6   9
ENDBRANCH   2   3
ENDBRANCH   1   2
BRANCH   1  11
HETATM   11  C           1     -37.058   0.527  -9.869  0.00  0.00     0.197 C 
HETATM   12  O           1     -36.210   0.902  -9.031  0.00  0.00    -0.646 OA
HETATM   13  O           1     -38.073   1.223 -10.086  0.00  0.00    -0.646 OA
ENDBRANCH   1  11
BRANCH   1  14
HETATM   14  N           1     -36.000  -0.534 -11.765  0.00  0.00    -0.344 N 
HETATM   15  H           1     -35.008  -0.381 -11.633  0.00  0.00     0.163 HD
HETATM   16  C           1     -36.532  -0.518 -13.026  0.00  0.00     0.249 C 
HETATM   17  O           1     -37.716  -0.700 -13.185  0.00  0.00    -0.271 OA
BRANCH  16  18
HETATM   18  C           1     -35.639  -0.275 -14.219  0.00  0.00     0.278 C 
BRANCH  18  19
HETATM   19  N           1     -34.969  -1.558 -14.611  0.00  0.00    -0.066 N 
HETATM   20  H           1     -35.301  -1.848 -15.558  0.00  0.00     0.275 HD
HETATM   21  H           1     -35.205  -2.301 -13.916  0.00  0.00     0.275 HD
HETATM   22  H           1     -33.934  -1.417 -14.632  0.00  0.00     0.275 HD
ENDBRANCH  18  19
BRANCH  18  23
HETATM   23  C           1     -36.477   0.237 -15.383  0.00  0.00     0.017 C 
HETATM   24  C           1     -35.965   1.605 -15.815  0.00  0.00     0.012 C 
HETATM   25  C           1     -36.372  -0.735 -16.550  0.00  0.00     0.012 C 
ENDBRANCH  18  23
ENDBRANCH  16  18
ENDBRANCH   1  14
TORSDOF 8
ENDMDL
MODEL 6
REMARK VINA RESULT:      -6.8     15.695     17.790
REMARK  8 active torsions:
REMARK  status: ('A' for Active; 'I' for Inactive)
REMARK    1  A    between atoms: C_3  and  C_5 
REMARK    2  A    between atoms: C_3  and  C_4 
REMARK    3  A    between atoms: C_3  and  N_19 
REMARK    4  A    between atoms: C_5  and  C_10 
REMARK       I    between atoms: C_13  and  N_19 
REMARK    5  A    between atoms: C_13  and  C_18 
REMARK    6  A    between atoms: N_16  and  C_18 
REMARK    7  A    between atoms: C_18  and  C_25 
REMARK    8  A    between atoms: O_22  and  C_23 
ROOT
HETATM    1  C           1     -20.349  -7.824  -4.823  0.00  0.00     0.189 C 
ENDROOT
BRANCH   1   2
HETATM    2  C           1     -21.536  -8.641  -4.327  0.00  0.00     0.074 C 
BRANCH   2   3
HETATM    3  C           1     -21.712  -8.424  -2.857  0.00  0.00    -0.056 A 
HETATM    4  C           1     -21.702  -9.513  -1.985  0.00  0.00     0.010 A 
HETATM    5  C           1     -21.866  -9.311  -0.614  0.00  0.00     0.037 A 
HETATM    6  C           1     -22.042  -8.020  -0.116  0.00  0.00     0.065 A 
HETATM    7  C           1     -22.052  -6.932  -0.988  0.00  0.00     0.037 A 
HETATM    8  C           1     -21.888  -7.134  -2.358  0.00  0.00     0.010 A 
BRANCH   6   9
HETATM    9  O           1     -22.201  -7.824   1.215  0.00  0.00    -0.361 OA
HETATM   10  H           1     -22.884  -7.143   1.339  0.00  0.00     0.217 HD
ENDBRANCH   6   9
ENDBRANCH   2   3
ENDBRANCH   1   2
BRANCH   1  11
HETATM   11  C           1     -19.155  -8.729  -5.002  0.00  0.00     0.197 C 
HETATM   12  O           1     -18.834  -9.121  -6.145  0.00  0.00    -0.646 OA
HETATM   13  O           1     -18.487  -9.086  -4.009  0.00  0.00    -0.646 OA
ENDBRANCH   1  11
BRANCH   1  14
HETATM   14  N           1     -20.684  -7.209  -6.092  0.00  0.00    -0.344 N 
HETATM   15  H           1     -20.663  -7.758  -6.942  0.00  0.00     0.163 HD
HETATM   16  C           1     -21.028  -5.884  -6.141  0.00  0.00     0.249 C 
HETATM   17  O           1     -21.052  -5.228  -5.127  0.00  0.00    -0.271 OA
BRANCH  16  18
HETATM   18  C           1     -21.376  -5.244  -7.463  0.00  0.00     0.278 C 
BRANCH  18  19
HETATM   19  N           1     -21.925  -3.869  -7.222  0.00  0.00    -0.066 N 
HETATM   20  H           1     -22.035  -3.374  -8.136  0.00  0.00     0.275 HD
HETATM   21  H           1     -21.266  -3.333  -6.613  0.00  0.00     0.275 HD
HETATM   22  H           1     -22.854  -3.942  -6.751  0.00  0.00     0.275 HD
ENDBRANCH  18  19
BRANCH  18  23
HETATM   23  C           1     -20.125  -5.147  -8.325  0.00  0.00     0.017 C 
HETATM   24  C           1     -20.474  -4.495  -9.657  0.00  0.00     0.012 C 
HETATM   25  C           1     -19.077  -4.307  -7.608  0.00  0.00     0.012 C 
ENDBRANCH  18  23
ENDBRANCH  16  18
ENDBRANCH   1  14
TORSDOF 8
ENDMDL
MODEL 7
REMARK VINA RESULT:      -6.4     13.166     15.787
REMARK  8 active torsions:
REMARK  status: ('A' for Active; 'I' for Inactive)
REMARK    1  A    between atoms: C_3  and  C_5 
REMARK    2  A    between atoms: C_3  and  C_4 
REMARK    3  A    between atoms: C_3  and  N_19 
REMARK    4  A    between atoms: C_5  and  C_10 
REMARK       I    between atoms: C_13  and  N_19 
REMARK    5  A    between atoms: C_13  and  C_18 
REMARK    6  A    between atoms: N_16  and  C_18 
REMARK    7  A    between atoms: C_18  and  C_25 
REMARK    8  A    between atoms: O_22  and  C_23 
ROOT
HETATM    1  C           1     -21.250  -5.373  -6.455  0.00  0.00     0.189 C 
ENDROOT
BRANCH   1   2
HETATM    2  C           1     -21.157  -6.875  -6.223  0.00  0.00     0.074 C 
BRANCH   2   3
HETATM    3  C           1     -21.119  -7.152  -4.753  0.00  0.00    -0.056 A 
HETATM    4  C           1     -21.881  -6.378  -3.878  0.00  0.00     0.010 A 
HETATM    5  C           1     -21.846  -6.636  -2.507  0.00  0.00     0.037 A 
HETATM    6  C           1     -21.049  -7.668  -2.012  0.00  0.00     0.065 A 
HETATM    7  C           1     -20.288  -8.443  -2.888  0.00  0.00     0.037 A 
HETATM    8  C           1     -20.323  -8.184  -4.258  0.00  0.00     0.010 A 
BRANCH   6   9
HETATM    9  O           1     -21.016  -7.919  -0.682  0.00  0.00    -0.361 OA
HETATM   10  H           1     -20.456  -7.243  -0.262  0.00  0.00     0.217 HD
ENDBRANCH   6   9
ENDBRANCH   2   3
ENDBRANCH   1   2
BRANCH   1  11
HETATM   11  C           1     -19.865  -4.773  -6.442  0.00  0.00     0.197 C 
HETATM   12  O           1     -19.204  -4.703  -7.500  0.00  0.00    -0.646 OA
HETATM   13  O           1     -19.379  -4.348  -5.372  0.00  0.00    -0.646 OA
ENDBRANCH   1  11
BRANCH   1  14
HETATM   14  N           1     -21.873  -5.121  -7.740  0.00  0.00    -0.344 N 
HETATM   15  H           1     -21.368  -5.317  -8.595  0.00  0.00     0.163 HD
HETATM   16  C           1     -23.144  -4.616  -7.797  0.00  0.00     0.249 C 
HETATM   17  O           1     -23.747  -4.380  -6.778  0.00  0.00    -0.271 OA
BRANCH  16  18
HETATM   18  C           1     -23.792  -4.353  -9.135  0.00  0.00     0.278 C 
BRANCH  18  19
HETATM   19  N           1     -24.251  -2.927  -9.196  0.00  0.00    -0.066 N 
HETATM   20  H           1     -23.527  -2.310  -8.763  0.00  0.00     0.275 HD
HETATM   21  H           1     -25.151  -2.828  -8.675  0.00  0.00     0.275 HD
HETATM   22  H           1     -24.394  -2.650 -10.193  0.00  0.00     0.275 HD
ENDBRANCH  18  19
BRANCH  18  23
HETATM   23  C           1     -22.783  -4.610 -10.247  0.00  0.00     0.017 C 
HETATM   24  C           1     -23.509  -5.122 -11.484  0.00  0.00     0.012 C 
HETATM   25  C           1     -22.058  -3.315 -10.584  0.00  0.00     0.012 C 
ENDBRANCH  18  23
ENDBRANCH  16  18
ENDBRANCH   1  14
TORSDOF 8
ENDMDL
MODEL 8
REMARK VINA RESULT:      -6.2     17.843     19.834
REMARK  8 active torsions:
REMARK  status: ('A' for Active; 'I' for Inactive)
REMARK    1  A    between atoms: C_3  and  C_5 
REMARK    2  A    between atoms: C_3  and  C_4 
REMARK    3  A    between atoms: C_3  and  N_19 
REMARK    4  A    between atoms: C_5  and  C_10 
REMARK       I    between atoms: C_13  and  N_19 
REMARK    5  A    between atoms: C_13  and  C_18 
REMARK    6  A    between atoms: N_16  and  C_18 
REMARK    7  A    between atoms: C_18  and  C_25 
REMARK    8  A    between atoms: O_22  and  C_23 
ROOT
HETATM    1  C           1     -21.733  -7.864  -2.111  0.00  0.00     0.189 C 
ENDROOT
BRANCH   1   2
HETATM    2  C           1     -21.630  -8.008  -0.598  0.00  0.00     0.074 C 
BRANCH   2   3
HETATM    3  C           1     -21.926  -9.422  -0.210  0.00  0.00    -0.056 A 
HETATM    4  C           1     -23.199  -9.951  -0.418  0.00  0.00     0.010 A 
HETATM    5  C           1     -23.475 -11.270  -0.055  0.00  0.00     0.037 A 
HETATM    6  C           1     -22.477 -12.059   0.517  0.00  0.00     0.065 A 
HETATM    7  C           1     -21.203 -11.530   0.724  0.00  0.00     0.037 A 
HETATM    8  C           1     -20.928 -10.212   0.362  0.00  0.00     0.010 A 
BRANCH   6   9
HETATM    9  O           1     -22.745 -13.339   0.868  0.00  0.00    -0.361 OA
HETATM   10  H           1     -21.909 -13.759   1.136  0.00  0.00     0.217 HD
ENDBRANCH   6   9
ENDBRANCH   2   3
ENDBRANCH   1   2
BRANCH   1  11
HETATM   11  C           1     -21.965  -6.415  -2.465  0.00  0.00     0.197 C 
HETATM   12  O           1     -21.754  -6.015  -3.631  0.00  0.00    -0.646 OA
HETATM   13  O           1     -22.366  -5.616  -1.593  0.00  0.00    -0.646 OA
ENDBRANCH   1  11
BRANCH   1  14
HETATM   14  N           1     -20.500  -8.319  -2.724  0.00  0.00    -0.344 N 
HETATM   15  H           1     -19.627  -7.852  -2.514  0.00  0.00     0.163 HD
HETATM   16  C           1     -20.517  -9.382  -3.588  0.00  0.00     0.249 C 
HETATM   17  O           1     -21.558  -9.939  -3.840  0.00  0.00    -0.271 OA
BRANCH  16  18
HETATM   18  C           1     -19.234  -9.855  -4.226  0.00  0.00     0.278 C 
BRANCH  18  19
HETATM   19  N           1     -18.968  -9.057  -5.467  0.00  0.00    -0.066 N 
HETATM   20  H           1     -19.789  -9.132  -6.110  0.00  0.00     0.275 HD
HETATM   21  H           1     -18.116  -9.429  -5.944  0.00  0.00     0.275 HD
HETATM   22  H           1     -18.815  -8.056  -5.212  0.00  0.00     0.275 HD
ENDBRANCH  18  19
BRANCH  18  23
HETATM   23  C           1     -18.082  -9.669  -3.247  0.00  0.00     0.017 C 
HETATM   24  C           1     -18.119 -10.776  -2.201  0.00  0.00     0.012 C 
HETATM   25  C           1     -16.760  -9.728  -4.001  0.00  0.00     0.012 C 
ENDBRANCH  18  23
ENDBRANCH  16  18
ENDBRANCH   1  14
TORSDOF 8
ENDMDL
MODEL 9
REMARK VINA RESULT:      -6.1     13.963     17.227
REMARK  8 active torsions:
REMARK  status: ('A' for Active; 'I' for Inactive)
REMARK    1  A    between atoms: C_3  and  C_5 
REMARK    2  A    between atoms: C_3  and  C_4 
REMARK    3  A    between atoms: C_3  and  N_19 
REMARK    4  A    between atoms: C_5  and  C_10 
REMARK       I    between atoms: C_13  and  N_19 
REMARK    5  A    between atoms: C_13  and  C_18 
REMARK    6  A    between atoms: N_16  and  C_18 
REMARK    7  A    between atoms: C_18  and  C_25 
REMARK    8  A    between atoms: O_22  and  C_23 
ROOT
HETATM    1  C           1     -21.176  -5.957  -6.313  0.00  0.00     0.189 C 
ENDROOT
BRANCH   1   2
HETATM    2  C           1     -22.392  -5.192  -6.817  0.00  0.00     0.074 C 
BRANCH   2   3
HETATM    3  C           1     -22.121  -4.674  -8.195  0.00  0.00    -0.056 A 
HETATM    4  C           1     -20.838  -4.767  -8.735  0.00  0.00     0.010 A 
HETATM    5  C           1     -20.585  -4.284 -10.019  0.00  0.00     0.037 A 
HETATM    6  C           1     -21.615  -3.707 -10.763  0.00  0.00     0.065 A 
HETATM    7  C           1     -22.898  -3.615 -10.223  0.00  0.00     0.037 A 
HETATM    8  C           1     -23.150  -4.098  -8.939  0.00  0.00     0.010 A 
BRANCH   6   9
HETATM    9  O           1     -21.369  -3.239 -12.010  0.00  0.00    -0.361 OA
HETATM   10  H           1     -20.462  -3.490 -12.252  0.00  0.00     0.217 HD
ENDBRANCH   6   9
ENDBRANCH   2   3
ENDBRANCH   1   2
BRANCH   1  11
HETATM   11  C           1     -20.534  -5.193  -5.180  0.00  0.00     0.197 C 
HETATM   12  O           1     -20.909  -5.388  -4.004  0.00  0.00    -0.646 OA
HETATM   13  O           1     -19.628  -4.366  -5.419  0.00  0.00    -0.646 OA
ENDBRANCH   1  11
BRANCH   1  14
HETATM   14  N           1     -21.589  -7.264  -5.841  0.00  0.00    -0.344 N 
HETATM   15  H           1     -22.563  -7.443  -5.633  0.00  0.00     0.163 HD
HETATM   16  C           1     -20.661  -8.257  -5.675  0.00  0.00     0.249 C 
HETATM   17  O           1     -19.498  -8.045  -5.921  0.00  0.00    -0.271 OA
BRANCH  16  18
HETATM   18  C           1     -21.092  -9.617  -5.183  0.00  0.00     0.278 C 
BRANCH  18  19
HETATM   19  N           1     -19.886 -10.494  -5.019  0.00  0.00    -0.066 N 
HETATM   20  H           1     -19.764 -11.081  -5.876  0.00  0.00     0.275 HD
HETATM   21  H           1     -20.017 -11.114  -4.188  0.00  0.00     0.275 HD
HETATM   22  H           1     -19.039  -9.899  -4.880  0.00  0.00     0.275 HD
ENDBRANCH  18  19
BRANCH  18  23
HETATM   23  C           1     -21.800  -9.472  -3.842  0.00  0.00     0.017 C 
HETATM   24  C           1     -22.441 -10.799  -3.459  0.00  0.00     0.012 C 
HETATM   25  C           1     -20.790  -9.070  -2.776  0.00  0.00     0.012 C 
ENDBRANCH  18  23
ENDBRANCH  16  18
ENDBRANCH   1  14
TORSDOF 8
ENDMDL
