MODEL 1
REMARK VINA RESULT:      -5.8      0.000      0.000
REMARK  9 active torsions:
REMARK  status: ('A' for Active; 'I' for Inactive)
REMARK       I    between atoms: N_4  and  C_21 
REMARK    1  A    between atoms: C_5  and  C_21 
REMARK    2  A    between atoms: C_5  and  C_11 
REMARK    3  A    between atoms: N_6  and  C_12 
REMARK    4  A    between atoms: C_10  and  C_12 
REMARK    5  A    between atoms: C_10  and  C_13 
REMARK    6  A    between atoms: C_11  and  C_18 
REMARK    7  A    between atoms: C_11  and  N_23 
REMARK    8  A    between atoms: C_12  and  C_20 
REMARK    9  A    between atoms: C_13  and  S_19 
REMARK       I    between atoms: C_20  and  N_23 
ROOT
HETATM    1  O           1     -24.319  -6.511 -18.577  0.00  0.00    -0.271 OA
HETATM    2  H           1     -27.427  -6.940 -18.585  0.00  0.00     0.163 HD
HETATM    3  C           1     -25.397  -6.873 -18.985  0.00  0.00     0.249 C 
HETATM    4  N           1     -26.524  -6.636 -18.243  0.00  0.00    -0.344 N 
ENDROOT
BRANCH   4   5
HETATM    5  C           1     -26.423  -5.950 -16.970  0.00  0.00     0.194 C 
BRANCH   5   6
HETATM    6  C           1     -27.642  -5.056 -16.778  0.00  0.00     0.138 C 
BRANCH   6   7
HETATM    7  C           1     -28.742  -5.498 -17.711  0.00  0.00     0.217 C 
HETATM    8  O           1     -28.783  -5.072 -18.841  0.00  0.00    -0.274 OA
HETATM    9  N           1     -29.694  -6.380 -17.278  0.00  0.00    -0.370 N 
HETATM   10  H           1     -29.660  -6.736 -16.331  0.00  0.00     0.159 HD
HETATM   11  H           1     -30.433  -6.676 -17.904  0.00  0.00     0.159 HD
ENDBRANCH   6   7
ENDBRANCH   5   6
BRANCH   5  12
HETATM   12  C           1     -26.363  -6.966 -15.856  0.00  0.00     0.197 C 
HETATM   13  O           1     -25.257  -7.381 -15.447  0.00  0.00    -0.646 OA
HETATM   14  O           1     -27.419  -7.392 -15.342  0.00  0.00    -0.646 OA
ENDBRANCH   5  12
ENDBRANCH   4   5
BRANCH   3  15
HETATM   15  C           1     -25.502  -7.588 -20.310  0.00  0.00     0.275 C 
BRANCH  15  16
HETATM   16  N           1     -26.947  -7.798 -20.651  0.00  0.00    -0.066 N 
HETATM   17  H           1     -27.430  -8.265 -19.850  0.00  0.00     0.275 HD
HETATM   18  H           1     -27.398  -6.875 -20.839  0.00  0.00     0.275 HD
HETATM   19  H           1     -27.020  -8.401 -21.501  0.00  0.00     0.275 HD
ENDBRANCH  15  16
BRANCH  15  20
HETATM   20  C           1     -24.843  -6.746 -21.395  0.00  0.00     0.053 C 
BRANCH  20  21
HETATM   21  C           1     -24.080  -7.654 -22.350  0.00  0.00     0.076 C 
BRANCH  21  22
HETATM   22  S           1     -22.787  -8.542 -21.440  0.00  0.00    -0.173 SA
HETATM   23  C           1     -21.855  -9.089 -22.898  0.00  0.00     0.089 C 
ENDBRANCH  21  22
ENDBRANCH  20  21
ENDBRANCH  15  20
ENDBRANCH   3  15
TORSDOF 9
ENDMDL
MODEL 2
REMARK VINA RESULT:      -5.8     10.534     13.036
REMARK  9 active torsions:
REMARK  status: ('A' for Active; 'I' for Inactive)
REMARK       I    between atoms: N_4  and  C_21 
REMARK    1  A    between atoms: C_5  and  C_21 
REMARK    2  A    between atoms: C_5  and  C_11 
REMARK    3  A    between atoms: N_6  and  C_12 
REMARK    4  A    between atoms: C_10  and  C_12 
REMARK    5  A    between atoms: C_10  and  C_13 
REMARK    6  A    between atoms: C_11  and  C_18 
REMARK    7  A    between atoms: C_11  and  N_23 
REMARK    8  A    between atoms: C_12  and  C_20 
REMARK    9  A    between atoms: C_13  and  S_19 
REMARK       I    between atoms: C_20  and  N_23 
ROOT
HETATM    1  O           1     -21.278  -3.640  -7.403  0.00  0.00    -0.271 OA
HETATM    2  H           1     -22.579  -5.958  -9.070  0.00  0.00     0.163 HD
HETATM    3  C           1     -21.576  -4.772  -7.701  0.00  0.00     0.249 C 
HETATM    4  N           1     -22.329  -5.009  -8.820  0.00  0.00    -0.344 N 
ENDROOT
BRANCH   4   5
HETATM    5  C           1     -22.767  -3.902  -9.648  0.00  0.00     0.194 C 
BRANCH   5   6
HETATM    6  C           1     -22.237  -4.087 -11.063  0.00  0.00     0.138 C 
BRANCH   6   7
HETATM    7  C           1     -20.745  -3.859 -11.076  0.00  0.00     0.217 C 
HETATM    8  O           1     -19.995  -4.755 -10.770  0.00  0.00    -0.274 OA
HETATM    9  N           1     -20.242  -2.638 -11.435  0.00  0.00    -0.370 N 
HETATM   10  H           1     -20.870  -1.887 -11.691  0.00  0.00     0.159 HD
HETATM   11  H           1     -19.241  -2.485 -11.443  0.00  0.00     0.159 HD
ENDBRANCH   6   7
ENDBRANCH   5   6
BRANCH   5  12
HETATM   12  C           1     -24.276  -3.864  -9.676  0.00  0.00     0.197 C 
HETATM   13  O           1     -24.876  -2.777  -9.533  0.00  0.00    -0.646 OA
HETATM   14  O           1     -24.924  -4.919  -9.843  0.00  0.00    -0.646 OA
ENDBRANCH   5  12
ENDBRANCH   4   5
BRANCH   3  15
HETATM   15  C           1     -21.120  -5.924  -6.840  0.00  0.00     0.275 C 
BRANCH  15  16
HETATM   16  N           1     -19.718  -6.303  -7.214  0.00  0.00    -0.066 N 
HETATM   17  H           1     -19.216  -6.661  -6.370  0.00  0.00     0.275 HD
HETATM   18  H           1     -19.743  -7.049  -7.946  0.00  0.00     0.275 HD
HETATM   19  H           1     -19.219  -5.465  -7.588  0.00  0.00     0.275 HD
ENDBRANCH  15  16
BRANCH  15  20
HETATM   20  C           1     -21.159  -5.510  -5.375  0.00  0.00     0.053 C 
BRANCH  20  21
HETATM   21  C           1     -22.120  -6.415  -4.616  0.00  0.00     0.076 C 
BRANCH  21  22
HETATM   22  S           1     -21.268  -7.144  -3.190  0.00  0.00    -0.173 SA
HETATM   23  C           1     -22.204  -6.248  -1.919  0.00  0.00     0.089 C 
ENDBRANCH  21  22
ENDBRANCH  20  21
ENDBRANCH  15  20
ENDBRANCH   3  15
TORSDOF 9
ENDMDL
MODEL 3
REMARK VINA RESULT:      -5.8      1.994      2.480
REMARK  9 active torsions:
REMARK  status: ('A' for Active; 'I' for Inactive)
REMARK       I    between atoms: N_4  and  C_21 
REMARK    1  A    between atoms: C_5  and  C_21 
REMARK    2  A    between atoms: C_5  and  C_11 
REMARK    3  A    between atoms: N_6  and  C_12 
REMARK    4  A    between atoms: C_10  and  C_12 
REMARK    5  A    between atoms: C_10  and  C_13 
REMARK    6  A    between atoms: C_11  and  C_18 
REMARK    7  A    between atoms: C_11  and  N_23 
REMARK    8  A    between atoms: C_12  and  C_20 
REMARK    9  A    between atoms: C_13  and  S_19 
REMARK       I    between atoms: C_20  and  N_23 
ROOT
HETATM    1  O           1     -27.186  -6.253 -20.348  0.00  0.00    -0.271 OA
HETATM    2  H           1     -26.219  -6.540 -17.378  0.00  0.00     0.163 HD
HETATM    3  C           1     -26.422  -6.463 -19.436  0.00  0.00     0.249 C 
HETATM    4  N           1     -26.859  -6.364 -18.142  0.00  0.00    -0.344 N 
ENDROOT
BRANCH   4   5
HETATM    5  C           1     -28.237  -6.009 -17.865  0.00  0.00     0.194 C 
BRANCH   5   6
HETATM    6  C           1     -28.934  -7.177 -17.181  0.00  0.00     0.138 C 
BRANCH   6   7
HETATM    7  C           1     -30.302  -7.372 -17.787  0.00  0.00     0.217 C 
HETATM    8  O           1     -30.438  -8.080 -18.756  0.00  0.00    -0.274 OA
HETATM    9  N           1     -31.389  -6.747 -17.239  0.00  0.00    -0.370 N 
HETATM   10  H           1     -31.276  -6.153 -16.427  0.00  0.00     0.159 HD
HETATM   11  H           1     -32.307  -6.878 -17.645  0.00  0.00     0.159 HD
ENDBRANCH   6   7
ENDBRANCH   5   6
BRANCH   5  12
HETATM   12  C           1     -28.272  -4.801 -16.962  0.00  0.00     0.197 C 
HETATM   13  O           1     -27.792  -4.868 -15.810  0.00  0.00    -0.646 OA
HETATM   14  O           1     -28.779  -3.732 -17.367  0.00  0.00    -0.646 OA
ENDBRANCH   5  12
ENDBRANCH   4   5
BRANCH   3  15
HETATM   15  C           1     -24.988  -6.833 -19.723  0.00  0.00     0.275 C 
BRANCH  15  16
HETATM   16  N           1     -24.381  -7.462 -18.504  0.00  0.00    -0.066 N 
HETATM   17  H           1     -24.707  -6.954 -17.651  0.00  0.00     0.275 HD
HETATM   18  H           1     -24.674  -8.463 -18.447  0.00  0.00     0.275 HD
HETATM   19  H           1     -23.339  -7.407 -18.566  0.00  0.00     0.275 HD
ENDBRANCH  15  16
BRANCH  15  20
HETATM   20  C           1     -24.940  -7.821 -20.881  0.00  0.00     0.053 C 
BRANCH  20  21
HETATM   21  C           1     -23.500  -8.259 -21.116  0.00  0.00     0.076 C 
BRANCH  21  22
HETATM   22  S           1     -23.173  -8.332 -22.899  0.00  0.00    -0.173 SA
HETATM   23  C           1     -21.675  -9.350 -22.786  0.00  0.00     0.089 C 
ENDBRANCH  21  22
ENDBRANCH  20  21
ENDBRANCH  15  20
ENDBRANCH   3  15
TORSDOF 9
ENDMDL
MODEL 4
REMARK VINA RESULT:      -5.2      3.232      6.155
REMARK  9 active torsions:
REMARK  status: ('A' for Active; 'I' for Inactive)
REMARK       I    between atoms: N_4  and  C_21 
REMARK    1  A    between atoms: C_5  and  C_21 
REMARK    2  A    between atoms: C_5  and  C_11 
REMARK    3  A    between atoms: N_6  and  C_12 
REMARK    4  A    between atoms: C_10  and  C_12 
REMARK    5  A    between atoms: C_10  and  C_13 
REMARK    6  A    between atoms: C_11  and  C_18 
REMARK    7  A    between atoms: C_11  and  N_23 
REMARK    8  A    between atoms: C_12  and  C_20 
REMARK    9  A    between atoms: C_13  and  S_19 
REMARK       I    between atoms: C_20  and  N_23 
ROOT
HETATM    1  O           1     -28.704  -5.547 -19.264  0.00  0.00    -0.271 OA
HETATM    2  H           1     -26.774  -7.946 -18.661  0.00  0.00     0.163 HD
HETATM    3  C           1     -28.202  -6.448 -18.634  0.00  0.00     0.249 C 
HETATM    4  N           1     -27.194  -7.191 -19.188  0.00  0.00    -0.344 N 
ENDROOT
BRANCH   4   5
HETATM    5  C           1     -26.728  -6.896 -20.529  0.00  0.00     0.194 C 
BRANCH   5   6
HETATM    6  C           1     -25.353  -6.246 -20.456  0.00  0.00     0.138 C 
BRANCH   6   7
HETATM    7  C           1     -24.561  -6.866 -19.331  0.00  0.00     0.217 C 
HETATM    8  O           1     -24.766  -6.528 -18.190  0.00  0.00    -0.274 OA
HETATM    9  N           1     -23.610  -7.812 -19.603  0.00  0.00    -0.370 N 
HETATM   10  H           1     -23.438  -8.095 -20.559  0.00  0.00     0.159 HD
HETATM   11  H           1     -23.079  -8.228 -18.848  0.00  0.00     0.159 HD
ENDBRANCH   6   7
ENDBRANCH   5   6
BRANCH   5  12
HETATM   12  C           1     -26.639  -8.177 -21.321  0.00  0.00     0.197 C 
HETATM   13  O           1     -25.562  -8.502 -21.868  0.00  0.00    -0.646 OA
HETATM   14  O           1     -27.642  -8.915 -21.431  0.00  0.00    -0.646 OA
ENDBRANCH   5  12
ENDBRANCH   4   5
BRANCH   3  15
HETATM   15  C           1     -28.687  -6.755 -17.239  0.00  0.00     0.275 C 
BRANCH  15  16
HETATM   16  N           1     -27.509  -6.970 -16.336  0.00  0.00    -0.066 N 
HETATM   17  H           1     -27.723  -6.592 -15.386  0.00  0.00     0.275 HD
HETATM   18  H           1     -27.307  -7.993 -16.266  0.00  0.00     0.275 HD
HETATM   19  H           1     -26.675  -6.477 -16.728  0.00  0.00     0.275 HD
ENDBRANCH  15  16
BRANCH  15  20
HETATM   20  C           1     -29.516  -5.587 -16.720  0.00  0.00     0.053 C 
BRANCH  20  21
HETATM   21  C           1     -28.591  -4.446 -16.319  0.00  0.00     0.076 C 
BRANCH  21  22
HETATM   22  S           1     -29.100  -2.926 -17.167  0.00  0.00    -0.173 SA
HETATM   23  C           1     -30.784  -3.473 -17.565  0.00  0.00     0.089 C 
ENDBRANCH  21  22
ENDBRANCH  20  21
ENDBRANCH  15  20
ENDBRANCH   3  15
TORSDOF 9
ENDMDL
MODEL 5
REMARK VINA RESULT:      -5.2     11.233     13.623
REMARK  9 active torsions:
REMARK  status: ('A' for Active; 'I' for Inactive)
REMARK       I    between atoms: N_4  and  C_21 
REMARK    1  A    between atoms: C_5  and  C_21 
REMARK    2  A    between atoms: C_5  and  C_11 
REMARK    3  A    between atoms: N_6  and  C_12 
REMARK    4  A    between atoms: C_10  and  C_12 
REMARK    5  A    between atoms: C_10  and  C_13 
REMARK    6  A    between atoms: C_11  and  C_18 
REMARK    7  A    between atoms: C_11  and  N_23 
REMARK    8  A    between atoms: C_12  and  C_20 
REMARK    9  A    between atoms: C_13  and  S_19 
REMARK       I    between atoms: C_20  and  N_23 
ROOT
HETATM    1  O           1     -20.854  -6.700  -7.280  0.00  0.00    -0.271 OA
HETATM    2  H           1     -22.427  -4.012  -6.901  0.00  0.00     0.163 HD
HETATM    3  C           1     -21.431  -5.815  -6.694  0.00  0.00     0.249 C 
HETATM    4  N           1     -21.943  -4.753  -7.392  0.00  0.00    -0.344 N 
ENDROOT
BRANCH   4   5
HETATM    5  C           1     -21.794  -4.692  -8.833  0.00  0.00     0.194 C 
BRANCH   5   6
HETATM    6  C           1     -22.712  -3.613  -9.392  0.00  0.00     0.138 C 
BRANCH   6   7
HETATM    7  C           1     -23.799  -4.255 -10.219  0.00  0.00     0.217 C 
HETATM    8  O           1     -23.601  -4.509 -11.383  0.00  0.00    -0.274 OA
HETATM    9  N           1     -25.008  -4.548  -9.650  0.00  0.00    -0.370 N 
HETATM   10  H           1     -25.174  -4.335  -8.675  0.00  0.00     0.159 HD
HETATM   11  H           1     -25.738  -4.979 -10.205  0.00  0.00     0.159 HD
ENDBRANCH   6   7
ENDBRANCH   5   6
BRANCH   5  12
HETATM   12  C           1     -20.361  -4.363  -9.174  0.00  0.00     0.197 C 
HETATM   13  O           1     -19.689  -3.633  -8.415  0.00  0.00    -0.646 OA
HETATM   14  O           1     -19.847  -4.821 -10.217  0.00  0.00    -0.646 OA
ENDBRANCH   5  12
ENDBRANCH   4   5
BRANCH   3  15
HETATM   15  C           1     -21.587  -5.878  -5.195  0.00  0.00     0.275 C 
BRANCH  15  16
HETATM   16  N           1     -23.013  -6.195  -4.854  0.00  0.00    -0.066 N 
HETATM   17  H           1     -23.040  -6.852  -4.042  0.00  0.00     0.275 HD
HETATM   18  H           1     -23.515  -5.313  -4.604  0.00  0.00     0.275 HD
HETATM   19  H           1     -23.478  -6.638  -5.678  0.00  0.00     0.275 HD
ENDBRANCH  15  16
BRANCH  15  20
HETATM   20  C           1     -20.679  -6.966  -4.635  0.00  0.00     0.053 C 
BRANCH  20  21
HETATM   21  C           1     -21.484  -7.879  -3.721  0.00  0.00     0.076 C 
BRANCH  21  22
HETATM   22  S           1     -20.890  -7.707  -2.015  0.00  0.00    -0.173 SA
HETATM   23  C           1     -22.225  -6.617  -1.447  0.00  0.00     0.089 C 
ENDBRANCH  21  22
ENDBRANCH  20  21
ENDBRANCH  15  20
ENDBRANCH   3  15
TORSDOF 9
ENDMDL
MODEL 6
REMARK VINA RESULT:      -5.1     13.104     15.568
REMARK  9 active torsions:
REMARK  status: ('A' for Active; 'I' for Inactive)
REMARK       I    between atoms: N_4  and  C_21 
REMARK    1  A    between atoms: C_5  and  C_21 
REMARK    2  A    between atoms: C_5  and  C_11 
REMARK    3  A    between atoms: N_6  and  C_12 
REMARK    4  A    between atoms: C_10  and  C_12 
REMARK    5  A    between atoms: C_10  and  C_13 
REMARK    6  A    between atoms: C_11  and  C_18 
REMARK    7  A    between atoms: C_11  and  N_23 
REMARK    8  A    between atoms: C_12  and  C_20 
REMARK    9  A    between atoms: C_13  and  S_19 
REMARK       I    between atoms: C_20  and  N_23 
ROOT
HETATM    1  O           1     -21.909  -7.224  -4.964  0.00  0.00    -0.271 OA
HETATM    2  H           1     -20.510  -4.437  -4.622  0.00  0.00     0.163 HD
HETATM    3  C           1     -21.392  -6.295  -4.390  0.00  0.00     0.249 C 
HETATM    4  N           1     -20.943  -5.215  -5.103  0.00  0.00    -0.344 N 
ENDROOT
BRANCH   4   5
HETATM    5  C           1     -21.089  -5.185  -6.545  0.00  0.00     0.194 C 
BRANCH   5   6
HETATM    6  C           1     -21.507  -3.788  -6.983  0.00  0.00     0.138 C 
BRANCH   6   7
HETATM    7  C           1     -22.425  -3.887  -8.177  0.00  0.00     0.217 C 
HETATM    8  O           1     -21.977  -3.779  -9.294  0.00  0.00    -0.274 OA
HETATM    9  N           1     -23.764  -4.099  -7.995  0.00  0.00    -0.370 N 
HETATM   10  H           1     -24.139  -4.189  -7.059  0.00  0.00     0.159 HD
HETATM   11  H           1     -24.380  -4.166  -8.796  0.00  0.00     0.159 HD
ENDBRANCH   6   7
ENDBRANCH   5   6
BRANCH   5  12
HETATM   12  C           1     -19.773  -5.544  -7.190  0.00  0.00     0.197 C 
HETATM   13  O           1     -19.048  -4.648  -7.671  0.00  0.00    -0.646 OA
HETATM   14  O           1     -19.409  -6.739  -7.241  0.00  0.00    -0.646 OA
ENDBRANCH   5  12
ENDBRANCH   4   5
BRANCH   3  15
HETATM   15  C           1     -21.240  -6.326  -2.889  0.00  0.00     0.275 C 
BRANCH  15  16
HETATM   16  N           1     -22.549  -5.974  -2.247  0.00  0.00    -0.066 N 
HETATM   17  H           1     -22.890  -5.063  -2.629  0.00  0.00     0.275 HD
HETATM   18  H           1     -23.249  -6.721  -2.453  0.00  0.00     0.275 HD
HETATM   19  H           1     -22.419  -5.892  -1.214  0.00  0.00     0.275 HD
ENDBRANCH  15  16
BRANCH  15  20
HETATM   20  C           1     -20.819  -7.722  -2.450  0.00  0.00     0.053 C 
BRANCH  20  21
HETATM   21  C           1     -21.430  -8.032  -1.090  0.00  0.00     0.076 C 
BRANCH  21  22
HETATM   22  S           1     -21.478  -9.829  -0.842  0.00  0.00    -0.173 SA
HETATM   23  C           1     -23.185  -9.901  -0.229  0.00  0.00     0.089 C 
ENDBRANCH  21  22
ENDBRANCH  20  21
ENDBRANCH  15  20
ENDBRANCH   3  15
TORSDOF 9
ENDMDL
MODEL 7
REMARK VINA RESULT:      -5.0      6.040      8.983
REMARK  9 active torsions:
REMARK  status: ('A' for Active; 'I' for Inactive)
REMARK       I    between atoms: N_4  and  C_21 
REMARK    1  A    between atoms: C_5  and  C_21 
REMARK    2  A    between atoms: C_5  and  C_11 
REMARK    3  A    between atoms: N_6  and  C_12 
REMARK    4  A    between atoms: C_10  and  C_12 
REMARK    5  A    between atoms: C_10  and  C_13 
REMARK    6  A    between atoms: C_11  and  C_18 
REMARK    7  A    between atoms: C_11  and  N_23 
REMARK    8  A    between atoms: C_12  and  C_20 
REMARK    9  A    between atoms: C_13  and  S_19 
REMARK       I    between atoms: C_20  and  N_23 
ROOT
HETATM    1  O           1     -31.684  -3.471 -17.348  0.00  0.00    -0.271 OA
HETATM    2  H           1     -32.309  -6.402 -16.419  0.00  0.00     0.163 HD
HETATM    3  C           1     -32.322  -4.383 -16.879  0.00  0.00     0.249 C 
HETATM    4  N           1     -31.775  -5.637 -16.812  0.00  0.00    -0.344 N 
ENDROOT
BRANCH   4   5
HETATM    5  C           1     -30.431  -5.870 -17.303  0.00  0.00     0.194 C 
BRANCH   5   6
HETATM    6  C           1     -29.431  -5.621 -16.182  0.00  0.00     0.138 C 
BRANCH   6   7
HETATM    7  C           1     -28.356  -4.678 -16.665  0.00  0.00     0.217 C 
HETATM    8  O           1     -27.192  -4.978 -16.546  0.00  0.00    -0.274 OA
HETATM    9  N           1     -28.700  -3.484 -17.237  0.00  0.00    -0.370 N 
HETATM   10  H           1     -29.675  -3.233 -17.337  0.00  0.00     0.159 HD
HETATM   11  H           1     -27.979  -2.851 -17.561  0.00  0.00     0.159 HD
ENDBRANCH   6   7
ENDBRANCH   5   6
BRANCH   5  12
HETATM   12  C           1     -30.311  -7.297 -17.778  0.00  0.00     0.197 C 
HETATM   13  O           1     -30.927  -7.670 -18.799  0.00  0.00    -0.646 OA
HETATM   14  O           1     -29.593  -8.106 -17.150  0.00  0.00    -0.646 OA
ENDBRANCH   5  12
ENDBRANCH   4   5
BRANCH   3  15
HETATM   15  C           1     -33.721  -4.142 -16.367  0.00  0.00     0.275 C 
BRANCH  15  16
HETATM   16  N           1     -33.707  -4.117 -14.867  0.00  0.00    -0.066 N 
HETATM   17  H           1     -32.776  -4.443 -14.522  0.00  0.00     0.275 HD
HETATM   18  H           1     -33.879  -3.141 -14.535  0.00  0.00     0.275 HD
HETATM   19  H           1     -34.456  -4.747 -14.501  0.00  0.00     0.275 HD
ENDBRANCH  15  16
BRANCH  15  20
HETATM   20  C           1     -34.230  -2.806 -16.892  0.00  0.00     0.053 C 
BRANCH  20  21
HETATM   21  C           1     -35.139  -2.164 -15.852  0.00  0.00     0.076 C 
BRANCH  21  22
HETATM   22  S           1     -36.116  -0.849 -16.630  0.00  0.00    -0.173 SA
HETATM   23  C           1     -35.783   0.417 -15.373  0.00  0.00     0.089 C 
ENDBRANCH  21  22
ENDBRANCH  20  21
ENDBRANCH  15  20
ENDBRANCH   3  15
TORSDOF 9
ENDMDL
MODEL 8
REMARK VINA RESULT:      -5.0     12.434     14.686
REMARK  9 active torsions:
REMARK  status: ('A' for Active; 'I' for Inactive)
REMARK       I    between atoms: N_4  and  C_21 
REMARK    1  A    between atoms: C_5  and  C_21 
REMARK    2  A    between atoms: C_5  and  C_11 
REMARK    3  A    between atoms: N_6  and  C_12 
REMARK    4  A    between atoms: C_10  and  C_12 
REMARK    5  A    between atoms: C_10  and  C_13 
REMARK    6  A    between atoms: C_11  and  C_18 
REMARK    7  A    between atoms: C_11  and  N_23 
REMARK    8  A    between atoms: C_12  and  C_20 
REMARK    9  A    between atoms: C_13  and  S_19 
REMARK       I    between atoms: C_20  and  N_23 
ROOT
HETATM    1  O           1     -22.643  -5.415  -5.867  0.00  0.00    -0.271 OA
HETATM    2  H           1     -19.889  -6.296  -4.649  0.00  0.00     0.163 HD
HETATM    3  C           1     -21.447  -5.425  -5.698  0.00  0.00     0.249 C 
HETATM    4  N           1     -20.891  -6.288  -4.791  0.00  0.00    -0.344 N 
ENDROOT
BRANCH   4   5
HETATM    5  C           1     -21.738  -7.191  -4.036  0.00  0.00     0.194 C 
BRANCH   5   6
HETATM    6  C           1     -21.287  -8.626  -4.273  0.00  0.00     0.138 C 
BRANCH   6   7
HETATM    7  C           1     -19.845  -8.635  -4.717  0.00  0.00     0.217 C 
HETATM    8  O           1     -19.568  -8.420  -5.872  0.00  0.00    -0.274 OA
HETATM    9  N           1     -18.851  -8.887  -3.810  0.00  0.00    -0.370 N 
HETATM   10  H           1     -19.084  -9.067  -2.842  0.00  0.00     0.159 HD
HETATM   11  H           1     -17.884  -8.892  -4.108  0.00  0.00     0.159 HD
ENDBRANCH   6   7
ENDBRANCH   5   6
BRANCH   5  12
HETATM   12  C           1     -21.633  -6.865  -2.566  0.00  0.00     0.197 C 
HETATM   13  O           1     -22.287  -5.913  -2.088  0.00  0.00    -0.646 OA
HETATM   14  O           1     -20.892  -7.547  -1.827  0.00  0.00    -0.646 OA
ENDBRANCH   5  12
ENDBRANCH   4   5
BRANCH   3  15
HETATM   15  C           1     -20.565  -4.485  -6.484  0.00  0.00     0.275 C 
BRANCH  15  16
HETATM   16  N           1     -19.449  -5.261  -7.118  0.00  0.00    -0.066 N 
HETATM   17  H           1     -19.304  -4.926  -8.097  0.00  0.00     0.275 HD
HETATM   18  H           1     -18.572  -5.121  -6.569  0.00  0.00     0.275 HD
HETATM   19  H           1     -19.694  -6.277  -7.130  0.00  0.00     0.275 HD
ENDBRANCH  15  16
BRANCH  15  20
HETATM   20  C           1     -21.389  -3.804  -7.568  0.00  0.00     0.053 C 
BRANCH  20  21
HETATM   21  C           1     -21.142  -4.493  -8.903  0.00  0.00     0.076 C 
BRANCH  21  22
HETATM   22  S           1     -22.272  -3.819 -10.152  0.00  0.00    -0.173 SA
HETATM   23  C           1     -23.768  -3.890  -9.127  0.00  0.00     0.089 C 
ENDBRANCH  21  22
ENDBRANCH  20  21
ENDBRANCH  15  20
ENDBRANCH   3  15
TORSDOF 9
ENDMDL
MODEL 9
REMARK VINA RESULT:      -4.9     14.811     16.928
REMARK  9 active torsions:
REMARK  status: ('A' for Active; 'I' for Inactive)
REMARK       I    between atoms: N_4  and  C_21 
REMARK    1  A    between atoms: C_5  and  C_21 
REMARK    2  A    between atoms: C_5  and  C_11 
REMARK    3  A    between atoms: N_6  and  C_12 
REMARK    4  A    between atoms: C_10  and  C_12 
REMARK    5  A    between atoms: C_10  and  C_13 
REMARK    6  A    between atoms: C_11  and  C_18 
REMARK    7  A    between atoms: C_11  and  N_23 
REMARK    8  A    between atoms: C_12  and  C_20 
REMARK    9  A    between atoms: C_13  and  S_19 
REMARK       I    between atoms: C_20  and  N_23 
ROOT
HETATM    1  O           1     -19.263  -9.130  -3.214  0.00  0.00    -0.271 OA
HETATM    2  H           1     -22.158  -8.079  -2.619  0.00  0.00     0.163 HD
HETATM    3  C           1     -20.300  -8.540  -3.405  0.00  0.00     0.249 C 
HETATM    4  N           1     -21.290  -8.573  -2.459  0.00  0.00    -0.344 N 
ENDROOT
BRANCH   4   5
HETATM    5  C           1     -21.094  -9.316  -1.229  0.00  0.00     0.194 C 
BRANCH   5   6
HETATM    6  C           1     -21.234  -8.374  -0.041  0.00  0.00     0.138 C 
BRANCH   6   7
HETATM    7  C           1     -22.546  -7.636  -0.133  0.00  0.00     0.217 C 
HETATM    8  O           1     -22.659  -6.698  -0.887  0.00  0.00    -0.274 OA
HETATM    9  N           1     -23.608  -8.028   0.635  0.00  0.00    -0.370 N 
HETATM   10  H           1     -23.513  -8.813   1.266  0.00  0.00     0.159 HD
HETATM   11  H           1     -24.489  -7.532   0.573  0.00  0.00     0.159 HD
ENDBRANCH   6   7
ENDBRANCH   5   6
BRANCH   5  12
HETATM   12  C           1     -22.132 -10.407  -1.132  0.00  0.00     0.197 C 
HETATM   13  O           1     -22.800 -10.726  -2.139  0.00  0.00    -0.646 OA
HETATM   14  O           1     -22.322 -10.993  -0.045  0.00  0.00    -0.646 OA
ENDBRANCH   5  12
ENDBRANCH   4   5
BRANCH   3  15
HETATM   15  C           1     -20.504  -7.767  -4.684  0.00  0.00     0.275 C 
BRANCH  15  16
HETATM   16  N           1     -20.988  -8.696  -5.757  0.00  0.00    -0.066 N 
HETATM   17  H           1     -21.123  -9.652  -5.356  0.00  0.00     0.275 HD
HETATM   18  H           1     -21.898  -8.347  -6.136  0.00  0.00     0.275 HD
HETATM   19  H           1     -20.284  -8.737  -6.528  0.00  0.00     0.275 HD
ENDBRANCH  15  16
BRANCH  15  20
HETATM   20  C           1     -21.538  -6.672  -4.457  0.00  0.00     0.053 C 
BRANCH  20  21
HETATM   21  C           1     -21.750  -5.898  -5.751  0.00  0.00     0.076 C 
BRANCH  21  22
HETATM   22  S           1     -20.359  -4.764  -6.015  0.00  0.00    -0.173 SA
HETATM   23  C           1     -21.196  -3.698  -7.223  0.00  0.00     0.089 C 
ENDBRANCH  21  22
ENDBRANCH  20  21
ENDBRANCH  15  20
ENDBRANCH   3  15
TORSDOF 9
ENDMDL
