MODEL 1
REMARK VINA RESULT:      -6.4      0.000      0.000
REMARK  9 active torsions:
REMARK  status: ('A' for Active; 'I' for Inactive)
REMARK    1  A    between atoms: C_1  and  C_15 
REMARK    2  A    between atoms: N_3  and  C_19 
REMARK    3  A    between atoms: C_8  and  C_17 
REMARK    4  A    between atoms: C_8  and  C_9 
REMARK    5  A    between atoms: C_9  and  C_10 
REMARK    6  A    between atoms: C_9  and  N_22 
REMARK    7  A    between atoms: C_15  and  C_21 
REMARK       I    between atoms: C_18  and  N_22 
REMARK    8  A    between atoms: C_18  and  C_19 
REMARK    9  A    between atoms: C_19  and  C_21 
ROOT
HETATM    1  O           1     -33.602  -2.189 -10.850  0.00  0.00    -0.271 OA
HETATM    2  H           1     -36.146  -2.347 -12.678  0.00  0.00     0.163 HD
HETATM    3  C           1     -34.440  -2.692 -11.560  0.00  0.00     0.249 C 
HETATM    4  N           1     -35.445  -1.925 -12.083  0.00  0.00    -0.344 N 
ENDROOT
BRANCH   3   5
HETATM    5  C           1     -34.376  -4.167 -11.872  0.00  0.00     0.275 C 
BRANCH   5   6
HETATM    6  N           1     -33.224  -4.434 -12.795  0.00  0.00    -0.066 N 
HETATM    7  H           1     -33.273  -5.419 -13.139  0.00  0.00     0.275 HD
HETATM    8  H           1     -33.269  -3.778 -13.607  0.00  0.00     0.275 HD
HETATM    9  H           1     -32.325  -4.289 -12.280  0.00  0.00     0.275 HD
ENDBRANCH   5   6
BRANCH   5  10
HETATM   10  C           1     -34.184  -4.952 -10.582  0.00  0.00     0.053 C 
BRANCH  10  11
HETATM   11  C           1     -33.630  -6.334 -10.905  0.00  0.00     0.115 C 
BRANCH  11  12
HETATM   12  C           1     -34.402  -7.379 -10.138  0.00  0.00     0.172 C 
HETATM   13  O           1     -35.432  -7.057  -9.507  0.00  0.00    -0.648 OA
HETATM   14  O           1     -34.012  -8.566 -10.133  0.00  0.00    -0.648 OA
ENDBRANCH  11  12
ENDBRANCH  10  11
ENDBRANCH   5  10
ENDBRANCH   3   5
BRANCH   4  15
HETATM   15  C           1     -35.506  -0.507 -11.783  0.00  0.00     0.195 C 
BRANCH  15  16
HETATM   16  C           1     -35.649   0.279 -13.080  0.00  0.00     0.149 C 
BRANCH  16  17
HETATM   17  C           1     -36.147  -0.636 -14.171  0.00  0.00     0.175 C 
HETATM   18  O           1     -35.334  -1.201 -14.934  0.00  0.00    -0.648 OA
HETATM   19  O           1     -37.375  -0.829 -14.313  0.00  0.00    -0.648 OA
ENDBRANCH  16  17
ENDBRANCH  15  16
BRANCH  15  20
HETATM   20  C           1     -36.694  -0.232 -10.894  0.00  0.00     0.197 C 
HETATM   21  O           1     -36.659   0.716 -10.081  0.00  0.00    -0.646 OA
HETATM   22  O           1     -37.711  -0.953 -10.970  0.00  0.00    -0.646 OA
ENDBRANCH  15  20
ENDBRANCH   4  15
TORSDOF 9
ENDMDL
MODEL 2
REMARK VINA RESULT:      -6.2     12.235     13.996
REMARK  9 active torsions:
REMARK  status: ('A' for Active; 'I' for Inactive)
REMARK    1  A    between atoms: C_1  and  C_15 
REMARK    2  A    between atoms: N_3  and  C_19 
REMARK    3  A    between atoms: C_8  and  C_17 
REMARK    4  A    between atoms: C_8  and  C_9 
REMARK    5  A    between atoms: C_9  and  C_10 
REMARK    6  A    between atoms: C_9  and  N_22 
REMARK    7  A    between atoms: C_15  and  C_21 
REMARK       I    between atoms: C_18  and  N_22 
REMARK    8  A    between atoms: C_18  and  C_19 
REMARK    9  A    between atoms: C_19  and  C_21 
ROOT
HETATM    1  O           1     -20.618  -5.412  -8.491  0.00  0.00    -0.271 OA
HETATM    2  H           1     -23.142  -3.634  -9.043  0.00  0.00     0.163 HD
HETATM    3  C           1     -21.573  -4.718  -8.239  0.00  0.00     0.249 C 
HETATM    4  N           1     -22.341  -4.215  -9.254  0.00  0.00    -0.344 N 
ENDROOT
BRANCH   3   5
HETATM    5  C           1     -21.921  -4.406  -6.804  0.00  0.00     0.275 C 
BRANCH   5   6
HETATM    6  N           1     -23.400  -4.556  -6.604  0.00  0.00    -0.066 N 
HETATM    7  H           1     -23.902  -4.241  -7.464  0.00  0.00     0.275 HD
HETATM    8  H           1     -23.626  -5.559  -6.416  0.00  0.00     0.275 HD
HETATM    9  H           1     -23.702  -3.972  -5.791  0.00  0.00     0.275 HD
ENDBRANCH   5   6
BRANCH   5  10
HETATM   10  C           1     -21.184  -5.367  -5.881  0.00  0.00     0.053 C 
BRANCH  10  11
HETATM   11  C           1     -22.184  -6.318  -5.236  0.00  0.00     0.115 C 
BRANCH  11  12
HETATM   12  C           1     -21.774  -6.589  -3.810  0.00  0.00     0.172 C 
HETATM   13  O           1     -20.858  -7.404  -3.566  0.00  0.00    -0.648 OA
HETATM   14  O           1     -22.349  -5.997  -2.871  0.00  0.00    -0.648 OA
ENDBRANCH  11  12
ENDBRANCH  10  11
ENDBRANCH   5  10
ENDBRANCH   3   5
BRANCH   4  15
HETATM   15  C           1     -22.007  -4.516 -10.633  0.00  0.00     0.195 C 
BRANCH  15  16
HETATM   16  C           1     -23.287  -4.744 -11.426  0.00  0.00     0.149 C 
BRANCH  16  17
HETATM   17  C           1     -24.469  -4.254 -10.627  0.00  0.00     0.175 C 
HETATM   18  O           1     -24.982  -4.988  -9.755  0.00  0.00    -0.648 OA
HETATM   19  O           1     -24.936  -3.113 -10.836  0.00  0.00    -0.648 OA
ENDBRANCH  16  17
ENDBRANCH  15  16
BRANCH  15  20
HETATM   20  C           1     -21.245  -3.357 -11.229  0.00  0.00     0.197 C 
HETATM   21  O           1     -21.864  -2.390 -11.723  0.00  0.00    -0.646 OA
HETATM   22  O           1     -19.996  -3.365 -11.229  0.00  0.00    -0.646 OA
ENDBRANCH  15  20
ENDBRANCH   4  15
TORSDOF 9
ENDMDL
MODEL 3
REMARK VINA RESULT:      -5.9     12.618     14.300
REMARK  9 active torsions:
REMARK  status: ('A' for Active; 'I' for Inactive)
REMARK    1  A    between atoms: C_1  and  C_15 
REMARK    2  A    between atoms: N_3  and  C_19 
REMARK    3  A    between atoms: C_8  and  C_17 
REMARK    4  A    between atoms: C_8  and  C_9 
REMARK    5  A    between atoms: C_9  and  C_10 
REMARK    6  A    between atoms: C_9  and  N_22 
REMARK    7  A    between atoms: C_15  and  C_21 
REMARK       I    between atoms: C_18  and  N_22 
REMARK    8  A    between atoms: C_18  and  C_19 
REMARK    9  A    between atoms: C_19  and  C_21 
ROOT
HETATM    1  O           1     -21.798  -3.658  -7.479  0.00  0.00    -0.271 OA
HETATM    2  H           1     -22.459  -5.916  -9.553  0.00  0.00     0.163 HD
HETATM    3  C           1     -21.875  -4.777  -7.927  0.00  0.00     0.249 C 
HETATM    4  N           1     -22.395  -4.979  -9.177  0.00  0.00    -0.344 N 
ENDROOT
BRANCH   3   5
HETATM    5  C           1     -21.399  -5.951  -7.109  0.00  0.00     0.275 C 
BRANCH   5   6
HETATM    6  N           1     -19.920  -6.125  -7.298  0.00  0.00    -0.066 N 
HETATM    7  H           1     -19.544  -5.330  -7.860  0.00  0.00     0.275 HD
HETATM    8  H           1     -19.450  -6.145  -6.365  0.00  0.00     0.275 HD
HETATM    9  H           1     -19.738  -7.024  -7.800  0.00  0.00     0.275 HD
ENDBRANCH   5   6
BRANCH   5  10
HETATM   10  C           1     -21.695  -5.700  -5.637  0.00  0.00     0.053 C 
BRANCH  10  11
HETATM   11  C           1     -20.820  -6.607  -4.780  0.00  0.00     0.115 C 
BRANCH  11  12
HETATM   12  C           1     -21.426  -6.738  -3.404  0.00  0.00     0.172 C 
HETATM   13  O           1     -20.982  -7.589  -2.604  0.00  0.00    -0.648 OA
HETATM   14  O           1     -22.372  -5.995  -3.064  0.00  0.00    -0.648 OA
ENDBRANCH  11  12
ENDBRANCH  10  11
ENDBRANCH   5  10
ENDBRANCH   3   5
BRANCH   4  15
HETATM   15  C           1     -22.852  -3.850  -9.963  0.00  0.00     0.195 C 
BRANCH  15  16
HETATM   16  C           1     -22.150  -3.855 -11.314  0.00  0.00     0.149 C 
BRANCH  16  17
HETATM   17  C           1     -20.665  -3.677 -11.111  0.00  0.00     0.175 C 
HETATM   18  O           1     -20.151  -2.543 -11.222  0.00  0.00    -0.648 OA
HETATM   19  O           1     -19.949  -4.663 -10.832  0.00  0.00    -0.648 OA
ENDBRANCH  16  17
ENDBRANCH  15  16
BRANCH  15  20
HETATM   20  C           1     -24.344  -3.953 -10.170  0.00  0.00     0.197 C 
HETATM   21  O           1     -24.984  -4.889  -9.644  0.00  0.00    -0.646 OA
HETATM   22  O           1     -24.938  -3.103 -10.867  0.00  0.00    -0.646 OA
ENDBRANCH  15  20
ENDBRANCH   4  15
TORSDOF 9
ENDMDL
MODEL 4
REMARK VINA RESULT:      -5.9      2.272      5.594
REMARK  9 active torsions:
REMARK  status: ('A' for Active; 'I' for Inactive)
REMARK    1  A    between atoms: C_1  and  C_15 
REMARK    2  A    between atoms: N_3  and  C_19 
REMARK    3  A    between atoms: C_8  and  C_17 
REMARK    4  A    between atoms: C_8  and  C_9 
REMARK    5  A    between atoms: C_9  and  C_10 
REMARK    6  A    between atoms: C_9  and  N_22 
REMARK    7  A    between atoms: C_15  and  C_21 
REMARK       I    between atoms: C_18  and  N_22 
REMARK    8  A    between atoms: C_18  and  C_19 
REMARK    9  A    between atoms: C_19  and  C_21 
ROOT
HETATM    1  O           1     -37.031  -0.984 -13.318  0.00  0.00    -0.271 OA
HETATM    2  H           1     -33.908  -1.064 -13.598  0.00  0.00     0.163 HD
HETATM    3  C           1     -35.938  -0.688 -13.739  0.00  0.00     0.249 C 
HETATM    4  N           1     -34.824  -1.311 -13.245  0.00  0.00    -0.344 N 
ENDROOT
BRANCH   3   5
HETATM    5  C           1     -35.802   0.367 -14.808  0.00  0.00     0.275 C 
BRANCH   5   6
HETATM    6  N           1     -35.201   1.607 -14.213  0.00  0.00    -0.066 N 
HETATM    7  H           1     -35.203   1.530 -13.171  0.00  0.00     0.275 HD
HETATM    8  H           1     -34.219   1.716 -14.552  0.00  0.00     0.275 HD
HETATM    9  H           1     -35.765   2.439 -14.502  0.00  0.00     0.275 HD
ENDBRANCH   5   6
BRANCH   5  10
HETATM   10  C           1     -34.900  -0.149 -15.921  0.00  0.00     0.053 C 
BRANCH  10  11
HETATM   11  C           1     -35.567  -1.333 -16.608  0.00  0.00     0.115 C 
BRANCH  11  12
HETATM   12  C           1     -34.618  -2.505 -16.627  0.00  0.00     0.172 C 
HETATM   13  O           1     -33.717  -2.566 -17.491  0.00  0.00    -0.648 OA
HETATM   14  O           1     -34.731  -3.415 -15.777  0.00  0.00    -0.648 OA
ENDBRANCH  11  12
ENDBRANCH  10  11
ENDBRANCH   5  10
ENDBRANCH   3   5
BRANCH   4  15
HETATM   15  C           1     -34.955  -2.325 -12.217  0.00  0.00     0.195 C 
BRANCH  15  16
HETATM   16  C           1     -33.977  -3.459 -12.496  0.00  0.00     0.149 C 
BRANCH  16  17
HETATM   17  C           1     -34.626  -4.779 -12.156  0.00  0.00     0.175 C 
HETATM   18  O           1     -35.202  -5.440 -13.046  0.00  0.00    -0.648 OA
HETATM   19  O           1     -34.588  -5.210 -10.983  0.00  0.00    -0.648 OA
ENDBRANCH  16  17
ENDBRANCH  15  16
BRANCH  15  20
HETATM   20  C           1     -34.650  -1.718 -10.870  0.00  0.00     0.197 C 
HETATM   21  O           1     -33.503  -1.817 -10.385  0.00  0.00    -0.646 OA
HETATM   22  O           1     -35.546  -1.115 -10.240  0.00  0.00    -0.646 OA
ENDBRANCH  15  20
ENDBRANCH   4  15
TORSDOF 9
ENDMDL
MODEL 5
REMARK VINA RESULT:      -5.6     13.118     15.949
REMARK  9 active torsions:
REMARK  status: ('A' for Active; 'I' for Inactive)
REMARK    1  A    between atoms: C_1  and  C_15 
REMARK    2  A    between atoms: N_3  and  C_19 
REMARK    3  A    between atoms: C_8  and  C_17 
REMARK    4  A    between atoms: C_8  and  C_9 
REMARK    5  A    between atoms: C_9  and  C_10 
REMARK    6  A    between atoms: C_9  and  N_22 
REMARK    7  A    between atoms: C_15  and  C_21 
REMARK       I    between atoms: C_18  and  N_22 
REMARK    8  A    between atoms: C_18  and  C_19 
REMARK    9  A    between atoms: C_19  and  C_21 
ROOT
HETATM    1  O           1     -19.841  -4.440  -6.303  0.00  0.00    -0.271 OA
HETATM    2  H           1     -22.374  -6.201  -6.869  0.00  0.00     0.163 HD
HETATM    3  C           1     -20.844  -4.807  -6.866  0.00  0.00     0.249 C 
HETATM    4  N           1     -21.533  -5.893  -6.397  0.00  0.00    -0.344 N 
ENDROOT
BRANCH   3   5
HETATM    5  C           1     -21.337  -4.070  -8.086  0.00  0.00     0.275 C 
BRANCH   5   6
HETATM    6  N           1     -20.238  -3.999  -9.105  0.00  0.00    -0.066 N 
HETATM    7  H           1     -20.470  -4.619  -9.913  0.00  0.00     0.275 HD
HETATM    8  H           1     -20.136  -3.014  -9.439  0.00  0.00     0.275 HD
HETATM    9  H           1     -19.341  -4.314  -8.671  0.00  0.00     0.275 HD
ENDBRANCH   5   6
BRANCH   5  10
HETATM   10  C           1     -22.530  -4.805  -8.679  0.00  0.00     0.053 C 
BRANCH  10  11
HETATM   11  C           1     -23.705  -3.844  -8.814  0.00  0.00     0.115 C 
BRANCH  11  12
HETATM   12  C           1     -23.867  -3.447 -10.260  0.00  0.00     0.172 C 
HETATM   13  O           1     -22.863  -3.342 -10.996  0.00  0.00    -0.648 OA
HETATM   14  O           1     -25.007  -3.225 -10.723  0.00  0.00    -0.648 OA
ENDBRANCH  11  12
ENDBRANCH  10  11
ENDBRANCH   5  10
ENDBRANCH   3   5
BRANCH   4  15
HETATM   15  C           1     -21.059  -6.602  -5.225  0.00  0.00     0.195 C 
BRANCH  15  16
HETATM   16  C           1     -22.213  -6.804  -4.253  0.00  0.00     0.149 C 
BRANCH  16  17
HETATM   17  C           1     -21.720  -6.615  -2.839  0.00  0.00     0.175 C 
HETATM   18  O           1     -20.780  -7.316  -2.406  0.00  0.00    -0.648 OA
HETATM   19  O           1     -22.251  -5.757  -2.101  0.00  0.00    -0.648 OA
ENDBRANCH  16  17
ENDBRANCH  15  16
BRANCH  15  20
HETATM   20  C           1     -20.508  -7.945  -5.639  0.00  0.00     0.197 C 
HETATM   21  O           1     -19.278  -8.093  -5.802  0.00  0.00    -0.646 OA
HETATM   22  O           1     -21.283  -8.909  -5.818  0.00  0.00    -0.646 OA
ENDBRANCH  15  20
ENDBRANCH   4  15
TORSDOF 9
ENDMDL
MODEL 6
REMARK VINA RESULT:      -5.5     13.855     16.633
REMARK  9 active torsions:
REMARK  status: ('A' for Active; 'I' for Inactive)
REMARK    1  A    between atoms: C_1  and  C_15 
REMARK    2  A    between atoms: N_3  and  C_19 
REMARK    3  A    between atoms: C_8  and  C_17 
REMARK    4  A    between atoms: C_8  and  C_9 
REMARK    5  A    between atoms: C_9  and  C_10 
REMARK    6  A    between atoms: C_9  and  N_22 
REMARK    7  A    between atoms: C_15  and  C_21 
REMARK       I    between atoms: C_18  and  N_22 
REMARK    8  A    between atoms: C_18  and  C_19 
REMARK    9  A    between atoms: C_19  and  C_21 
ROOT
HETATM    1  O           1     -22.549  -5.676  -5.622  0.00  0.00    -0.271 OA
HETATM    2  H           1     -19.829  -6.892  -4.641  0.00  0.00     0.163 HD
HETATM    3  C           1     -21.354  -5.846  -5.570  0.00  0.00     0.249 C 
HETATM    4  N           1     -20.830  -6.749  -4.684  0.00  0.00    -0.344 N 
ENDROOT
BRANCH   3   5
HETATM    5  C           1     -20.441  -5.064  -6.480  0.00  0.00     0.275 C 
BRANCH   5   6
HETATM    6  N           1     -19.919  -5.967  -7.560  0.00  0.00    -0.066 N 
HETATM    7  H           1     -19.090  -5.524  -8.015  0.00  0.00     0.275 HD
HETATM    8  H           1     -19.640  -6.883  -7.143  0.00  0.00     0.275 HD
HETATM    9  H           1     -20.667  -6.122  -8.274  0.00  0.00     0.275 HD
ENDBRANCH   5   6
BRANCH   5  10
HETATM   10  C           1     -21.213  -3.914  -7.111  0.00  0.00     0.053 C 
BRANCH  10  11
HETATM   11  C           1     -21.238  -4.087  -8.624  0.00  0.00     0.115 C 
BRANCH  11  12
HETATM   12  C           1     -22.644  -3.882  -9.132  0.00  0.00     0.172 C 
HETATM   13  O           1     -22.834  -3.450 -10.289  0.00  0.00    -0.648 OA
HETATM   14  O           1     -23.619  -4.144  -8.395  0.00  0.00    -0.648 OA
ENDBRANCH  11  12
ENDBRANCH  10  11
ENDBRANCH   5  10
ENDBRANCH   3   5
BRANCH   4  15
HETATM   15  C           1     -21.708  -7.500  -3.809  0.00  0.00     0.195 C 
BRANCH  15  16
HETATM   16  C           1     -21.257  -8.954  -3.763  0.00  0.00     0.149 C 
BRANCH  16  17
HETATM   17  C           1     -19.961  -9.102  -4.523  0.00  0.00     0.175 C 
HETATM   18  O           1     -19.978  -9.379  -5.741  0.00  0.00    -0.648 OA
HETATM   19  O           1     -18.869  -8.948  -3.932  0.00  0.00    -0.648 OA
ENDBRANCH  16  17
ENDBRANCH  15  16
BRANCH  15  20
HETATM   20  C           1     -21.656  -6.913  -2.420  0.00  0.00     0.197 C 
HETATM   21  O           1     -22.298  -5.873  -2.156  0.00  0.00    -0.646 OA
HETATM   22  O           1     -20.969  -7.465  -1.533  0.00  0.00    -0.646 OA
ENDBRANCH  15  20
ENDBRANCH   4  15
TORSDOF 9
ENDMDL
MODEL 7
REMARK VINA RESULT:      -5.5      1.730      6.280
REMARK  9 active torsions:
REMARK  status: ('A' for Active; 'I' for Inactive)
REMARK    1  A    between atoms: C_1  and  C_15 
REMARK    2  A    between atoms: N_3  and  C_19 
REMARK    3  A    between atoms: C_8  and  C_17 
REMARK    4  A    between atoms: C_8  and  C_9 
REMARK    5  A    between atoms: C_9  and  C_10 
REMARK    6  A    between atoms: C_9  and  N_22 
REMARK    7  A    between atoms: C_15  and  C_21 
REMARK       I    between atoms: C_18  and  N_22 
REMARK    8  A    between atoms: C_18  and  C_19 
REMARK    9  A    between atoms: C_19  and  C_21 
ROOT
HETATM    1  O           1     -34.084  -1.826 -10.261  0.00  0.00    -0.271 OA
HETATM    2  H           1     -36.234  -3.443 -11.874  0.00  0.00     0.163 HD
HETATM    3  C           1     -35.127  -2.039 -10.832  0.00  0.00     0.249 C 
HETATM    4  N           1     -35.360  -3.264 -11.396  0.00  0.00    -0.344 N 
ENDROOT
BRANCH   3   5
HETATM    5  C           1     -36.172  -0.955 -10.923  0.00  0.00     0.275 C 
BRANCH   5   6
HETATM    6  N           1     -36.302  -0.274  -9.593  0.00  0.00    -0.066 N 
HETATM    7  H           1     -35.718   0.592  -9.585  0.00  0.00     0.275 HD
HETATM    8  H           1     -37.303  -0.021  -9.428  0.00  0.00     0.275 HD
HETATM    9  H           1     -35.977  -0.920  -8.838  0.00  0.00     0.275 HD
ENDBRANCH   5   6
BRANCH   5  10
HETATM   10  C           1     -35.757   0.065 -11.976  0.00  0.00     0.053 C 
BRANCH  10  11
HETATM   11  C           1     -36.439  -0.264 -13.298  0.00  0.00     0.115 C 
BRANCH  11  12
HETATM   12  C           1     -35.395  -0.448 -14.371  0.00  0.00     0.172 C 
HETATM   13  O           1     -34.543   0.444 -14.573  0.00  0.00    -0.648 OA
HETATM   14  O           1     -35.382  -1.492 -15.058  0.00  0.00    -0.648 OA
ENDBRANCH  11  12
ENDBRANCH  10  11
ENDBRANCH   5  10
ENDBRANCH   3   5
BRANCH   4  15
HETATM   15  C           1     -34.355  -4.306 -11.308  0.00  0.00     0.195 C 
BRANCH  15  16
HETATM   16  C           1     -35.016  -5.665 -11.498  0.00  0.00     0.149 C 
BRANCH  16  17
HETATM   17  C           1     -34.444  -6.646 -10.503  0.00  0.00     0.175 C 
HETATM   18  O           1     -35.152  -7.067  -9.563  0.00  0.00    -0.648 OA
HETATM   19  O           1     -33.263  -7.037 -10.620  0.00  0.00    -0.648 OA
ENDBRANCH  16  17
ENDBRANCH  15  16
BRANCH  15  20
HETATM   20  C           1     -33.318  -4.096 -12.384  0.00  0.00     0.197 C 
HETATM   21  O           1     -32.107  -4.261 -12.125  0.00  0.00    -0.646 OA
HETATM   22  O           1     -33.671  -3.756 -13.534  0.00  0.00    -0.646 OA
ENDBRANCH  15  20
ENDBRANCH   4  15
TORSDOF 9
ENDMDL
MODEL 8
REMARK VINA RESULT:      -5.3     14.838     17.606
REMARK  9 active torsions:
REMARK  status: ('A' for Active; 'I' for Inactive)
REMARK    1  A    between atoms: C_1  and  C_15 
REMARK    2  A    between atoms: N_3  and  C_19 
REMARK    3  A    between atoms: C_8  and  C_17 
REMARK    4  A    between atoms: C_8  and  C_9 
REMARK    5  A    between atoms: C_9  and  C_10 
REMARK    6  A    between atoms: C_9  and  N_22 
REMARK    7  A    between atoms: C_15  and  C_21 
REMARK       I    between atoms: C_18  and  N_22 
REMARK    8  A    between atoms: C_18  and  C_19 
REMARK    9  A    between atoms: C_19  and  C_21 
ROOT
HETATM    1  O           1     -19.725  -8.190  -4.181  0.00  0.00    -0.271 OA
HETATM    2  H           1     -22.610  -8.013  -2.964  0.00  0.00     0.163 HD
HETATM    3  C           1     -20.902  -7.923  -4.128  0.00  0.00     0.249 C 
HETATM    4  N           1     -21.625  -8.238  -3.009  0.00  0.00    -0.344 N 
ENDROOT
BRANCH   3   5
HETATM    5  C           1     -21.574  -7.241  -5.294  0.00  0.00     0.275 C 
BRANCH   5   6
HETATM    6  N           1     -22.595  -6.268  -4.783  0.00  0.00    -0.066 N 
HETATM    7  H           1     -22.117  -5.509  -4.247  0.00  0.00     0.275 HD
HETATM    8  H           1     -23.114  -5.852  -5.589  0.00  0.00     0.275 HD
HETATM    9  H           1     -23.267  -6.767  -4.156  0.00  0.00     0.275 HD
ENDBRANCH   5   6
BRANCH   5  10
HETATM   10  C           1     -20.533  -6.497  -6.118  0.00  0.00     0.053 C 
BRANCH  10  11
HETATM   11  C           1     -20.592  -5.010  -5.790  0.00  0.00     0.115 C 
BRANCH  11  12
HETATM   12  C           1     -21.109  -4.250  -6.986  0.00  0.00     0.172 C 
HETATM   13  O           1     -20.311  -3.655  -7.741  0.00  0.00    -0.648 OA
HETATM   14  O           1     -22.336  -4.217  -7.223  0.00  0.00    -0.648 OA
ENDBRANCH  11  12
ENDBRANCH  10  11
ENDBRANCH   5  10
ENDBRANCH   3   5
BRANCH   4  15
HETATM   15  C           1     -20.978  -8.892  -1.889  0.00  0.00     0.195 C 
BRANCH  15  16
HETATM   16  C           1     -21.058  -7.994  -0.662  0.00  0.00     0.149 C 
BRANCH  16  17
HETATM   17  C           1     -22.320  -7.168  -0.723  0.00  0.00     0.175 C 
HETATM   18  O           1     -22.343  -6.110  -1.387  0.00  0.00    -0.648 OA
HETATM   19  O           1     -23.343  -7.544  -0.110  0.00  0.00    -0.648 OA
ENDBRANCH  16  17
ENDBRANCH  15  16
BRANCH  15  20
HETATM   20  C           1     -21.675 -10.200  -1.602  0.00  0.00     0.197 C 
HETATM   21  O           1     -22.628 -10.571  -2.320  0.00  0.00    -0.646 OA
HETATM   22  O           1     -21.299 -10.911  -0.645  0.00  0.00    -0.646 OA
ENDBRANCH  15  20
ENDBRANCH   4  15
TORSDOF 9
ENDMDL
MODEL 9
REMARK VINA RESULT:      -5.3      2.429      6.379
REMARK  9 active torsions:
REMARK  status: ('A' for Active; 'I' for Inactive)
REMARK    1  A    between atoms: C_1  and  C_15 
REMARK    2  A    between atoms: N_3  and  C_19 
REMARK    3  A    between atoms: C_8  and  C_17 
REMARK    4  A    between atoms: C_8  and  C_9 
REMARK    5  A    between atoms: C_9  and  C_10 
REMARK    6  A    between atoms: C_9  and  N_22 
REMARK    7  A    between atoms: C_15  and  C_21 
REMARK       I    between atoms: C_18  and  N_22 
REMARK    8  A    between atoms: C_18  and  C_19 
REMARK    9  A    between atoms: C_19  and  C_21 
ROOT
HETATM    1  O           1     -35.060  -2.079 -14.213  0.00  0.00    -0.271 OA
HETATM    2  H           1     -35.118  -1.500 -11.131  0.00  0.00     0.163 HD
HETATM    3  C           1     -35.201  -1.440 -13.198  0.00  0.00     0.249 C 
HETATM    4  N           1     -35.001  -2.035 -11.982  0.00  0.00    -0.344 N 
ENDROOT
BRANCH   3   5
HETATM    5  C           1     -35.597   0.014 -13.271  0.00  0.00     0.275 C 
BRANCH   5   6
HETATM    6  N           1     -35.373   0.660 -11.935  0.00  0.00    -0.066 N 
HETATM    7  H           1     -35.107   1.661 -12.072  0.00  0.00     0.275 HD
HETATM    8  H           1     -36.251   0.607 -11.371  0.00  0.00     0.275 HD
HETATM    9  H           1     -34.604   0.161 -11.433  0.00  0.00     0.275 HD
ENDBRANCH   5   6
BRANCH   5  10
HETATM   10  C           1     -34.754   0.719 -14.323  0.00  0.00     0.053 C 
BRANCH  10  11
HETATM   11  C           1     -35.662   1.510 -15.256  0.00  0.00     0.115 C 
BRANCH  11  12
HETATM   12  C           1     -36.575   0.563 -15.994  0.00  0.00     0.172 C 
HETATM   13  O           1     -36.093  -0.326 -16.728  0.00  0.00    -0.648 OA
HETATM   14  O           1     -37.815   0.666 -15.870  0.00  0.00    -0.648 OA
ENDBRANCH  11  12
ENDBRANCH  10  11
ENDBRANCH   5  10
ENDBRANCH   3   5
BRANCH   4  15
HETATM   15  C           1     -34.620  -3.432 -11.912  0.00  0.00     0.195 C 
BRANCH  15  16
HETATM   16  C           1     -33.156  -3.539 -11.505  0.00  0.00     0.149 C 
BRANCH  16  17
HETATM   17  C           1     -32.408  -4.361 -12.526  0.00  0.00     0.175 C 
HETATM   18  O           1     -31.419  -5.041 -12.178  0.00  0.00    -0.648 OA
HETATM   19  O           1     -32.778  -4.361 -13.721  0.00  0.00    -0.648 OA
ENDBRANCH  16  17
ENDBRANCH  15  16
BRANCH  15  20
HETATM   20  C           1     -35.479  -4.137 -10.891  0.00  0.00     0.197 C 
HETATM   21  O           1     -35.118  -5.238 -10.423  0.00  0.00    -0.646 OA
HETATM   22  O           1     -36.552  -3.619 -10.514  0.00  0.00    -0.646 OA
ENDBRANCH  15  20
ENDBRANCH   4  15
TORSDOF 9
ENDMDL
