MODEL 1
REMARK VINA RESULT:      -6.2      0.000      0.000
REMARK  8 active torsions:
REMARK  status: ('A' for Active; 'I' for Inactive)
REMARK    1  A    between atoms: C_2  and  C_16 
REMARK    2  A    between atoms: C_2  and  C_3 
REMARK    3  A    between atoms: C_2  and  N_19 
REMARK    4  A    between atoms: O_7  and  C_8 
REMARK    5  A    between atoms: C_8  and  C_17 
REMARK    6  A    between atoms: O_11  and  C_16 
REMARK    7  A    between atoms: N_15  and  C_17 
REMARK    8  A    between atoms: C_17  and  C_20 
REMARK       I    between atoms: N_19  and  C_20 
ROOT
HETATM    1  H           1     -22.168  -5.776  -9.584  0.00  0.00     0.163 HD
HETATM    2  O           1     -21.744  -3.566  -7.398  0.00  0.00    -0.271 OA
HETATM    3  N           1     -22.168  -4.850  -9.176  0.00  0.00    -0.342 N 
HETATM    4  C           1     -21.743  -4.671  -7.886  0.00  0.00     0.251 C 
ENDROOT
BRANCH   4   5
HETATM    5  C           1     -21.274  -5.854  -7.075  0.00  0.00     0.302 C 
BRANCH   5   6
HETATM    6  C           1     -21.399  -5.534  -5.591  0.00  0.00     0.153 C 
HETATM    7  C           1     -21.437  -6.831  -4.794  0.00  0.00     0.042 C 
BRANCH   6   8
HETATM    8  O           1     -20.298  -4.768  -5.184  0.00  0.00    -0.393 OA
HETATM    9  H           1     -20.613  -3.892  -5.040  0.00  0.00     0.210 HD
ENDBRANCH   6   8
ENDBRANCH   5   6
BRANCH   5  10
HETATM   10  N           1     -19.841  -6.148  -7.404  0.00  0.00    -0.064 N 
HETATM   11  H           1     -19.675  -5.985  -8.422  0.00  0.00     0.275 HD
HETATM   12  H           1     -19.219  -5.520  -6.846  0.00  0.00     0.275 HD
HETATM   13  H           1     -19.629  -7.145  -7.171  0.00  0.00     0.275 HD
ENDBRANCH   5  10
ENDBRANCH   4   5
BRANCH   3  14
HETATM   14  C           1     -22.618  -3.714  -9.955  0.00  0.00     0.214 C 
BRANCH  14  15
HETATM   15  C           1     -21.847  -3.661 -11.267  0.00  0.00     0.147 C 
HETATM   16  C           1     -20.427  -4.164 -11.041  0.00  0.00     0.042 C 
BRANCH  15  17
HETATM   17  O           1     -22.485  -4.473 -12.216  0.00  0.00    -0.393 OA
HETATM   18  H           1     -22.536  -3.973 -13.013  0.00  0.00     0.210 HD
ENDBRANCH  15  17
ENDBRANCH  14  15
BRANCH  14  19
HETATM   19  C           1     -24.092  -3.854 -10.243  0.00  0.00     0.199 C 
HETATM   20  O           1     -24.709  -2.929 -10.814  0.00  0.00    -0.646 OA
HETATM   21  O           1     -24.698  -4.897  -9.911  0.00  0.00    -0.646 OA
ENDBRANCH  14  19
ENDBRANCH   3  14
TORSDOF 8
ENDMDL
MODEL 2
REMARK VINA RESULT:      -4.9      2.173      5.423
REMARK  8 active torsions:
REMARK  status: ('A' for Active; 'I' for Inactive)
REMARK    1  A    between atoms: C_2  and  C_16 
REMARK    2  A    between atoms: C_2  and  C_3 
REMARK    3  A    between atoms: C_2  and  N_19 
REMARK    4  A    between atoms: O_7  and  C_8 
REMARK    5  A    between atoms: C_8  and  C_17 
REMARK    6  A    between atoms: O_11  and  C_16 
REMARK    7  A    between atoms: N_15  and  C_17 
REMARK    8  A    between atoms: C_17  and  C_20 
REMARK       I    between atoms: N_19  and  C_20 
ROOT
HETATM    1  H           1     -22.103  -6.099  -7.909  0.00  0.00     0.163 HD
HETATM    2  O           1     -21.096  -3.301  -6.909  0.00  0.00    -0.271 OA
HETATM    3  N           1     -21.677  -5.425  -7.287  0.00  0.00    -0.342 N 
HETATM    4  C           1     -21.606  -4.106  -7.652  0.00  0.00     0.251 C 
ENDROOT
BRANCH   4   5
HETATM    5  C           1     -22.165  -3.660  -8.980  0.00  0.00     0.302 C 
BRANCH   5   6
HETATM    6  C           1     -23.687  -3.696  -8.929  0.00  0.00     0.153 C 
HETATM    7  C           1     -24.205  -4.712  -9.938  0.00  0.00     0.042 C 
BRANCH   6   8
HETATM    8  O           1     -24.103  -4.062  -7.641  0.00  0.00    -0.393 OA
HETATM    9  H           1     -23.892  -4.974  -7.535  0.00  0.00     0.210 HD
ENDBRANCH   6   8
ENDBRANCH   5   6
BRANCH   5  10
HETATM   10  N           1     -21.680  -4.580 -10.061  0.00  0.00    -0.064 N 
HETATM   11  H           1     -21.631  -4.059 -10.966  0.00  0.00     0.275 HD
HETATM   12  H           1     -20.730  -4.938  -9.814  0.00  0.00     0.275 HD
HETATM   13  H           1     -22.341  -5.383 -10.157  0.00  0.00     0.275 HD
ENDBRANCH   5  10
ENDBRANCH   4   5
BRANCH   3  14
HETATM   14  C           1     -21.140  -5.853  -6.011  0.00  0.00     0.214 C 
BRANCH  14  15
HETATM   15  C           1     -22.249  -6.488  -5.182  0.00  0.00     0.147 C 
HETATM   16  C           1     -21.919  -6.347  -3.701  0.00  0.00     0.042 C 
BRANCH  15  17
HETATM   17  O           1     -23.463  -5.841  -5.454  0.00  0.00    -0.393 OA
HETATM   18  H           1     -23.836  -5.598  -4.624  0.00  0.00     0.210 HD
ENDBRANCH  15  17
ENDBRANCH  14  15
BRANCH  14  19
HETATM   19  C           1     -20.043  -6.863  -6.241  0.00  0.00     0.199 C 
HETATM   20  O           1     -19.962  -7.876  -5.512  0.00  0.00    -0.646 OA
HETATM   21  O           1     -19.214  -6.688  -7.160  0.00  0.00    -0.646 OA
ENDBRANCH  14  19
ENDBRANCH   3  14
TORSDOF 8
ENDMDL
MODEL 3
REMARK VINA RESULT:      -4.9      1.596      5.575
REMARK  8 active torsions:
REMARK  status: ('A' for Active; 'I' for Inactive)
REMARK    1  A    between atoms: C_2  and  C_16 
REMARK    2  A    between atoms: C_2  and  C_3 
REMARK    3  A    between atoms: C_2  and  N_19 
REMARK    4  A    between atoms: O_7  and  C_8 
REMARK    5  A    between atoms: C_8  and  C_17 
REMARK    6  A    between atoms: O_11  and  C_16 
REMARK    7  A    between atoms: N_15  and  C_17 
REMARK    8  A    between atoms: C_17  and  C_20 
REMARK       I    between atoms: N_19  and  C_20 
ROOT
HETATM    1  H           1     -21.656  -6.328  -8.224  0.00  0.00     0.163 HD
HETATM    2  O           1     -22.584  -3.334  -8.353  0.00  0.00    -0.271 OA
HETATM    3  N           1     -21.848  -5.392  -7.892  0.00  0.00    -0.342 N 
HETATM    4  C           1     -22.355  -4.452  -8.749  0.00  0.00     0.251 C 
ENDROOT
BRANCH   4   5
HETATM    5  C           1     -22.628  -4.813 -10.188  0.00  0.00     0.302 C 
BRANCH   5   6
HETATM    6  C           1     -21.817  -3.905 -11.103  0.00  0.00     0.153 C 
HETATM    7  C           1     -20.333  -4.183 -10.908  0.00  0.00     0.042 C 
BRANCH   6   8
HETATM    8  O           1     -22.168  -4.153 -12.438  0.00  0.00    -0.393 OA
HETATM    9  H           1     -22.981  -4.629 -12.423  0.00  0.00     0.210 HD
ENDBRANCH   6   8
ENDBRANCH   5   6
BRANCH   5  10
HETATM   10  N           1     -24.090  -4.639 -10.478  0.00  0.00    -0.064 N 
HETATM   11  H           1     -24.489  -3.915  -9.839  0.00  0.00     0.275 HD
HETATM   12  H           1     -24.213  -4.333 -11.470  0.00  0.00     0.275 HD
HETATM   13  H           1     -24.585  -5.547 -10.329  0.00  0.00     0.275 HD
ENDBRANCH   5  10
ENDBRANCH   4   5
BRANCH   3  14
HETATM   14  C           1     -21.585  -5.045  -6.509  0.00  0.00     0.214 C 
BRANCH  14  15
HETATM   15  C           1     -22.049  -6.179  -5.605  0.00  0.00     0.147 C 
HETATM   16  C           1     -21.238  -7.433  -5.907  0.00  0.00     0.042 C 
BRANCH  15  17
HETATM   17  O           1     -21.862  -5.813  -4.264  0.00  0.00    -0.393 OA
HETATM   18  H           1     -22.161  -4.924  -4.179  0.00  0.00     0.210 HD
ENDBRANCH  15  17
ENDBRANCH  14  15
BRANCH  14  19
HETATM   19  C           1     -20.105  -4.823  -6.319  0.00  0.00     0.199 C 
HETATM   20  O           1     -19.666  -4.448  -5.210  0.00  0.00    -0.646 OA
HETATM   21  O           1     -19.317  -5.014  -7.271  0.00  0.00    -0.646 OA
ENDBRANCH  14  19
ENDBRANCH   3  14
TORSDOF 8
ENDMDL
MODEL 4
REMARK VINA RESULT:      -4.7      5.362      7.097
REMARK  8 active torsions:
REMARK  status: ('A' for Active; 'I' for Inactive)
REMARK    1  A    between atoms: C_2  and  C_16 
REMARK    2  A    between atoms: C_2  and  C_3 
REMARK    3  A    between atoms: C_2  and  N_19 
REMARK    4  A    between atoms: O_7  and  C_8 
REMARK    5  A    between atoms: C_8  and  C_17 
REMARK    6  A    between atoms: O_11  and  C_16 
REMARK    7  A    between atoms: N_15  and  C_17 
REMARK    8  A    between atoms: C_17  and  C_20 
REMARK       I    between atoms: N_19  and  C_20 
ROOT
HETATM    1  H           1     -22.374  -8.679  -3.427  0.00  0.00     0.163 HD
HETATM    2  O           1     -20.031  -7.921  -1.484  0.00  0.00    -0.271 OA
HETATM    3  N           1     -21.498  -8.270  -3.132  0.00  0.00    -0.342 N 
HETATM    4  C           1     -21.078  -8.410  -1.836  0.00  0.00     0.251 C 
ENDROOT
BRANCH   4   5
HETATM    5  C           1     -21.923  -9.177  -0.849  0.00  0.00     0.302 C 
BRANCH   5   6
HETATM    6  C           1     -22.720  -8.199   0.006  0.00  0.00     0.153 C 
HETATM    7  C           1     -22.018  -8.007   1.343  0.00  0.00     0.042 C 
BRANCH   6   8
HETATM    8  O           1     -22.810  -6.967  -0.656  0.00  0.00    -0.393 OA
HETATM    9  H           1     -23.723  -6.818  -0.833  0.00  0.00     0.210 HD
ENDBRANCH   6   8
ENDBRANCH   5   6
BRANCH   5  10
HETATM   10  N           1     -21.036 -10.003   0.033  0.00  0.00    -0.064 N 
HETATM   11  H           1     -21.359 -10.997   0.021  0.00  0.00     0.275 HD
HETATM   12  H           1     -20.052  -9.953  -0.317  0.00  0.00     0.275 HD
HETATM   13  H           1     -21.077  -9.635   1.011  0.00  0.00     0.275 HD
ENDBRANCH   5  10
ENDBRANCH   4   5
BRANCH   3  14
HETATM   14  C           1     -20.685  -7.533  -4.081  0.00  0.00     0.214 C 
BRANCH  14  15
HETATM   15  C           1     -20.503  -8.364  -5.344  0.00  0.00     0.147 C 
HETATM   16  C           1     -21.100  -9.749  -5.131  0.00  0.00     0.042 C 
BRANCH  15  17
HETATM   17  O           1     -21.154  -7.734  -6.415  0.00  0.00    -0.393 OA
HETATM   18  H           1     -21.931  -8.235  -6.596  0.00  0.00     0.210 HD
ENDBRANCH  15  17
ENDBRANCH  14  15
BRANCH  14  19
HETATM   19  C           1     -21.370  -6.234  -4.428  0.00  0.00     0.199 C 
HETATM   20  O           1     -20.695  -5.254  -4.808  0.00  0.00    -0.646 OA
HETATM   21  O           1     -22.614  -6.139  -4.334  0.00  0.00    -0.646 OA
ENDBRANCH  14  19
ENDBRANCH   3  14
TORSDOF 8
ENDMDL
MODEL 5
REMARK VINA RESULT:      -4.7      2.474      5.907
REMARK  8 active torsions:
REMARK  status: ('A' for Active; 'I' for Inactive)
REMARK    1  A    between atoms: C_2  and  C_16 
REMARK    2  A    between atoms: C_2  and  C_3 
REMARK    3  A    between atoms: C_2  and  N_19 
REMARK    4  A    between atoms: O_7  and  C_8 
REMARK    5  A    between atoms: C_8  and  C_17 
REMARK    6  A    between atoms: O_11  and  C_16 
REMARK    7  A    between atoms: N_15  and  C_17 
REMARK    8  A    between atoms: C_17  and  C_20 
REMARK       I    between atoms: N_19  and  C_20 
ROOT
HETATM    1  H           1     -21.000  -6.824  -7.046  0.00  0.00     0.163 HD
HETATM    2  O           1     -20.083  -4.394  -5.287  0.00  0.00    -0.271 OA
HETATM    3  N           1     -20.723  -6.323  -6.212  0.00  0.00    -0.342 N 
HETATM    4  C           1     -20.414  -4.991  -6.283  0.00  0.00     0.251 C 
ENDROOT
BRANCH   4   5
HETATM    5  C           1     -20.489  -4.270  -7.606  0.00  0.00     0.302 C 
BRANCH   5   6
HETATM    6  C           1     -21.864  -3.632  -7.760  0.00  0.00     0.153 C 
HETATM    7  C           1     -22.315  -3.742  -9.210  0.00  0.00     0.042 C 
BRANCH   6   8
HETATM    8  O           1     -22.782  -4.295  -6.934  0.00  0.00    -0.393 OA
HETATM    9  H           1     -22.300  -4.612  -6.189  0.00  0.00     0.210 HD
ENDBRANCH   6   8
ENDBRANCH   5   6
BRANCH   5  10
HETATM   10  N           1     -20.264  -5.246  -8.722  0.00  0.00    -0.064 N 
HETATM   11  H           1     -19.512  -5.919  -8.450  0.00  0.00     0.275 HD
HETATM   12  H           1     -21.149  -5.770  -8.910  0.00  0.00     0.275 HD
HETATM   13  H           1     -19.975  -4.730  -9.583  0.00  0.00     0.275 HD
ENDBRANCH   5  10
ENDBRANCH   4   5
BRANCH   3  14
HETATM   14  C           1     -20.651  -7.017  -4.940  0.00  0.00     0.214 C 
BRANCH  14  15
HETATM   15  C           1     -22.012  -6.968  -4.259  0.00  0.00     0.147 C 
HETATM   16  C           1     -21.859  -6.382  -2.862  0.00  0.00     0.042 C 
BRANCH  15  17
HETATM   17  O           1     -22.882  -6.166  -5.011  0.00  0.00    -0.393 OA
HETATM   18  H           1     -22.835  -6.471  -5.901  0.00  0.00     0.210 HD
ENDBRANCH  15  17
ENDBRANCH  14  15
BRANCH  14  19
HETATM   19  C           1     -20.256  -8.454  -5.173  0.00  0.00     0.199 C 
HETATM   20  O           1     -21.065  -9.373  -4.926  0.00  0.00    -0.646 OA
HETATM   21  O           1     -19.118  -8.726  -5.615  0.00  0.00    -0.646 OA
ENDBRANCH  14  19
ENDBRANCH   3  14
TORSDOF 8
ENDMDL
MODEL 6
REMARK VINA RESULT:      -4.6      1.969      5.020
REMARK  8 active torsions:
REMARK  status: ('A' for Active; 'I' for Inactive)
REMARK    1  A    between atoms: C_2  and  C_16 
REMARK    2  A    between atoms: C_2  and  C_3 
REMARK    3  A    between atoms: C_2  and  N_19 
REMARK    4  A    between atoms: O_7  and  C_8 
REMARK    5  A    between atoms: C_8  and  C_17 
REMARK    6  A    between atoms: O_11  and  C_16 
REMARK    7  A    between atoms: N_15  and  C_17 
REMARK    8  A    between atoms: C_17  and  C_20 
REMARK       I    between atoms: N_19  and  C_20 
ROOT
HETATM    1  H           1     -22.079  -4.121  -7.032  0.00  0.00     0.163 HD
HETATM    2  O           1     -20.826  -5.180  -9.707  0.00  0.00    -0.271 OA
HETATM    3  N           1     -21.512  -4.703  -7.635  0.00  0.00    -0.342 N 
HETATM    4  C           1     -21.503  -4.485  -8.987  0.00  0.00     0.251 C 
ENDROOT
BRANCH   4   5
HETATM    5  C           1     -22.338  -3.376  -9.577  0.00  0.00     0.302 C 
BRANCH   5   6
HETATM    6  C           1     -23.811  -3.759  -9.513  0.00  0.00     0.153 C 
HETATM    7  C           1     -24.045  -5.014 -10.345  0.00  0.00     0.042 C 
BRANCH   6   8
HETATM    8  O           1     -24.172  -4.008  -8.182  0.00  0.00    -0.393 OA
HETATM    9  H           1     -24.611  -3.235  -7.869  0.00  0.00     0.210 HD
ENDBRANCH   6   8
ENDBRANCH   5   6
BRANCH   5  10
HETATM   10  N           1     -21.941  -3.157 -11.007  0.00  0.00    -0.064 N 
HETATM   11  H           1     -21.510  -4.030 -11.387  0.00  0.00     0.275 HD
HETATM   12  H           1     -22.787  -2.913 -11.570  0.00  0.00     0.275 HD
HETATM   13  H           1     -21.249  -2.375 -11.060  0.00  0.00     0.275 HD
ENDBRANCH   5  10
ENDBRANCH   4   5
BRANCH   3  14
HETATM   14  C           1     -20.709  -5.769  -7.068  0.00  0.00     0.214 C 
BRANCH  14  15
HETATM   15  C           1     -19.536  -5.168  -6.304  0.00  0.00     0.147 C 
HETATM   16  C           1     -18.693  -4.325  -7.251  0.00  0.00     0.042 C 
BRANCH  15  17
HETATM   17  O           1     -20.021  -4.361  -5.264  0.00  0.00    -0.393 OA
HETATM   18  H           1     -20.830  -4.746  -4.974  0.00  0.00     0.210 HD
ENDBRANCH  15  17
ENDBRANCH  14  15
BRANCH  14  19
HETATM   19  C           1     -21.555  -6.589  -6.126  0.00  0.00     0.199 C 
HETATM   20  O           1     -21.387  -7.825  -6.051  0.00  0.00    -0.646 OA
HETATM   21  O           1     -22.425  -6.032  -5.421  0.00  0.00    -0.646 OA
ENDBRANCH  14  19
ENDBRANCH   3  14
TORSDOF 8
ENDMDL
MODEL 7
REMARK VINA RESULT:      -4.6      4.683      8.422
REMARK  8 active torsions:
REMARK  status: ('A' for Active; 'I' for Inactive)
REMARK    1  A    between atoms: C_2  and  C_16 
REMARK    2  A    between atoms: C_2  and  C_3 
REMARK    3  A    between atoms: C_2  and  N_19 
REMARK    4  A    between atoms: O_7  and  C_8 
REMARK    5  A    between atoms: C_8  and  C_17 
REMARK    6  A    between atoms: O_11  and  C_16 
REMARK    7  A    between atoms: N_15  and  C_17 
REMARK    8  A    between atoms: C_17  and  C_20 
REMARK       I    between atoms: N_19  and  C_20 
ROOT
HETATM    1  H           1     -22.165  -7.691  -2.988  0.00  0.00     0.163 HD
HETATM    2  O           1     -19.275  -8.802  -3.495  0.00  0.00    -0.271 OA
HETATM    3  N           1     -21.316  -8.210  -2.806  0.00  0.00    -0.342 N 
HETATM    4  C           1     -20.289  -8.182  -3.712  0.00  0.00     0.251 C 
ENDROOT
BRANCH   4   5
HETATM    5  C           1     -20.424  -7.376  -4.980  0.00  0.00     0.302 C 
BRANCH   5   6
HETATM    6  C           1     -21.092  -6.043  -4.667  0.00  0.00     0.153 C 
HETATM    7  C           1     -20.494  -4.957  -5.552  0.00  0.00     0.042 C 
BRANCH   6   8
HETATM    8  O           1     -22.468  -6.141  -4.913  0.00  0.00    -0.393 OA
HETATM    9  H           1     -22.862  -6.484  -4.129  0.00  0.00     0.210 HD
ENDBRANCH   6   8
ENDBRANCH   5   6
BRANCH   5  10
HETATM   10  N           1     -21.261  -8.134  -5.968  0.00  0.00    -0.064 N 
HETATM   11  H           1     -20.678  -8.389  -6.796  0.00  0.00     0.275 HD
HETATM   12  H           1     -21.627  -9.004  -5.519  0.00  0.00     0.275 HD
HETATM   13  H           1     -22.062  -7.537  -6.276  0.00  0.00     0.275 HD
ENDBRANCH   5  10
ENDBRANCH   4   5
BRANCH   3  14
HETATM   14  C           1     -21.186  -8.984  -1.587  0.00  0.00     0.214 C 
BRANCH  14  15
HETATM   15  C           1     -21.906  -8.267  -0.453  0.00  0.00     0.147 C 
HETATM   16  C           1     -22.336  -6.883  -0.919  0.00  0.00     0.042 C 
BRANCH  15  17
HETATM   17  O           1     -23.038  -9.007  -0.078  0.00  0.00    -0.393 OA
HETATM   18  H           1     -23.761  -8.672  -0.579  0.00  0.00     0.210 HD
ENDBRANCH  15  17
ENDBRANCH  14  15
BRANCH  14  19
HETATM   19  C           1     -21.798 -10.348  -1.790  0.00  0.00     0.199 C 
HETATM   20  O           1     -21.432 -11.309  -1.080  0.00  0.00    -0.646 OA
HETATM   21  O           1     -22.672 -10.516  -2.668  0.00  0.00    -0.646 OA
ENDBRANCH  14  19
ENDBRANCH   3  14
TORSDOF 8
ENDMDL
MODEL 8
REMARK VINA RESULT:      -4.5      2.472      4.049
REMARK  8 active torsions:
REMARK  status: ('A' for Active; 'I' for Inactive)
REMARK    1  A    between atoms: C_2  and  C_16 
REMARK    2  A    between atoms: C_2  and  C_3 
REMARK    3  A    between atoms: C_2  and  N_19 
REMARK    4  A    between atoms: O_7  and  C_8 
REMARK    5  A    between atoms: C_8  and  C_17 
REMARK    6  A    between atoms: O_11  and  C_16 
REMARK    7  A    between atoms: N_15  and  C_17 
REMARK    8  A    between atoms: C_17  and  C_20 
REMARK       I    between atoms: N_19  and  C_20 
ROOT
HETATM    1  H           1     -22.734  -5.011  -5.554  0.00  0.00     0.163 HD
HETATM    2  O           1     -20.943  -7.474  -6.305  0.00  0.00    -0.271 OA
HETATM    3  N           1     -22.095  -5.571  -6.102  0.00  0.00    -0.342 N 
HETATM    4  C           1     -21.708  -6.805  -5.651  0.00  0.00     0.251 C 
ENDROOT
BRANCH   4   5
HETATM    5  C           1     -22.237  -7.329  -4.340  0.00  0.00     0.302 C 
BRANCH   5   6
HETATM    6  C           1     -21.938  -6.326  -3.233  0.00  0.00     0.153 C 
HETATM    7  C           1     -21.642  -7.071  -1.938  0.00  0.00     0.042 C 
BRANCH   6   8
HETATM    8  O           1     -20.825  -5.553  -3.592  0.00  0.00    -0.393 OA
HETATM    9  H           1     -20.346  -5.378  -2.799  0.00  0.00     0.210 HD
ENDBRANCH   6   8
ENDBRANCH   5   6
BRANCH   5  10
HETATM   10  N           1     -21.575  -8.637  -4.020  0.00  0.00    -0.064 N 
HETATM   11  H           1     -20.776  -8.473  -3.367  0.00  0.00     0.275 HD
HETATM   12  H           1     -22.268  -9.277  -3.569  0.00  0.00     0.275 HD
HETATM   13  H           1     -21.221  -9.073  -4.901  0.00  0.00     0.275 HD
ENDBRANCH   5  10
ENDBRANCH   4   5
BRANCH   3  14
HETATM   14  C           1     -21.587  -5.068  -7.363  0.00  0.00     0.214 C 
BRANCH  14  15
HETATM   15  C           1     -22.594  -4.097  -7.964  0.00  0.00     0.147 C 
HETATM   16  C           1     -22.808  -4.434  -9.434  0.00  0.00     0.042 C 
BRANCH  15  17
HETATM   17  O           1     -23.812  -4.204  -7.277  0.00  0.00    -0.393 OA
HETATM   18  H           1     -23.856  -5.079  -6.932  0.00  0.00     0.210 HD
ENDBRANCH  15  17
ENDBRANCH  14  15
BRANCH  14  19
HETATM   19  C           1     -20.278  -4.354  -7.128  0.00  0.00     0.199 C 
HETATM   20  O           1     -19.713  -4.433  -6.016  0.00  0.00    -0.646 OA
HETATM   21  O           1     -19.758  -3.683  -8.047  0.00  0.00    -0.646 OA
ENDBRANCH  14  19
ENDBRANCH   3  14
TORSDOF 8
ENDMDL
MODEL 9
REMARK VINA RESULT:      -4.5      6.457      8.643
REMARK  8 active torsions:
REMARK  status: ('A' for Active; 'I' for Inactive)
REMARK    1  A    between atoms: C_2  and  C_16 
REMARK    2  A    between atoms: C_2  and  C_3 
REMARK    3  A    between atoms: C_2  and  N_19 
REMARK    4  A    between atoms: O_7  and  C_8 
REMARK    5  A    between atoms: C_8  and  C_17 
REMARK    6  A    between atoms: O_11  and  C_16 
REMARK    7  A    between atoms: N_15  and  C_17 
REMARK    8  A    between atoms: C_17  and  C_20 
REMARK       I    between atoms: N_19  and  C_20 
ROOT
HETATM    1  H           1     -22.724  -9.266  -2.963  0.00  0.00     0.163 HD
HETATM    2  O           1     -20.672  -9.963  -0.695  0.00  0.00    -0.271 OA
HETATM    3  N           1     -21.955  -9.127  -2.321  0.00  0.00    -0.342 N 
HETATM    4  C           1     -21.591 -10.129  -1.462  0.00  0.00     0.251 C 
ENDROOT
BRANCH   4   5
HETATM    5  C           1     -22.337 -11.440  -1.473  0.00  0.00     0.302 C 
BRANCH   5   6
HETATM    6  C           1     -23.592 -11.319  -0.619  0.00  0.00     0.153 C 
HETATM    7  C           1     -23.533 -12.332   0.517  0.00  0.00     0.042 C 
BRANCH   6   8
HETATM    8  O           1     -23.671 -10.025  -0.086  0.00  0.00    -0.393 OA
HETATM    9  H           1     -24.488  -9.970   0.380  0.00  0.00     0.210 HD
ENDBRANCH   6   8
ENDBRANCH   5   6
BRANCH   5  10
HETATM   10  N           1     -21.457 -12.521  -0.917  0.00  0.00    -0.064 N 
HETATM   11  H           1     -20.465 -12.338  -1.190  0.00  0.00     0.275 HD
HETATM   12  H           1     -21.535 -12.532   0.125  0.00  0.00     0.275 HD
HETATM   13  H           1     -21.758 -13.446  -1.299  0.00  0.00     0.275 HD
ENDBRANCH   5  10
ENDBRANCH   4   5
BRANCH   3  14
HETATM   14  C           1     -21.238  -7.867  -2.311  0.00  0.00     0.214 C 
BRANCH  14  15
HETATM   15  C           1     -20.874  -7.479  -3.738  0.00  0.00     0.147 C 
HETATM   16  C           1     -19.851  -8.465  -4.286  0.00  0.00     0.042 C 
BRANCH  15  17
HETATM   17  O           1     -22.026  -7.506  -4.537  0.00  0.00    -0.393 OA
HETATM   18  H           1     -22.693  -7.031  -4.072  0.00  0.00     0.210 HD
ENDBRANCH  15  17
ENDBRANCH  14  15
BRANCH  14  19
HETATM   19  C           1     -22.112  -6.796  -1.706  0.00  0.00     0.199 C 
HETATM   20  O           1     -22.746  -7.027  -0.654  0.00  0.00    -0.646 OA
HETATM   21  O           1     -22.203  -5.678  -2.257  0.00  0.00    -0.646 OA
ENDBRANCH  14  19
ENDBRANCH   3  14
TORSDOF 8
ENDMDL
