MODEL 1
REMARK VINA RESULT:      -6.7      0.000      0.000
REMARK  9 active torsions:
REMARK  status: ('A' for Active; 'I' for Inactive)
REMARK    1  A    between atoms: C_2  and  C_11 
REMARK    2  A    between atoms: C_4  and  C_5 
REMARK    3  A    between atoms: C_4  and  C_21 
REMARK    4  A    between atoms: C_4  and  N_24 
REMARK       I    between atoms: C_5  and  N_6 
REMARK    5  A    between atoms: N_6  and  C_10 
REMARK    6  A    between atoms: C_9  and  C_10 
REMARK    7  A    between atoms: C_10  and  C_11 
REMARK       I    between atoms: N_17  and  C_18 
REMARK    8  A    between atoms: C_18  and  C_23 
REMARK    9  A    between atoms: C_21  and  C_23 
ROOT
HETATM    1  C           1     -33.384  -2.462 -11.444  0.00  0.00     0.275 C 
ENDROOT
BRANCH   1   2
HETATM    2  C           1     -34.417  -2.149 -12.499  0.00  0.00     0.249 C 
HETATM    3  O           1     -34.680  -2.966 -13.349  0.00  0.00    -0.271 OA
HETATM    4  N           1     -35.059  -0.938 -12.490  0.00  0.00    -0.344 N 
HETATM    5  H           1     -34.839  -0.254 -11.778  0.00  0.00     0.163 HD
BRANCH   4   6
HETATM    6  C           1     -36.051  -0.637 -13.504  0.00  0.00     0.195 C 
BRANCH   6   7
HETATM    7  C           1     -35.470   0.331 -14.505  0.00  0.00     0.197 C 
HETATM    8  O           1     -36.184   0.780 -15.427  0.00  0.00    -0.646 OA
HETATM    9  O           1     -34.276   0.686 -14.410  0.00  0.00    -0.646 OA
ENDBRANCH   6   7
BRANCH   6  10
HETATM   10  C           1     -37.275  -0.015 -12.845  0.00  0.00     0.149 C 
BRANCH  10  11
HETATM   11  C           1     -37.208  -0.233 -11.353  0.00  0.00     0.175 C 
HETATM   12  O           1     -36.560   0.558 -10.634  0.00  0.00    -0.648 OA
HETATM   13  O           1     -37.800  -1.205 -10.837  0.00  0.00    -0.648 OA
ENDBRANCH  10  11
ENDBRANCH   6  10
ENDBRANCH   4   6
ENDBRANCH   1   2
BRANCH   1  14
HETATM   14  C           1     -33.059  -3.950 -11.478  0.00  0.00     0.052 C 
BRANCH  14  15
HETATM   15  C           1     -33.985  -4.695 -10.527  0.00  0.00     0.105 C 
BRANCH  15  16
HETATM   16  C           1     -34.468  -5.964 -11.183  0.00  0.00     0.215 C 
HETATM   17  O           1     -34.510  -6.993 -10.551  0.00  0.00    -0.274 OA
HETATM   18  N           1     -34.857  -5.951 -12.496  0.00  0.00    -0.370 N 
HETATM   19  H           1     -35.180  -6.803 -12.937  0.00  0.00     0.159 HD
HETATM   20  H           1     -34.820  -5.091 -13.026  0.00  0.00     0.159 HD
ENDBRANCH  15  16
ENDBRANCH  14  15
ENDBRANCH   1  14
BRANCH   1  21
HETATM   21  N           1     -33.924  -2.100 -10.093  0.00  0.00    -0.066 N 
HETATM   22  H           1     -33.130  -1.940  -9.432  0.00  0.00     0.275 HD
HETATM   23  H           1     -34.522  -2.879  -9.735  0.00  0.00     0.275 HD
HETATM   24  H           1     -34.496  -1.229 -10.168  0.00  0.00     0.275 HD
ENDBRANCH   1  21
TORSDOF 9
ENDMDL
MODEL 2
REMARK VINA RESULT:      -6.4      9.807     11.527
REMARK  9 active torsions:
REMARK  status: ('A' for Active; 'I' for Inactive)
REMARK    1  A    between atoms: C_2  and  C_11 
REMARK    2  A    between atoms: C_4  and  C_5 
REMARK    3  A    between atoms: C_4  and  C_21 
REMARK    4  A    between atoms: C_4  and  N_24 
REMARK       I    between atoms: C_5  and  N_6 
REMARK    5  A    between atoms: N_6  and  C_10 
REMARK    6  A    between atoms: C_9  and  C_10 
REMARK    7  A    between atoms: C_10  and  C_11 
REMARK       I    between atoms: N_17  and  C_18 
REMARK    8  A    between atoms: C_18  and  C_23 
REMARK    9  A    between atoms: C_21  and  C_23 
ROOT
HETATM    1  C           1     -25.115  -6.772 -17.087  0.00  0.00     0.275 C 
ENDROOT
BRANCH   1   2
HETATM    2  C           1     -26.444  -6.937 -16.393  0.00  0.00     0.249 C 
HETATM    3  O           1     -26.487  -7.356 -15.261  0.00  0.00    -0.271 OA
HETATM    4  N           1     -27.603  -6.612 -17.047  0.00  0.00    -0.344 N 
HETATM    5  H           1     -27.568  -6.261 -17.996  0.00  0.00     0.163 HD
BRANCH   4   6
HETATM    6  C           1     -28.881  -6.772 -16.380  0.00  0.00     0.195 C 
BRANCH   6   7
HETATM    7  C           1     -29.847  -7.472 -17.304  0.00  0.00     0.197 C 
HETATM    8  O           1     -29.469  -8.457 -17.974  0.00  0.00    -0.646 OA
HETATM    9  O           1     -31.026  -7.069 -17.397  0.00  0.00    -0.646 OA
ENDBRANCH   6   7
BRANCH   6  10
HETATM   10  C           1     -29.434  -5.401 -16.010  0.00  0.00     0.149 C 
BRANCH  10  11
HETATM   11  C           1     -28.825  -4.354 -16.911  0.00  0.00     0.175 C 
HETATM   12  O           1     -27.857  -3.671 -16.510  0.00  0.00    -0.648 OA
HETATM   13  O           1     -29.289  -4.169 -18.056  0.00  0.00    -0.648 OA
ENDBRANCH  10  11
ENDBRANCH   6  10
ENDBRANCH   4   6
ENDBRANCH   1   2
BRANCH   1  14
HETATM   14  C           1     -25.323  -6.793 -18.596  0.00  0.00     0.052 C 
BRANCH  14  15
HETATM   15  C           1     -24.002  -7.105 -19.286  0.00  0.00     0.105 C 
BRANCH  15  16
HETATM   16  C           1     -24.263  -7.913 -20.533  0.00  0.00     0.215 C 
HETATM   17  O           1     -25.335  -7.841 -21.086  0.00  0.00    -0.274 OA
HETATM   18  N           1     -23.285  -8.727 -21.039  0.00  0.00    -0.370 N 
HETATM   19  H           1     -23.460  -9.269 -21.875  0.00  0.00     0.159 HD
HETATM   20  H           1     -22.388  -8.788 -20.576  0.00  0.00     0.159 HD
ENDBRANCH  15  16
ENDBRANCH  14  15
ENDBRANCH   1  14
BRANCH   1  21
HETATM   21  N           1     -24.202  -7.895 -16.693  0.00  0.00    -0.066 N 
HETATM   22  H           1     -23.639  -7.610 -15.859  0.00  0.00     0.275 HD
HETATM   23  H           1     -23.560  -8.118 -17.486  0.00  0.00     0.275 HD
HETATM   24  H           1     -24.771  -8.739 -16.457  0.00  0.00     0.275 HD
ENDBRANCH   1  21
TORSDOF 9
ENDMDL
MODEL 3
REMARK VINA RESULT:      -6.0     12.883     14.758
REMARK  9 active torsions:
REMARK  status: ('A' for Active; 'I' for Inactive)
REMARK    1  A    between atoms: C_2  and  C_11 
REMARK    2  A    between atoms: C_4  and  C_5 
REMARK    3  A    between atoms: C_4  and  C_21 
REMARK    4  A    between atoms: C_4  and  N_24 
REMARK       I    between atoms: C_5  and  N_6 
REMARK    5  A    between atoms: N_6  and  C_10 
REMARK    6  A    between atoms: C_9  and  C_10 
REMARK    7  A    between atoms: C_10  and  C_11 
REMARK       I    between atoms: N_17  and  C_18 
REMARK    8  A    between atoms: C_18  and  C_23 
REMARK    9  A    between atoms: C_21  and  C_23 
ROOT
HETATM    1  C           1     -21.190  -5.895  -6.806  0.00  0.00     0.275 C 
ENDROOT
BRANCH   1   2
HETATM    2  C           1     -21.682  -4.728  -7.625  0.00  0.00     0.249 C 
HETATM    3  O           1     -21.532  -3.599  -7.221  0.00  0.00    -0.271 OA
HETATM    4  N           1     -22.299  -4.948  -8.828  0.00  0.00    -0.344 N 
HETATM    5  H           1     -22.426  -5.893  -9.167  0.00  0.00     0.163 HD
BRANCH   4   6
HETATM    6  C           1     -22.774  -3.826  -9.615  0.00  0.00     0.195 C 
BRANCH   6   7
HETATM    7  C           1     -24.281  -3.848  -9.667  0.00  0.00     0.197 C 
HETATM    8  O           1     -24.884  -4.926  -9.858  0.00  0.00    -0.646 OA
HETATM    9  O           1     -24.928  -2.789  -9.515  0.00  0.00    -0.646 OA
ENDBRANCH   6   7
BRANCH   6  10
HETATM   10  C           1     -22.215  -3.927 -11.029  0.00  0.00     0.149 C 
BRANCH  10  11
HETATM   11  C           1     -20.718  -3.736 -10.992  0.00  0.00     0.175 C 
HETATM   12  O           1     -20.224  -2.616 -11.247  0.00  0.00    -0.648 OA
HETATM   13  O           1     -19.973  -4.697 -10.706  0.00  0.00    -0.648 OA
ENDBRANCH  10  11
ENDBRANCH   6  10
ENDBRANCH   4   6
ENDBRANCH   1   2
BRANCH   1  14
HETATM   14  C           1     -21.246  -5.537  -5.326  0.00  0.00     0.052 C 
BRANCH  14  15
HETATM   15  C           1     -22.122  -6.545  -4.593  0.00  0.00     0.105 C 
BRANCH  15  16
HETATM   16  C           1     -21.703  -6.618  -3.146  0.00  0.00     0.215 C 
HETATM   17  O           1     -20.834  -7.387  -2.807  0.00  0.00    -0.274 OA
HETATM   18  N           1     -22.307  -5.814  -2.217  0.00  0.00    -0.370 N 
HETATM   19  H           1     -22.026  -5.864  -1.245  0.00  0.00     0.159 HD
HETATM   20  H           1     -23.034  -5.171  -2.500  0.00  0.00     0.159 HD
ENDBRANCH  15  16
ENDBRANCH  14  15
ENDBRANCH   1  14
BRANCH   1  21
HETATM   21  N           1     -19.774  -6.212  -7.188  0.00  0.00    -0.066 N 
HETATM   22  H           1     -19.506  -5.650  -8.028  0.00  0.00     0.275 HD
HETATM   23  H           1     -19.692  -7.229  -7.411  0.00  0.00     0.275 HD
HETATM   24  H           1     -19.138  -5.977  -6.394  0.00  0.00     0.275 HD
ENDBRANCH   1  21
TORSDOF 9
ENDMDL
MODEL 4
REMARK VINA RESULT:      -5.9      2.053      3.336
REMARK  9 active torsions:
REMARK  status: ('A' for Active; 'I' for Inactive)
REMARK    1  A    between atoms: C_2  and  C_11 
REMARK    2  A    between atoms: C_4  and  C_5 
REMARK    3  A    between atoms: C_4  and  C_21 
REMARK    4  A    between atoms: C_4  and  N_24 
REMARK       I    between atoms: C_5  and  N_6 
REMARK    5  A    between atoms: N_6  and  C_10 
REMARK    6  A    between atoms: C_9  and  C_10 
REMARK    7  A    between atoms: C_10  and  C_11 
REMARK       I    between atoms: N_17  and  C_18 
REMARK    8  A    between atoms: C_18  and  C_23 
REMARK    9  A    between atoms: C_21  and  C_23 
ROOT
HETATM    1  C           1     -34.909  -1.646 -11.723  0.00  0.00     0.275 C 
ENDROOT
BRANCH   1   2
HETATM    2  C           1     -35.714  -1.101 -12.877  0.00  0.00     0.249 C 
HETATM    3  O           1     -36.917  -1.030 -12.795  0.00  0.00    -0.271 OA
HETATM    4  N           1     -35.079  -0.685 -14.018  0.00  0.00    -0.344 N 
HETATM    5  H           1     -34.071  -0.744 -14.087  0.00  0.00     0.163 HD
BRANCH   4   6
HETATM    6  C           1     -35.853  -0.162 -15.128  0.00  0.00     0.195 C 
BRANCH   6   7
HETATM    7  C           1     -35.635  -1.026 -16.345  0.00  0.00     0.197 C 
HETATM    8  O           1     -34.581  -1.687 -16.462  0.00  0.00    -0.646 OA
HETATM    9  O           1     -36.510  -1.083 -17.236  0.00  0.00    -0.646 OA
ENDBRANCH   6   7
BRANCH   6  10
HETATM   10  C           1     -35.407   1.263 -15.429  0.00  0.00     0.149 C 
BRANCH  10  11
HETATM   11  C           1     -36.512   1.994 -16.151  0.00  0.00     0.175 C 
HETATM   12  O           1     -36.248   3.002 -16.842  0.00  0.00    -0.648 OA
HETATM   13  O           1     -37.691   1.592 -16.058  0.00  0.00    -0.648 OA
ENDBRANCH  10  11
ENDBRANCH   6  10
ENDBRANCH   4   6
ENDBRANCH   1   2
BRANCH   1  14
HETATM   14  C           1     -35.032  -3.163 -11.689  0.00  0.00     0.052 C 
BRANCH  14  15
HETATM   15  C           1     -33.999  -3.736 -10.728  0.00  0.00     0.105 C 
BRANCH  15  16
HETATM   16  C           1     -33.199  -4.806 -11.427  0.00  0.00     0.215 C 
HETATM   17  O           1     -32.251  -4.502 -12.111  0.00  0.00    -0.274 OA
HETATM   18  N           1     -33.547  -6.123 -11.286  0.00  0.00    -0.370 N 
HETATM   19  H           1     -33.010  -6.842 -11.756  0.00  0.00     0.159 HD
HETATM   20  H           1     -34.341  -6.378 -10.714  0.00  0.00     0.159 HD
ENDBRANCH  15  16
ENDBRANCH  14  15
ENDBRANCH   1  14
BRANCH   1  21
HETATM   21  N           1     -35.430  -1.074 -10.437  0.00  0.00    -0.066 N 
HETATM   22  H           1     -35.931  -1.819  -9.903  0.00  0.00     0.275 HD
HETATM   23  H           1     -36.090  -0.291 -10.645  0.00  0.00     0.275 HD
HETATM   24  H           1     -34.631  -0.714  -9.868  0.00  0.00     0.275 HD
ENDBRANCH   1  21
TORSDOF 9
ENDMDL
MODEL 5
REMARK VINA RESULT:      -5.8     14.014     16.933
REMARK  9 active torsions:
REMARK  status: ('A' for Active; 'I' for Inactive)
REMARK    1  A    between atoms: C_2  and  C_11 
REMARK    2  A    between atoms: C_4  and  C_5 
REMARK    3  A    between atoms: C_4  and  C_21 
REMARK    4  A    between atoms: C_4  and  N_24 
REMARK       I    between atoms: C_5  and  N_6 
REMARK    5  A    between atoms: N_6  and  C_10 
REMARK    6  A    between atoms: C_9  and  C_10 
REMARK    7  A    between atoms: C_10  and  C_11 
REMARK       I    between atoms: N_17  and  C_18 
REMARK    8  A    between atoms: C_18  and  C_23 
REMARK    9  A    between atoms: C_21  and  C_23 
ROOT
HETATM    1  C           1     -20.434  -5.011  -6.535  0.00  0.00     0.275 C 
ENDROOT
BRANCH   1   2
HETATM    2  C           1     -21.347  -5.795  -5.624  0.00  0.00     0.249 C 
HETATM    3  O           1     -22.541  -5.616  -5.665  0.00  0.00    -0.271 OA
HETATM    4  N           1     -20.821  -6.710  -4.750  0.00  0.00    -0.344 N 
HETATM    5  H           1     -19.821  -6.860  -4.715  0.00  0.00     0.163 HD
BRANCH   4   6
HETATM    6  C           1     -21.699  -7.462  -3.874  0.00  0.00     0.195 C 
BRANCH   6   7
HETATM    7  C           1     -21.641  -6.881  -2.484  0.00  0.00     0.197 C 
HETATM    8  O           1     -22.323  -5.873  -2.198  0.00  0.00    -0.646 OA
HETATM    9  O           1     -20.913  -7.408  -1.615  0.00  0.00    -0.646 OA
ENDBRANCH   6   7
BRANCH   6  10
HETATM   10  C           1     -21.249  -8.917  -3.836  0.00  0.00     0.149 C 
BRANCH  10  11
HETATM   11  C           1     -19.945  -9.061  -4.582  0.00  0.00     0.175 C 
HETATM   12  O           1     -19.950  -9.324  -5.804  0.00  0.00    -0.648 OA
HETATM   13  O           1     -18.861  -8.915  -3.979  0.00  0.00    -0.648 OA
ENDBRANCH  10  11
ENDBRANCH   6  10
ENDBRANCH   4   6
ENDBRANCH   1   2
BRANCH   1  14
HETATM   14  C           1     -21.189  -3.818  -7.105  0.00  0.00     0.052 C 
BRANCH  14  15
HETATM   15  C           1     -21.393  -4.014  -8.601  0.00  0.00     0.105 C 
BRANCH  15  16
HETATM   16  C           1     -22.856  -3.854  -8.935  0.00  0.00     0.215 C 
HETATM   17  O           1     -23.189  -3.533 -10.051  0.00  0.00    -0.274 OA
HETATM   18  N           1     -23.805  -4.072  -7.973  0.00  0.00    -0.370 N 
HETATM   19  H           1     -24.787  -3.965  -8.197  0.00  0.00     0.159 HD
HETATM   20  H           1     -23.527  -4.340  -7.039  0.00  0.00     0.159 HD
ENDBRANCH  15  16
ENDBRANCH  14  15
ENDBRANCH   1  14
BRANCH   1  21
HETATM   21  N           1     -19.972  -5.892  -7.657  0.00  0.00    -0.066 N 
HETATM   22  H           1     -19.271  -5.378  -8.238  0.00  0.00     0.275 HD
HETATM   23  H           1     -20.789  -6.157  -8.253  0.00  0.00     0.275 HD
HETATM   24  H           1     -19.534  -6.756  -7.264  0.00  0.00     0.275 HD
ENDBRANCH   1  21
TORSDOF 9
ENDMDL
MODEL 6
REMARK VINA RESULT:      -5.4     13.468     16.213
REMARK  9 active torsions:
REMARK  status: ('A' for Active; 'I' for Inactive)
REMARK    1  A    between atoms: C_2  and  C_11 
REMARK    2  A    between atoms: C_4  and  C_5 
REMARK    3  A    between atoms: C_4  and  C_21 
REMARK    4  A    between atoms: C_4  and  N_24 
REMARK       I    between atoms: C_5  and  N_6 
REMARK    5  A    between atoms: N_6  and  C_10 
REMARK    6  A    between atoms: C_9  and  C_10 
REMARK    7  A    between atoms: C_10  and  C_11 
REMARK       I    between atoms: N_17  and  C_18 
REMARK    8  A    between atoms: C_18  and  C_23 
REMARK    9  A    between atoms: C_21  and  C_23 
ROOT
HETATM    1  C           1     -21.030  -4.097  -7.646  0.00  0.00     0.275 C 
ENDROOT
BRANCH   1   2
HETATM    2  C           1     -20.716  -4.853  -6.379  0.00  0.00     0.249 C 
HETATM    3  O           1     -20.136  -4.302  -5.474  0.00  0.00    -0.271 OA
HETATM    4  N           1     -21.090  -6.165  -6.253  0.00  0.00    -0.344 N 
HETATM    5  H           1     -21.576  -6.628  -7.011  0.00  0.00     0.163 HD
BRANCH   4   6
HETATM    6  C           1     -20.786  -6.892  -5.035  0.00  0.00     0.195 C 
BRANCH   6   7
HETATM    7  C           1     -20.310  -8.280  -5.382  0.00  0.00     0.197 C 
HETATM    8  O           1     -19.202  -8.441  -5.938  0.00  0.00    -0.646 OA
HETATM    9  O           1     -21.022  -9.271  -5.112  0.00  0.00    -0.646 OA
ENDBRANCH   6   7
BRANCH   6  10
HETATM   10  C           1     -22.041  -6.984  -4.176  0.00  0.00     0.149 C 
BRANCH  10  11
HETATM   11  C           1     -21.690  -6.679  -2.740  0.00  0.00     0.175 C 
HETATM   12  O           1     -20.806  -7.343  -2.157  0.00  0.00    -0.648 OA
HETATM   13  O           1     -22.285  -5.762  -2.133  0.00  0.00    -0.648 OA
ENDBRANCH  10  11
ENDBRANCH   6  10
ENDBRANCH   4   6
ENDBRANCH   1   2
BRANCH   1  14
HETATM   14  C           1     -22.474  -4.362  -8.051  0.00  0.00     0.052 C 
BRANCH  14  15
HETATM   15  C           1     -22.591  -4.333  -9.569  0.00  0.00     0.105 C 
BRANCH  15  16
HETATM   16  C           1     -23.954  -3.819  -9.960  0.00  0.00     0.215 C 
HETATM   17  O           1     -24.377  -4.017 -11.074  0.00  0.00    -0.274 OA
HETATM   18  N           1     -24.711  -3.126  -9.053  0.00  0.00    -0.370 N 
HETATM   19  H           1     -25.625  -2.781  -9.316  0.00  0.00     0.159 HD
HETATM   20  H           1     -24.356  -2.959  -8.121  0.00  0.00     0.159 HD
ENDBRANCH  15  16
ENDBRANCH  14  15
ENDBRANCH   1  14
BRANCH   1  21
HETATM   21  N           1     -20.113  -4.556  -8.741  0.00  0.00    -0.066 N 
HETATM   22  H           1     -19.934  -3.764  -9.400  0.00  0.00     0.275 HD
HETATM   23  H           1     -20.557  -5.346  -9.262  0.00  0.00     0.275 HD
HETATM   24  H           1     -19.209  -4.876  -8.327  0.00  0.00     0.275 HD
ENDBRANCH   1  21
TORSDOF 9
ENDMDL
MODEL 7
REMARK VINA RESULT:      -5.4     10.253     12.065
REMARK  9 active torsions:
REMARK  status: ('A' for Active; 'I' for Inactive)
REMARK    1  A    between atoms: C_2  and  C_11 
REMARK    2  A    between atoms: C_4  and  C_5 
REMARK    3  A    between atoms: C_4  and  C_21 
REMARK    4  A    between atoms: C_4  and  N_24 
REMARK       I    between atoms: C_5  and  N_6 
REMARK    5  A    between atoms: N_6  and  C_10 
REMARK    6  A    between atoms: C_9  and  C_10 
REMARK    7  A    between atoms: C_10  and  C_11 
REMARK       I    between atoms: N_17  and  C_18 
REMARK    8  A    between atoms: C_18  and  C_23 
REMARK    9  A    between atoms: C_21  and  C_23 
ROOT
HETATM    1  C           1     -24.369  -6.980 -17.478  0.00  0.00     0.275 C 
ENDROOT
BRANCH   1   2
HETATM    2  C           1     -25.422  -6.243 -16.686  0.00  0.00     0.249 C 
HETATM    3  O           1     -25.109  -5.607 -15.708  0.00  0.00    -0.271 OA
HETATM    4  N           1     -26.734  -6.296 -17.077  0.00  0.00    -0.344 N 
HETATM    5  H           1     -26.997  -6.829 -17.896  0.00  0.00     0.163 HD
BRANCH   4   6
HETATM    6  C           1     -27.746  -5.589 -16.316  0.00  0.00     0.195 C 
BRANCH   6   7
HETATM    7  C           1     -28.319  -6.507 -15.266  0.00  0.00     0.197 C 
HETATM    8  O           1     -27.851  -7.657 -15.118  0.00  0.00    -0.646 OA
HETATM    9  O           1     -29.260  -6.119 -14.541  0.00  0.00    -0.646 OA
ENDBRANCH   6   7
BRANCH   6  10
HETATM   10  C           1     -28.857  -5.131 -17.253  0.00  0.00     0.149 C 
BRANCH  10  11
HETATM   11  C           1     -29.459  -6.331 -17.943  0.00  0.00     0.175 C 
HETATM   12  O           1     -30.605  -6.721 -17.631  0.00  0.00    -0.648 OA
HETATM   13  O           1     -28.811  -6.934 -18.825  0.00  0.00    -0.648 OA
ENDBRANCH  10  11
ENDBRANCH   6  10
ENDBRANCH   4   6
ENDBRANCH   1   2
BRANCH   1  14
HETATM   14  C           1     -24.951  -7.414 -18.816  0.00  0.00     0.052 C 
BRANCH  14  15
HETATM   15  C           1     -23.994  -7.027 -19.936  0.00  0.00     0.105 C 
BRANCH  15  16
HETATM   16  C           1     -24.016  -8.088 -21.007  0.00  0.00     0.215 C 
HETATM   17  O           1     -24.939  -8.143 -21.785  0.00  0.00    -0.274 OA
HETATM   18  N           1     -22.990  -8.990 -21.098  0.00  0.00    -0.370 N 
HETATM   19  H           1     -23.004  -9.703 -21.817  0.00  0.00     0.159 HD
HETATM   20  H           1     -22.217  -8.946 -20.447  0.00  0.00     0.159 HD
ENDBRANCH  15  16
ENDBRANCH  14  15
ENDBRANCH   1  14
BRANCH   1  21
HETATM   21  N           1     -23.923  -8.190 -16.711  0.00  0.00    -0.066 N 
HETATM   22  H           1     -23.099  -7.942 -16.119  0.00  0.00     0.275 HD
HETATM   23  H           1     -23.656  -8.947 -17.379  0.00  0.00     0.275 HD
HETATM   24  H           1     -24.704  -8.522 -16.101  0.00  0.00     0.275 HD
ENDBRANCH   1  21
TORSDOF 9
ENDMDL
MODEL 8
REMARK VINA RESULT:      -5.1     14.855     17.449
REMARK  9 active torsions:
REMARK  status: ('A' for Active; 'I' for Inactive)
REMARK    1  A    between atoms: C_2  and  C_11 
REMARK    2  A    between atoms: C_4  and  C_5 
REMARK    3  A    between atoms: C_4  and  C_21 
REMARK    4  A    between atoms: C_4  and  N_24 
REMARK       I    between atoms: C_5  and  N_6 
REMARK    5  A    between atoms: N_6  and  C_10 
REMARK    6  A    between atoms: C_9  and  C_10 
REMARK    7  A    between atoms: C_10  and  C_11 
REMARK       I    between atoms: N_17  and  C_18 
REMARK    8  A    between atoms: C_18  and  C_23 
REMARK    9  A    between atoms: C_21  and  C_23 
ROOT
HETATM    1  C           1     -21.381  -6.718  -5.933  0.00  0.00     0.275 C 
ENDROOT
BRANCH   1   2
HETATM    2  C           1     -20.759  -7.522  -4.817  0.00  0.00     0.249 C 
HETATM    3  O           1     -19.632  -7.941  -4.930  0.00  0.00    -0.271 OA
HETATM    4  N           1     -21.474  -7.775  -3.676  0.00  0.00    -0.344 N 
HETATM    5  H           1     -22.418  -7.424  -3.582  0.00  0.00     0.163 HD
BRANCH   4   6
HETATM    6  C           1     -20.877  -8.548  -2.604  0.00  0.00     0.195 C 
BRANCH   6   7
HETATM    7  C           1     -21.666  -9.816  -2.398  0.00  0.00     0.197 C 
HETATM    8  O           1     -22.341 -10.293  -3.336  0.00  0.00    -0.646 OA
HETATM    9  O           1     -21.644 -10.393  -1.290  0.00  0.00    -0.646 OA
ENDBRANCH   6   7
BRANCH   6  10
HETATM   10  C           1     -20.889  -7.727  -1.321  0.00  0.00     0.149 C 
BRANCH  10  11
HETATM   11  C           1     -22.137  -6.880  -1.277  0.00  0.00     0.175 C 
HETATM   12  O           1     -22.247  -5.888  -2.031  0.00  0.00    -0.648 OA
HETATM   13  O           1     -23.061  -7.170  -0.488  0.00  0.00    -0.648 OA
ENDBRANCH  10  11
ENDBRANCH   6  10
ENDBRANCH   4   6
ENDBRANCH   1   2
BRANCH   1  14
HETATM   14  C           1     -20.325  -5.815  -6.558  0.00  0.00     0.052 C 
BRANCH  14  15
HETATM   15  C           1     -20.867  -4.396  -6.661  0.00  0.00     0.105 C 
BRANCH  15  16
HETATM   16  C           1     -21.378  -4.152  -8.060  0.00  0.00     0.215 C 
HETATM   17  O           1     -20.759  -4.568  -9.011  0.00  0.00    -0.274 OA
HETATM   18  N           1     -22.543  -3.459  -8.251  0.00  0.00    -0.370 N 
HETATM   19  H           1     -22.887  -3.295  -9.189  0.00  0.00     0.159 HD
HETATM   20  H           1     -23.062  -3.110  -7.456  0.00  0.00     0.159 HD
ENDBRANCH  15  16
ENDBRANCH  14  15
ENDBRANCH   1  14
BRANCH   1  21
HETATM   21  N           1     -22.494  -5.877  -5.383  0.00  0.00    -0.066 N 
HETATM   22  H           1     -23.226  -5.745  -6.118  0.00  0.00     0.275 HD
HETATM   23  H           1     -22.119  -4.945  -5.095  0.00  0.00     0.275 HD
HETATM   24  H           1     -22.915  -6.355  -4.554  0.00  0.00     0.275 HD
ENDBRANCH   1  21
TORSDOF 9
ENDMDL
MODEL 9
REMARK VINA RESULT:      -5.0     13.558     16.583
REMARK  9 active torsions:
REMARK  status: ('A' for Active; 'I' for Inactive)
REMARK    1  A    between atoms: C_2  and  C_11 
REMARK    2  A    between atoms: C_4  and  C_5 
REMARK    3  A    between atoms: C_4  and  C_21 
REMARK    4  A    between atoms: C_4  and  N_24 
REMARK       I    between atoms: C_5  and  N_6 
REMARK    5  A    between atoms: N_6  and  C_10 
REMARK    6  A    between atoms: C_9  and  C_10 
REMARK    7  A    between atoms: C_10  and  C_11 
REMARK       I    between atoms: N_17  and  C_18 
REMARK    8  A    between atoms: C_18  and  C_23 
REMARK    9  A    between atoms: C_21  and  C_23 
ROOT
HETATM    1  C           1     -21.385  -5.205  -6.488  0.00  0.00     0.275 C 
ENDROOT
BRANCH   1   2
HETATM    2  C           1     -21.947  -6.077  -5.392  0.00  0.00     0.249 C 
HETATM    3  O           1     -23.140  -6.122  -5.208  0.00  0.00    -0.271 OA
HETATM    4  N           1     -21.104  -6.820  -4.609  0.00  0.00    -0.344 N 
HETATM    5  H           1     -20.105  -6.782  -4.763  0.00  0.00     0.163 HD
BRANCH   4   6
HETATM    6  C           1     -21.644  -7.658  -3.555  0.00  0.00     0.195 C 
BRANCH   6   7
HETATM    7  C           1     -21.560  -6.929  -2.238  0.00  0.00     0.197 C 
HETATM    8  O           1     -22.231  -5.890  -2.054  0.00  0.00    -0.646 OA
HETATM    9  O           1     -20.821  -7.363  -1.329  0.00  0.00    -0.646 OA
ENDBRANCH   6   7
BRANCH   6  10
HETATM   10  C           1     -20.840  -8.950  -3.474  0.00  0.00     0.149 C 
BRANCH  10  11
HETATM   11  C           1     -21.766 -10.099  -3.157  0.00  0.00     0.175 C 
HETATM   12  O           1     -21.917 -10.472  -1.973  0.00  0.00    -0.648 OA
HETATM   13  O           1     -22.382 -10.678  -4.077  0.00  0.00    -0.648 OA
ENDBRANCH  10  11
ENDBRANCH   6  10
ENDBRANCH   4   6
ENDBRANCH   1   2
BRANCH   1  14
HETATM   14  C           1     -22.516  -4.429  -7.149  0.00  0.00     0.052 C 
BRANCH  14  15
HETATM   15  C           1     -22.247  -4.313  -8.644  0.00  0.00     0.105 C 
BRANCH  15  16
HETATM   16  C           1     -23.557  -4.248  -9.389  0.00  0.00     0.215 C 
HETATM   17  O           1     -23.781  -5.024 -10.287  0.00  0.00    -0.274 OA
HETATM   18  N           1     -24.492  -3.308  -9.047  0.00  0.00    -0.370 N 
HETATM   19  H           1     -25.372  -3.264  -9.547  0.00  0.00     0.159 HD
HETATM   20  H           1     -24.305  -2.657  -8.296  0.00  0.00     0.159 HD
ENDBRANCH  15  16
ENDBRANCH  14  15
ENDBRANCH   1  14
BRANCH   1  21
HETATM   21  N           1     -20.704  -6.064  -7.511  0.00  0.00    -0.066 N 
HETATM   22  H           1     -19.669  -5.926  -7.449  0.00  0.00     0.275 HD
HETATM   23  H           1     -21.032  -5.797  -8.466  0.00  0.00     0.275 HD
HETATM   24  H           1     -20.933  -7.067  -7.332  0.00  0.00     0.275 HD
ENDBRANCH   1  21
TORSDOF 9
ENDMDL
