MODEL 1
REMARK VINA RESULT:      -5.8      0.000      0.000
REMARK  10 active torsions:
REMARK  status: ('A' for Active; 'I' for Inactive)
REMARK    1  A    between atoms: N_1  and  C_11 
REMARK    2  A    between atoms: Se_2  and  C_20 
REMARK    3  A    between atoms: N_4  and  C_17 
REMARK    4  A    between atoms: C_6  and  C_23 
REMARK    5  A    between atoms: C_11  and  C_14 
REMARK    6  A    between atoms: C_11  and  C_12 
REMARK    7  A    between atoms: C_12  and  C_21 
REMARK       I    between atoms: C_14  and  N_22 
REMARK    8  A    between atoms: C_17  and  C_21 
REMARK    9  A    between atoms: C_20  and  C_23 
REMARK   10  A    between atoms: N_22  and  C_23 
ROOT
HETATM    1  C           1     -34.226  -3.966 -12.582  0.00  0.00     0.274 C 
ENDROOT
BRANCH   1   2
HETATM    2  N           1     -33.594  -4.130 -13.933  0.00  0.00    -0.067 N 
HETATM    3  H           1     -34.020  -4.950 -14.420  0.00  0.00     0.275 HD
HETATM    4  H           1     -33.753  -3.267 -14.500  0.00  0.00     0.275 HD
HETATM    5  H           1     -32.567  -4.289 -13.819  0.00  0.00     0.275 HD
ENDBRANCH   1   2
BRANCH   1   6
HETATM    6  C           1     -34.280  -2.501 -12.228  0.00  0.00     0.249 C 
HETATM    7  O           1     -33.740  -2.102 -11.224  0.00  0.00    -0.271 OA
HETATM    8  N           1     -34.942  -1.622 -13.044  0.00  0.00    -0.345 N 
HETATM    9  H           1     -35.394  -1.957 -13.886  0.00  0.00     0.163 HD
BRANCH   8  10
HETATM   10  C           1     -34.993  -0.214 -12.703  0.00  0.00     0.185 C 
BRANCH  10  11
HETATM   11  C           1     -36.236   0.061 -11.892  0.00  0.00     0.196 C 
HETATM   12  O           1     -36.138   0.381 -10.688  0.00  0.00    -0.646 OA
HETATM   13  O           1     -37.363  -0.031 -12.425  0.00  0.00    -0.646 OA
ENDBRANCH  10  11
BRANCH  10  14
HETATM   14  C           1     -35.025   0.615 -13.980  0.00  0.00     0.039 C 
BRANCH  14  15
HETATM   15 Se           1     -35.621  -0.499 -15.464  0.00  0.00     0.000 Se
HETATM   16  H           1     -37.009  -0.011 -15.424  0.00  0.00     0.000 HD
ENDBRANCH  14  15
ENDBRANCH  10  14
ENDBRANCH   8  10
ENDBRANCH   1   6
BRANCH   1  17
HETATM   17  C           1     -33.401  -4.711 -11.542  0.00  0.00     0.044 C 
BRANCH  17  18
HETATM   18  C           1     -34.329  -5.338 -10.510  0.00  0.00     0.030 C 
BRANCH  18  19
HETATM   19  C           1     -34.302  -6.854 -10.654  0.00  0.00     0.230 C 
BRANCH  19  20
HETATM   20  N           1     -35.071  -7.477  -9.528  0.00  0.00    -0.079 N 
HETATM   21  H           1     -35.039  -8.519  -9.617  0.00  0.00     0.274 HD
HETATM   22  H           1     -34.646  -7.194  -8.616  0.00  0.00     0.274 HD
HETATM   23  H           1     -36.064  -7.156  -9.564  0.00  0.00     0.274 HD
ENDBRANCH  19  20
ENDBRANCH  18  19
ENDBRANCH  17  18
ENDBRANCH   1  17
TORSDOF 10
ENDMDL
MODEL 2
REMARK VINA RESULT:      -5.7     11.459     13.035
REMARK  10 active torsions:
REMARK  status: ('A' for Active; 'I' for Inactive)
REMARK    1  A    between atoms: N_1  and  C_11 
REMARK    2  A    between atoms: Se_2  and  C_20 
REMARK    3  A    between atoms: N_4  and  C_17 
REMARK    4  A    between atoms: C_6  and  C_23 
REMARK    5  A    between atoms: C_11  and  C_14 
REMARK    6  A    between atoms: C_11  and  C_12 
REMARK    7  A    between atoms: C_12  and  C_21 
REMARK       I    between atoms: C_14  and  N_22 
REMARK    8  A    between atoms: C_17  and  C_21 
REMARK    9  A    between atoms: C_20  and  C_23 
REMARK   10  A    between atoms: N_22  and  C_23 
ROOT
HETATM    1  C           1     -25.366  -7.604 -20.321  0.00  0.00     0.274 C 
ENDROOT
BRANCH   1   2
HETATM    2  N           1     -26.802  -7.868 -20.665  0.00  0.00    -0.067 N 
HETATM    3  H           1     -26.852  -8.423 -21.549  0.00  0.00     0.275 HD
HETATM    4  H           1     -27.253  -8.406 -19.891  0.00  0.00     0.275 HD
HETATM    5  H           1     -27.301  -6.959 -20.797  0.00  0.00     0.275 HD
ENDBRANCH   1   2
BRANCH   1   6
HETATM    6  C           1     -25.293  -6.878 -19.000  0.00  0.00     0.249 C 
HETATM    7  O           1     -24.229  -6.477 -18.590  0.00  0.00    -0.271 OA
HETATM    8  N           1     -26.430  -6.673 -18.266  0.00  0.00    -0.345 N 
HETATM    9  H           1     -27.321  -7.008 -18.611  0.00  0.00     0.163 HD
BRANCH   8  10
HETATM   10  C           1     -26.359  -5.975 -16.998  0.00  0.00     0.185 C 
BRANCH  10  11
HETATM   11  C           1     -26.329  -6.980 -15.873  0.00  0.00     0.196 C 
HETATM   12  O           1     -27.398  -7.401 -15.383  0.00  0.00    -0.646 OA
HETATM   13  O           1     -25.234  -7.391 -15.431  0.00  0.00    -0.646 OA
ENDBRANCH  10  11
BRANCH  10  14
HETATM   14  C           1     -27.579  -5.076 -16.845  0.00  0.00     0.039 C 
BRANCH  14  15
HETATM   15 Se           1     -28.823  -5.416 -18.306  0.00  0.00     0.000 Se
HETATM   16  H           1     -27.937  -6.368 -18.993  0.00  0.00     0.000 HD
ENDBRANCH  14  15
ENDBRANCH  10  14
ENDBRANCH   8  10
ENDBRANCH   1   6
BRANCH   1  17
HETATM   17  C           1     -24.732  -6.747 -21.409  0.00  0.00     0.044 C 
BRANCH  17  18
HETATM   18  C           1     -24.082  -7.648 -22.451  0.00  0.00     0.030 C 
BRANCH  18  19
HETATM   19  C           1     -22.930  -8.413 -21.815  0.00  0.00     0.230 C 
BRANCH  19  20
HETATM   20  N           1     -22.481  -9.503 -22.742  0.00  0.00    -0.079 N 
HETATM   21  H           1     -23.273 -10.164 -22.913  0.00  0.00     0.274 HD
HETATM   22  H           1     -22.175  -9.085 -23.649  0.00  0.00     0.274 HD
HETATM   23  H           1     -21.683 -10.021 -22.310  0.00  0.00     0.274 HD
ENDBRANCH  19  20
ENDBRANCH  18  19
ENDBRANCH  17  18
ENDBRANCH   1  17
TORSDOF 10
ENDMDL
MODEL 3
REMARK VINA RESULT:      -5.6     12.755     13.900
REMARK  10 active torsions:
REMARK  status: ('A' for Active; 'I' for Inactive)
REMARK    1  A    between atoms: N_1  and  C_11 
REMARK    2  A    between atoms: Se_2  and  C_20 
REMARK    3  A    between atoms: N_4  and  C_17 
REMARK    4  A    between atoms: C_6  and  C_23 
REMARK    5  A    between atoms: C_11  and  C_14 
REMARK    6  A    between atoms: C_11  and  C_12 
REMARK    7  A    between atoms: C_12  and  C_21 
REMARK       I    between atoms: C_14  and  N_22 
REMARK    8  A    between atoms: C_17  and  C_21 
REMARK    9  A    between atoms: C_20  and  C_23 
REMARK   10  A    between atoms: N_22  and  C_23 
ROOT
HETATM    1  C           1     -21.206  -5.779  -6.995  0.00  0.00     0.274 C 
ENDROOT
BRANCH   1   2
HETATM    2  N           1     -19.882  -6.146  -7.598  0.00  0.00    -0.067 N 
HETATM    3  H           1     -19.952  -7.087  -8.047  0.00  0.00     0.275 HD
HETATM    4  H           1     -19.618  -5.435  -8.317  0.00  0.00     0.275 HD
HETATM    5  H           1     -19.153  -6.172  -6.849  0.00  0.00     0.275 HD
ENDBRANCH   1   2
BRANCH   1   6
HETATM    6  C           1     -21.777  -4.588  -7.725  0.00  0.00     0.249 C 
HETATM    7  O           1     -21.746  -3.494  -7.212  0.00  0.00    -0.271 OA
HETATM    8  N           1     -22.330  -4.747  -8.967  0.00  0.00    -0.345 N 
HETATM    9  H           1     -22.354  -5.664  -9.396  0.00  0.00     0.163 HD
BRANCH   8  10
HETATM   10  C           1     -22.878  -3.602  -9.668  0.00  0.00     0.185 C 
BRANCH  10  11
HETATM   11  C           1     -24.279  -3.920 -10.129  0.00  0.00     0.196 C 
HETATM   12  O           1     -24.813  -5.002  -9.806  0.00  0.00    -0.646 OA
HETATM   13  O           1     -24.906  -3.100 -10.834  0.00  0.00    -0.646 OA
ENDBRANCH  10  11
BRANCH  10  14
HETATM   14  C           1     -22.006  -3.282 -10.875  0.00  0.00     0.039 C 
BRANCH  14  15
HETATM   15 Se           1     -20.411  -4.401 -10.839  0.00  0.00     0.000 Se
HETATM   16  H           1     -21.145  -5.655 -11.070  0.00  0.00     0.000 HD
ENDBRANCH  14  15
ENDBRANCH  10  14
ENDBRANCH   8  10
ENDBRANCH   1   6
BRANCH   1  17
HETATM   17  C           1     -21.014  -5.431  -5.524  0.00  0.00     0.044 C 
BRANCH  17  18
HETATM   18  C           1     -21.916  -6.313  -4.671  0.00  0.00     0.030 C 
BRANCH  18  19
HETATM   19  C           1     -21.368  -6.381  -3.252  0.00  0.00     0.230 C 
BRANCH  19  20
HETATM   20  N           1     -22.415  -5.908  -2.289  0.00  0.00    -0.079 N 
HETATM   21  H           1     -23.117  -5.321  -2.796  0.00  0.00     0.274 HD
HETATM   22  H           1     -22.895  -6.732  -1.862  0.00  0.00     0.274 HD
HETATM   23  H           1     -21.965  -5.339  -1.537  0.00  0.00     0.274 HD
ENDBRANCH  19  20
ENDBRANCH  18  19
ENDBRANCH  17  18
ENDBRANCH   1  17
TORSDOF 10
ENDMDL
MODEL 4
REMARK VINA RESULT:      -5.3     14.531     16.301
REMARK  10 active torsions:
REMARK  status: ('A' for Active; 'I' for Inactive)
REMARK    1  A    between atoms: N_1  and  C_11 
REMARK    2  A    between atoms: Se_2  and  C_20 
REMARK    3  A    between atoms: N_4  and  C_17 
REMARK    4  A    between atoms: C_6  and  C_23 
REMARK    5  A    between atoms: C_11  and  C_14 
REMARK    6  A    between atoms: C_11  and  C_12 
REMARK    7  A    between atoms: C_12  and  C_21 
REMARK       I    between atoms: C_14  and  N_22 
REMARK    8  A    between atoms: C_17  and  C_21 
REMARK    9  A    between atoms: C_20  and  C_23 
REMARK   10  A    between atoms: N_22  and  C_23 
ROOT
HETATM    1  C           1     -20.497  -4.975  -6.577  0.00  0.00     0.274 C 
ENDROOT
BRANCH   1   2
HETATM    2  N           1     -19.978  -5.863  -7.670  0.00  0.00    -0.067 N 
HETATM    3  H           1     -18.933  -5.839  -7.672  0.00  0.00     0.275 HD
HETATM    4  H           1     -20.303  -6.843  -7.507  0.00  0.00     0.275 HD
HETATM    5  H           1     -20.334  -5.524  -8.592  0.00  0.00     0.275 HD
ENDBRANCH   1   2
BRANCH   1   6
HETATM    6  C           1     -21.387  -5.777  -5.660  0.00  0.00     0.249 C 
HETATM    7  O           1     -22.584  -5.616  -5.688  0.00  0.00    -0.271 OA
HETATM    8  N           1     -20.839  -6.687  -4.796  0.00  0.00    -0.345 N 
HETATM    9  H           1     -19.836  -6.822  -4.774  0.00  0.00     0.163 HD
BRANCH   8  10
HETATM   10  C           1     -21.696  -7.457  -3.915  0.00  0.00     0.185 C 
BRANCH  10  11
HETATM   11  C           1     -21.624  -6.886  -2.520  0.00  0.00     0.196 C 
HETATM   12  O           1     -22.319  -5.894  -2.215  0.00  0.00    -0.646 OA
HETATM   13  O           1     -20.869  -7.407  -1.670  0.00  0.00    -0.646 OA
ENDBRANCH  10  11
BRANCH  10  14
HETATM   14  C           1     -21.229  -8.907  -3.896  0.00  0.00     0.039 C 
BRANCH  14  15
HETATM   15 Se           1     -19.463  -9.032  -4.710  0.00  0.00     0.000 Se
HETATM   16  H           1     -19.212 -10.401  -4.231  0.00  0.00     0.000 HD
ENDBRANCH  14  15
ENDBRANCH  10  14
ENDBRANCH   8  10
ENDBRANCH   1   6
BRANCH   1  17
HETATM   17  C           1     -21.294  -3.831  -7.189  0.00  0.00     0.044 C 
BRANCH  17  18
HETATM   18  C           1     -21.453  -4.065  -8.686  0.00  0.00     0.030 C 
BRANCH  18  19
HETATM   19  C           1     -22.889  -3.769  -9.098  0.00  0.00     0.230 C 
BRANCH  19  20
HETATM   20  N           1     -23.811  -4.080  -7.958  0.00  0.00    -0.079 N 
HETATM   21  H           1     -23.250  -4.274  -7.097  0.00  0.00     0.274 HD
HETATM   22  H           1     -24.441  -3.264  -7.786  0.00  0.00     0.274 HD
HETATM   23  H           1     -24.386  -4.920  -8.194  0.00  0.00     0.274 HD
ENDBRANCH  19  20
ENDBRANCH  18  19
ENDBRANCH  17  18
ENDBRANCH   1  17
TORSDOF 10
ENDMDL
MODEL 5
REMARK VINA RESULT:      -5.2      2.717      3.595
REMARK  10 active torsions:
REMARK  status: ('A' for Active; 'I' for Inactive)
REMARK    1  A    between atoms: N_1  and  C_11 
REMARK    2  A    between atoms: Se_2  and  C_20 
REMARK    3  A    between atoms: N_4  and  C_17 
REMARK    4  A    between atoms: C_6  and  C_23 
REMARK    5  A    between atoms: C_11  and  C_14 
REMARK    6  A    between atoms: C_11  and  C_12 
REMARK    7  A    between atoms: C_12  and  C_21 
REMARK       I    between atoms: C_14  and  N_22 
REMARK    8  A    between atoms: C_17  and  C_21 
REMARK    9  A    between atoms: C_20  and  C_23 
REMARK   10  A    between atoms: N_22  and  C_23 
ROOT
HETATM    1  C           1     -34.013  -3.449 -10.372  0.00  0.00     0.274 C 
ENDROOT
BRANCH   1   2
HETATM    2  N           1     -34.221  -4.933 -10.302  0.00  0.00    -0.067 N 
HETATM    3  H           1     -35.245  -5.143 -10.300  0.00  0.00     0.275 HD
HETATM    4  H           1     -33.774  -5.387 -11.130  0.00  0.00     0.275 HD
HETATM    5  H           1     -33.790  -5.304  -9.425  0.00  0.00     0.275 HD
ENDBRANCH   1   2
BRANCH   1   6
HETATM    6  C           1     -35.327  -2.773 -10.676  0.00  0.00     0.249 C 
HETATM    7  O           1     -36.343  -3.425 -10.735  0.00  0.00    -0.271 OA
HETATM    8  N           1     -35.370  -1.420 -10.885  0.00  0.00    -0.345 N 
HETATM    9  H           1     -34.519  -0.874 -10.834  0.00  0.00     0.163 HD
BRANCH   8  10
HETATM   10  C           1     -36.633  -0.771 -11.177  0.00  0.00     0.185 C 
BRANCH  10  11
HETATM   11  C           1     -36.650  -0.333 -12.621  0.00  0.00     0.196 C 
HETATM   12  O           1     -37.534  -0.761 -13.393  0.00  0.00    -0.646 OA
HETATM   13  O           1     -35.780   0.459 -13.044  0.00  0.00    -0.646 OA
ENDBRANCH  10  11
BRANCH  10  14
HETATM   14  C           1     -36.798   0.445 -10.274  0.00  0.00     0.039 C 
BRANCH  14  15
HETATM   15 Se           1     -37.244  -0.141  -8.470  0.00  0.00     0.000 Se
HETATM   16  H           1     -36.355  -1.314  -8.507  0.00  0.00     0.000 HD
ENDBRANCH  14  15
ENDBRANCH  10  14
ENDBRANCH   8  10
ENDBRANCH   1   6
BRANCH   1  17
HETATM   17  C           1     -33.009  -3.128 -11.471  0.00  0.00     0.044 C 
BRANCH  17  18
HETATM   18  C           1     -33.026  -4.238 -12.515  0.00  0.00     0.030 C 
BRANCH  18  19
HETATM   19  C           1     -34.062  -3.915 -13.584  0.00  0.00     0.230 C 
BRANCH  19  20
HETATM   20  N           1     -33.519  -4.282 -14.933  0.00  0.00    -0.079 N 
HETATM   21  H           1     -32.954  -5.158 -14.856  0.00  0.00     0.274 HD
HETATM   22  H           1     -34.311  -4.436 -15.597  0.00  0.00     0.274 HD
HETATM   23  H           1     -32.913  -3.508 -15.286  0.00  0.00     0.274 HD
ENDBRANCH  19  20
ENDBRANCH  18  19
ENDBRANCH  17  18
ENDBRANCH   1  17
TORSDOF 10
ENDMDL
MODEL 6
REMARK VINA RESULT:      -5.1     10.640     12.328
REMARK  10 active torsions:
REMARK  status: ('A' for Active; 'I' for Inactive)
REMARK    1  A    between atoms: N_1  and  C_11 
REMARK    2  A    between atoms: Se_2  and  C_20 
REMARK    3  A    between atoms: N_4  and  C_17 
REMARK    4  A    between atoms: C_6  and  C_23 
REMARK    5  A    between atoms: C_11  and  C_14 
REMARK    6  A    between atoms: C_11  and  C_12 
REMARK    7  A    between atoms: C_12  and  C_21 
REMARK       I    between atoms: C_14  and  N_22 
REMARK    8  A    between atoms: C_17  and  C_21 
REMARK    9  A    between atoms: C_20  and  C_23 
REMARK   10  A    between atoms: N_22  and  C_23 
ROOT
HETATM    1  C           1     -28.665  -6.224 -18.521  0.00  0.00     0.274 C 
ENDROOT
BRANCH   1   2
HETATM    2  N           1     -29.117  -7.645 -18.356  0.00  0.00    -0.067 N 
HETATM    3  H           1     -30.120  -7.727 -18.641  0.00  0.00     0.275 HD
HETATM    4  H           1     -28.533  -8.269 -18.958  0.00  0.00     0.275 HD
HETATM    5  H           1     -29.016  -7.929 -17.356  0.00  0.00     0.275 HD
ENDBRANCH   1   2
BRANCH   1   6
HETATM    6  C           1     -27.502  -6.175 -19.481  0.00  0.00     0.249 C 
HETATM    7  O           1     -27.542  -5.442 -20.441  0.00  0.00    -0.271 OA
HETATM    8  N           1     -26.402  -6.962 -19.265  0.00  0.00    -0.345 N 
HETATM    9  H           1     -26.369  -7.575 -18.460  0.00  0.00     0.163 HD
BRANCH   8  10
HETATM   10  C           1     -25.285  -6.914 -20.188  0.00  0.00     0.185 C 
BRANCH  10  11
HETATM   11  C           1     -25.466  -7.971 -21.250  0.00  0.00     0.196 C 
HETATM   12  O           1     -24.551  -8.195 -22.070  0.00  0.00    -0.646 OA
HETATM   13  O           1     -26.531  -8.622 -21.308  0.00  0.00    -0.646 OA
ENDBRANCH  10  11
BRANCH  10  14
HETATM   14  C           1     -23.990  -7.173 -19.429  0.00  0.00     0.039 C 
BRANCH  14  15
HETATM   15 Se           1     -24.345  -7.154 -17.513  0.00  0.00     0.000 Se
HETATM   16  H           1     -23.085  -6.475 -17.169  0.00  0.00     0.000 HD
ENDBRANCH  14  15
ENDBRANCH  10  14
ENDBRANCH   8  10
ENDBRANCH   1   6
BRANCH   1  17
HETATM   17  C           1     -28.233  -5.669 -17.169  0.00  0.00     0.044 C 
BRANCH  17  18
HETATM   18  C           1     -28.870  -4.303 -16.953  0.00  0.00     0.030 C 
BRANCH  18  19
HETATM   19  C           1     -30.220  -4.254 -17.656  0.00  0.00     0.230 C 
BRANCH  19  20
HETATM   20  N           1     -30.714  -2.838 -17.693  0.00  0.00    -0.079 N 
HETATM   21  H           1     -31.065  -2.615 -18.652  0.00  0.00     0.274 HD
HETATM   22  H           1     -31.490  -2.722 -17.003  0.00  0.00     0.274 HD
HETATM   23  H           1     -29.931  -2.190 -17.449  0.00  0.00     0.274 HD
ENDBRANCH  19  20
ENDBRANCH  18  19
ENDBRANCH  17  18
ENDBRANCH   1  17
TORSDOF 10
ENDMDL
MODEL 7
REMARK VINA RESULT:      -4.8     15.206     16.470
REMARK  10 active torsions:
REMARK  status: ('A' for Active; 'I' for Inactive)
REMARK    1  A    between atoms: N_1  and  C_11 
REMARK    2  A    between atoms: Se_2  and  C_20 
REMARK    3  A    between atoms: N_4  and  C_17 
REMARK    4  A    between atoms: C_6  and  C_23 
REMARK    5  A    between atoms: C_11  and  C_14 
REMARK    6  A    between atoms: C_11  and  C_12 
REMARK    7  A    between atoms: C_12  and  C_21 
REMARK       I    between atoms: C_14  and  N_22 
REMARK    8  A    between atoms: C_17  and  C_21 
REMARK    9  A    between atoms: C_20  and  C_23 
REMARK   10  A    between atoms: N_22  and  C_23 
ROOT
HETATM    1  C           1     -21.361  -6.637  -2.669  0.00  0.00     0.274 C 
ENDROOT
BRANCH   1   2
HETATM    2  N           1     -22.406  -5.764  -2.040  0.00  0.00    -0.067 N 
HETATM    3  H           1     -22.617  -6.111  -1.077  0.00  0.00     0.275 HD
HETATM    4  H           1     -22.054  -4.782  -1.987  0.00  0.00     0.275 HD
HETATM    5  H           1     -23.277  -5.793  -2.617  0.00  0.00     0.275 HD
ENDBRANCH   1   2
BRANCH   1   6
HETATM    6  C           1     -21.502  -6.586  -4.171  0.00  0.00     0.249 C 
HETATM    7  O           1     -22.019  -7.506  -4.760  0.00  0.00    -0.271 OA
HETATM    8  N           1     -21.045  -5.499  -4.866  0.00  0.00    -0.345 N 
HETATM    9  H           1     -20.613  -4.728  -4.371  0.00  0.00     0.163 HD
BRANCH   8  10
HETATM   10  C           1     -21.182  -5.451  -6.309  0.00  0.00     0.185 C 
BRANCH  10  11
HETATM   11  C           1     -19.848  -5.748  -6.949  0.00  0.00     0.196 C 
HETATM   12  O           1     -19.173  -4.821  -7.444  0.00  0.00    -0.646 OA
HETATM   13  O           1     -19.419  -6.922  -6.984  0.00  0.00    -0.646 OA
ENDBRANCH  10  11
BRANCH  10  14
HETATM   14  C           1     -21.649  -4.063  -6.727  0.00  0.00     0.039 C 
BRANCH  14  15
HETATM   15 Se           1     -22.625  -4.185  -8.409  0.00  0.00     0.000 Se
HETATM   16  H           1     -23.889  -4.600  -7.779  0.00  0.00     0.000 HD
ENDBRANCH  14  15
ENDBRANCH  10  14
ENDBRANCH   8  10
ENDBRANCH   1   6
BRANCH   1  17
HETATM   17  C           1     -21.541  -8.071  -2.189  0.00  0.00     0.044 C 
BRANCH  17  18
HETATM   18  C           1     -21.367  -8.127  -0.677  0.00  0.00     0.030 C 
BRANCH  18  19
HETATM   19  C           1     -22.493  -8.949  -0.065  0.00  0.00     0.230 C 
BRANCH  19  20
HETATM   20  N           1     -23.486  -8.032   0.584  0.00  0.00    -0.079 N 
HETATM   21  H           1     -23.008  -7.150   0.877  0.00  0.00     0.274 HD
HETATM   22  H           1     -24.248  -7.806  -0.095  0.00  0.00     0.274 HD
HETATM   23  H           1     -23.896  -8.500   1.424  0.00  0.00     0.274 HD
ENDBRANCH  19  20
ENDBRANCH  18  19
ENDBRANCH  17  18
ENDBRANCH   1  17
TORSDOF 10
ENDMDL
MODEL 8
REMARK VINA RESULT:      -4.7      1.972      2.201
REMARK  10 active torsions:
REMARK  status: ('A' for Active; 'I' for Inactive)
REMARK    1  A    between atoms: N_1  and  C_11 
REMARK    2  A    between atoms: Se_2  and  C_20 
REMARK    3  A    between atoms: N_4  and  C_17 
REMARK    4  A    between atoms: C_6  and  C_23 
REMARK    5  A    between atoms: C_11  and  C_14 
REMARK    6  A    between atoms: C_11  and  C_12 
REMARK    7  A    between atoms: C_12  and  C_21 
REMARK       I    between atoms: C_14  and  N_22 
REMARK    8  A    between atoms: C_17  and  C_21 
REMARK    9  A    between atoms: C_20  and  C_23 
REMARK   10  A    between atoms: N_22  and  C_23 
ROOT
HETATM    1  C           1     -34.303  -3.590 -12.509  0.00  0.00     0.274 C 
ENDROOT
BRANCH   1   2
HETATM    2  N           1     -33.863  -3.927 -13.903  0.00  0.00    -0.067 N 
HETATM    3  H           1     -34.664  -4.341 -14.432  0.00  0.00     0.275 HD
HETATM    4  H           1     -33.538  -3.059 -14.386  0.00  0.00     0.275 HD
HETATM    5  H           1     -33.080  -4.619 -13.863  0.00  0.00     0.275 HD
ENDBRANCH   1   2
BRANCH   1   6
HETATM    6  C           1     -34.671  -2.128 -12.440  0.00  0.00     0.249 C 
HETATM    7  O           1     -34.144  -1.411 -11.623  0.00  0.00    -0.271 OA
HETATM    8  N           1     -35.602  -1.614 -13.303  0.00  0.00    -0.345 N 
HETATM    9  H           1     -36.042  -2.215 -13.988  0.00  0.00     0.163 HD
BRANCH   8  10
HETATM   10  C           1     -35.955  -0.209 -13.235  0.00  0.00     0.185 C 
BRANCH  10  11
HETATM   11  C           1     -34.911   0.606 -13.958  0.00  0.00     0.196 C 
HETATM   12  O           1     -34.453   1.642 -13.431  0.00  0.00    -0.646 OA
HETATM   13  O           1     -34.506   0.245 -15.084  0.00  0.00    -0.646 OA
ENDBRANCH  10  11
BRANCH  10  14
HETATM   14  C           1     -36.021   0.226 -11.777  0.00  0.00     0.039 C 
BRANCH  14  15
HETATM   15 Se           1     -37.784  -0.184 -11.055  0.00  0.00     0.000 Se
HETATM   16  H           1     -37.755  -1.594 -11.474  0.00  0.00     0.000 HD
ENDBRANCH  14  15
ENDBRANCH  10  14
ENDBRANCH   8  10
ENDBRANCH   1   6
BRANCH   1  17
HETATM   17  C           1     -33.168  -3.876 -11.535  0.00  0.00     0.044 C 
BRANCH  17  18
HETATM   18  C           1     -33.086  -5.374 -11.276  0.00  0.00     0.030 C 
BRANCH  18  19
HETATM   19  C           1     -34.442  -5.884 -10.805  0.00  0.00     0.230 C 
BRANCH  19  20
HETATM   20  N           1     -34.416  -7.382 -10.736  0.00  0.00    -0.079 N 
HETATM   21  H           1     -35.321  -7.729 -10.344  0.00  0.00     0.274 HD
HETATM   22  H           1     -34.280  -7.773 -11.695  0.00  0.00     0.274 HD
HETATM   23  H           1     -33.630  -7.689 -10.120  0.00  0.00     0.274 HD
ENDBRANCH  19  20
ENDBRANCH  18  19
ENDBRANCH  17  18
ENDBRANCH   1  17
TORSDOF 10
ENDMDL
MODEL 9
REMARK VINA RESULT:      -4.7      8.567     10.463
REMARK  10 active torsions:
REMARK  status: ('A' for Active; 'I' for Inactive)
REMARK    1  A    between atoms: N_1  and  C_11 
REMARK    2  A    between atoms: Se_2  and  C_20 
REMARK    3  A    between atoms: N_4  and  C_17 
REMARK    4  A    between atoms: C_6  and  C_23 
REMARK    5  A    between atoms: C_11  and  C_14 
REMARK    6  A    between atoms: C_11  and  C_12 
REMARK    7  A    between atoms: C_12  and  C_21 
REMARK       I    between atoms: C_14  and  N_22 
REMARK    8  A    between atoms: C_17  and  C_21 
REMARK    9  A    between atoms: C_20  and  C_23 
REMARK   10  A    between atoms: N_22  and  C_23 
ROOT
HETATM    1  C           1     -29.122  -4.637 -16.848  0.00  0.00     0.274 C 
ENDROOT
BRANCH   1   2
HETATM    2  N           1     -28.275  -3.398 -16.860  0.00  0.00    -0.067 N 
HETATM    3  H           1     -27.265  -3.667 -16.855  0.00  0.00     0.275 HD
HETATM    4  H           1     -28.483  -2.841 -17.720  0.00  0.00     0.275 HD
HETATM    5  H           1     -28.485  -2.825 -16.012  0.00  0.00     0.275 HD
ENDBRANCH   1   2
BRANCH   1   6
HETATM    6  C           1     -28.241  -5.848 -17.028  0.00  0.00     0.249 C 
HETATM    7  O           1     -28.730  -6.953 -17.046  0.00  0.00    -0.271 OA
HETATM    8  N           1     -26.888  -5.697 -17.172  0.00  0.00    -0.345 N 
HETATM    9  H           1     -26.478  -4.771 -17.157  0.00  0.00     0.163 HD
BRANCH   8  10
HETATM   10  C           1     -26.042  -6.862 -17.345  0.00  0.00     0.185 C 
BRANCH  10  11
HETATM   11  C           1     -25.187  -7.049 -16.116  0.00  0.00     0.196 C 
HETATM   12  O           1     -25.312  -6.273 -15.144  0.00  0.00    -0.646 OA
HETATM   13  O           1     -24.354  -7.979 -16.070  0.00  0.00    -0.646 OA
ENDBRANCH  10  11
BRANCH  10  14
HETATM   14  C           1     -25.148  -6.662 -18.561  0.00  0.00     0.039 C 
BRANCH  14  15
HETATM   15 Se           1     -26.227  -6.747 -20.182  0.00  0.00     0.000 Se
HETATM   16  H           1     -26.385  -5.288 -20.292  0.00  0.00     0.000 HD
ENDBRANCH  14  15
ENDBRANCH  10  14
ENDBRANCH   8  10
ENDBRANCH   1   6
BRANCH   1  17
HETATM   17  C           1     -30.134  -4.570 -17.984  0.00  0.00     0.044 C 
BRANCH  17  18
HETATM   18  C           1     -31.337  -3.745 -17.545  0.00  0.00     0.030 C 
BRANCH  18  19
HETATM   19  C           1     -32.138  -4.524 -16.511  0.00  0.00     0.230 C 
BRANCH  19  20
HETATM   20  N           1     -32.561  -5.840 -17.093  0.00  0.00    -0.079 N 
HETATM   21  H           1     -33.476  -5.726 -17.587  0.00  0.00     0.274 HD
HETATM   22  H           1     -31.839  -6.169 -17.773  0.00  0.00     0.274 HD
HETATM   23  H           1     -32.665  -6.543 -16.327  0.00  0.00     0.274 HD
ENDBRANCH  19  20
ENDBRANCH  18  19
ENDBRANCH  17  18
ENDBRANCH   1  17
TORSDOF 10
ENDMDL
