MODEL 1
REMARK VINA RESULT:      -6.7      0.000      0.000
REMARK  8 active torsions:
REMARK  status: ('A' for Active; 'I' for Inactive)
REMARK    1  A    between atoms: C_1  and  C_2 
REMARK    2  A    between atoms: C_1  and  C_10 
REMARK    3  A    between atoms: C_1  and  N_16 
REMARK    4  A    between atoms: C_2  and  O_3 
REMARK    5  A    between atoms: N_7  and  C_14 
REMARK    6  A    between atoms: C_13  and  C_14 
REMARK    7  A    between atoms: C_13  and  C_19 
REMARK    8  A    between atoms: C_14  and  C_15 
REMARK       I    between atoms: C_15  and  N_16 
ROOT
HETATM    1  C           1     -34.521  -2.308 -11.916  0.00  0.00     0.280 C 
ENDROOT
BRANCH   1   2
HETATM    2  N           1     -33.841  -1.363 -10.972  0.00  0.00    -0.066 N 
HETATM    3  H           1     -34.450  -1.207 -10.136  0.00  0.00     0.275 HD
HETATM    4  H           1     -33.671  -0.451 -11.453  0.00  0.00     0.275 HD
HETATM    5  H           1     -32.928  -1.771 -10.668  0.00  0.00     0.275 HD
ENDBRANCH   1   2
BRANCH   1   6
HETATM    6  C           1     -35.337  -3.319 -11.122  0.00  0.00     0.101 C 
BRANCH   6   7
HETATM    7  C           1     -34.594  -4.617 -11.051  0.00  0.00     0.028 A 
HETATM    8  C           1     -33.357  -4.840 -11.606  0.00  0.00     0.114 A 
HETATM    9  N           1     -33.062  -6.140 -11.306  0.00  0.00    -0.360 N 
HETATM   10  H           1     -32.188  -6.657 -11.573  0.00  0.00     0.166 HD
HETATM   11  C           1     -34.113  -6.645 -10.593  0.00  0.00     0.180 A 
HETATM   12  N           1     -35.054  -5.745 -10.424  0.00  0.00    -0.355 N 
ATOM     13  HN          1     -35.939  -5.861  -9.929  1.00  0.00     0.166 HD
ENDBRANCH   6   7
ENDBRANCH   1   6
BRANCH   1  14
HETATM   14  C           1     -35.435  -1.533 -12.833  0.00  0.00     0.249 C 
HETATM   15  O           1     -36.579  -1.320 -12.508  0.00  0.00    -0.271 OA
HETATM   16  N           1     -34.968  -1.069 -14.033  0.00  0.00    -0.343 N 
HETATM   17  H           1     -34.010  -1.247 -14.306  0.00  0.00     0.163 HD
BRANCH  16  18
HETATM   18  C           1     -35.845  -0.323 -14.914  0.00  0.00     0.209 C 
BRANCH  18  19
HETATM   19  C           1     -35.373   1.123 -14.997  0.00  0.00     0.200 C 
BRANCH  19  20
HETATM   20  O           1     -36.140   1.812 -15.947  0.00  0.00    -0.398 OA
HETATM   21  H           1     -36.999   1.425 -15.937  0.00  0.00     0.209 HD
ENDBRANCH  19  20
ENDBRANCH  18  19
BRANCH  18  22
HETATM   22  C           1     -35.818  -0.939 -16.291  0.00  0.00     0.198 C 
HETATM   23  O           1     -36.774  -0.757 -17.075  0.00  0.00    -0.646 OA
HETATM   24  O           1     -34.840  -1.631 -16.647  0.00  0.00    -0.646 OA
ENDBRANCH  18  22
ENDBRANCH  16  18
ENDBRANCH   1  14
TORSDOF 8
ENDMDL
MODEL 2
REMARK VINA RESULT:      -6.4      1.796      2.758
REMARK  8 active torsions:
REMARK  status: ('A' for Active; 'I' for Inactive)
REMARK    1  A    between atoms: C_1  and  C_2 
REMARK    2  A    between atoms: C_1  and  C_10 
REMARK    3  A    between atoms: C_1  and  N_16 
REMARK    4  A    between atoms: C_2  and  O_3 
REMARK    5  A    between atoms: N_7  and  C_14 
REMARK    6  A    between atoms: C_13  and  C_14 
REMARK    7  A    between atoms: C_13  and  C_19 
REMARK    8  A    between atoms: C_14  and  C_15 
REMARK       I    between atoms: C_15  and  N_16 
ROOT
HETATM    1  C           1     -34.288  -4.069 -12.541  0.00  0.00     0.280 C 
ENDROOT
BRANCH   1   2
HETATM    2  N           1     -33.655  -4.061 -13.900  0.00  0.00    -0.066 N 
HETATM    3  H           1     -32.790  -4.648 -13.884  0.00  0.00     0.275 HD
HETATM    4  H           1     -33.405  -3.081 -14.162  0.00  0.00     0.275 HD
HETATM    5  H           1     -34.327  -4.448 -14.600  0.00  0.00     0.275 HD
ENDBRANCH   1   2
BRANCH   1   6
HETATM    6  C           1     -33.290  -4.599 -11.519  0.00  0.00     0.101 C 
BRANCH   6   7
HETATM    7  C           1     -33.851  -5.819 -10.858  0.00  0.00     0.028 A 
HETATM    8  C           1     -34.999  -5.840 -10.101  0.00  0.00     0.114 A 
HETATM    9  N           1     -35.135  -7.139  -9.699  0.00  0.00    -0.360 N 
HETATM   10  H           1     -35.906  -7.526  -9.100  0.00  0.00     0.166 HD
HETATM   11  C           1     -34.085  -7.841 -10.219  0.00  0.00     0.180 A 
HETATM   12  N           1     -33.293  -7.068 -10.925  0.00  0.00    -0.355 N 
ATOM     13  HN          1     -32.442  -7.340 -11.419  1.00  0.00     0.166 HD
ENDBRANCH   6   7
ENDBRANCH   1   6
BRANCH   1  14
HETATM   14  C           1     -34.694  -2.665 -12.166  0.00  0.00     0.249 C 
HETATM   15  O           1     -34.766  -2.347 -11.003  0.00  0.00    -0.271 OA
HETATM   16  N           1     -34.979  -1.751 -13.145  0.00  0.00    -0.343 N 
HETATM   17  H           1     -34.919  -2.017 -14.119  0.00  0.00     0.163 HD
BRANCH  16  18
HETATM   18  C           1     -35.368  -0.401 -12.785  0.00  0.00     0.209 C 
BRANCH  18  19
HETATM   19  C           1     -34.772   0.583 -13.783  0.00  0.00     0.200 C 
BRANCH  19  20
HETATM   20  O           1     -34.782   0.013 -15.065  0.00  0.00    -0.398 OA
HETATM   21  H           1     -33.903   0.072 -15.397  0.00  0.00     0.209 HD
ENDBRANCH  19  20
ENDBRANCH  18  19
BRANCH  18  22
HETATM   22  C           1     -36.873  -0.289 -12.807  0.00  0.00     0.198 C 
HETATM   23  O           1     -37.516  -0.712 -13.792  0.00  0.00    -0.646 OA
HETATM   24  O           1     -37.475   0.225 -11.841  0.00  0.00    -0.646 OA
ENDBRANCH  18  22
ENDBRANCH  16  18
ENDBRANCH   1  14
TORSDOF 8
ENDMDL
MODEL 3
REMARK VINA RESULT:      -6.3     13.117     14.669
REMARK  8 active torsions:
REMARK  status: ('A' for Active; 'I' for Inactive)
REMARK    1  A    between atoms: C_1  and  C_2 
REMARK    2  A    between atoms: C_1  and  C_10 
REMARK    3  A    between atoms: C_1  and  N_16 
REMARK    4  A    between atoms: C_2  and  O_3 
REMARK    5  A    between atoms: N_7  and  C_14 
REMARK    6  A    between atoms: C_13  and  C_14 
REMARK    7  A    between atoms: C_13  and  C_19 
REMARK    8  A    between atoms: C_14  and  C_15 
REMARK       I    between atoms: C_15  and  N_16 
ROOT
HETATM    1  C           1     -21.135  -5.631  -6.939  0.00  0.00     0.280 C 
ENDROOT
BRANCH   1   2
HETATM    2  N           1     -19.894  -6.236  -7.524  0.00  0.00    -0.066 N 
HETATM    3  H           1     -19.058  -5.891  -6.999  0.00  0.00     0.275 HD
HETATM    4  H           1     -19.811  -5.961  -8.528  0.00  0.00     0.275 HD
HETATM    5  H           1     -19.946  -7.277  -7.451  0.00  0.00     0.275 HD
ENDBRANCH   1   2
BRANCH   1   6
HETATM    6  C           1     -20.826  -5.077  -5.554  0.00  0.00     0.101 C 
BRANCH   6   7
HETATM    7  C           1     -21.170  -6.101  -4.518  0.00  0.00     0.028 A 
HETATM    8  C           1     -21.298  -7.448  -4.762  0.00  0.00     0.114 A 
HETATM    9  N           1     -21.615  -7.999  -3.552  0.00  0.00    -0.360 N 
HETATM   10  H           1     -21.788  -9.016  -3.359  0.00  0.00     0.166 HD
HETATM   11  C           1     -21.667  -6.983  -2.640  0.00  0.00     0.180 A 
HETATM   12  N           1     -21.401  -5.824  -3.196  0.00  0.00    -0.355 N 
ATOM     13  HN          1     -21.373  -4.911  -2.741  1.00  0.00     0.166 HD
ENDBRANCH   6   7
ENDBRANCH   1   6
BRANCH   1  14
HETATM   14  C           1     -21.619  -4.515  -7.831  0.00  0.00     0.249 C 
HETATM   15  O           1     -21.577  -3.371  -7.445  0.00  0.00    -0.271 OA
HETATM   16  N           1     -22.104  -4.798  -9.080  0.00  0.00    -0.343 N 
HETATM   17  H           1     -22.138  -5.756  -9.404  0.00  0.00     0.163 HD
BRANCH  16  18
HETATM   18  C           1     -22.568  -3.725  -9.938  0.00  0.00     0.209 C 
BRANCH  18  19
HETATM   19  C           1     -21.796  -3.754 -11.251  0.00  0.00     0.200 C 
BRANCH  19  20
HETATM   20  O           1     -22.552  -4.422 -12.224  0.00  0.00    -0.398 OA
HETATM   21  H           1     -22.046  -5.168 -12.501  0.00  0.00     0.209 HD
ENDBRANCH  19  20
ENDBRANCH  18  19
BRANCH  18  22
HETATM   22  C           1     -24.039  -3.906 -10.217  0.00  0.00     0.198 C 
HETATM   23  O           1     -24.700  -2.969 -10.716  0.00  0.00    -0.646 OA
HETATM   24  O           1     -24.598  -4.992  -9.951  0.00  0.00    -0.646 OA
ENDBRANCH  18  22
ENDBRANCH  16  18
ENDBRANCH   1  14
TORSDOF 8
ENDMDL
MODEL 4
REMARK VINA RESULT:      -5.7      1.485      2.045
REMARK  8 active torsions:
REMARK  status: ('A' for Active; 'I' for Inactive)
REMARK    1  A    between atoms: C_1  and  C_2 
REMARK    2  A    between atoms: C_1  and  C_10 
REMARK    3  A    between atoms: C_1  and  N_16 
REMARK    4  A    between atoms: C_2  and  O_3 
REMARK    5  A    between atoms: N_7  and  C_14 
REMARK    6  A    between atoms: C_13  and  C_14 
REMARK    7  A    between atoms: C_13  and  C_19 
REMARK    8  A    between atoms: C_14  and  C_15 
REMARK       I    between atoms: C_15  and  N_16 
ROOT
HETATM    1  C           1     -34.801  -1.576 -11.234  0.00  0.00     0.280 C 
ENDROOT
BRANCH   1   2
HETATM    2  N           1     -35.989  -2.448 -10.959  0.00  0.00    -0.066 N 
HETATM    3  H           1     -36.724  -1.891 -10.469  0.00  0.00     0.275 HD
HETATM    4  H           1     -35.701  -3.251 -10.355  0.00  0.00     0.275 HD
HETATM    5  H           1     -36.370  -2.812 -11.862  0.00  0.00     0.275 HD
ENDBRANCH   1   2
BRANCH   1   6
HETATM    6  C           1     -33.572  -2.448 -11.458  0.00  0.00     0.101 C 
BRANCH   6   7
HETATM    7  C           1     -33.986  -3.884 -11.539  0.00  0.00     0.028 A 
HETATM    8  C           1     -34.366  -4.524 -12.694  0.00  0.00     0.114 A 
HETATM    9  N           1     -34.656  -5.804 -12.311  0.00  0.00    -0.360 N 
HETATM   10  H           1     -34.982  -6.581 -12.938  0.00  0.00     0.166 HD
HETATM   11  C           1     -34.443  -5.887 -10.964  0.00  0.00     0.180 A 
HETATM   12  N           1     -34.037  -4.741 -10.470  0.00  0.00    -0.355 N 
ATOM     13  HN          1     -33.807  -4.532  -9.498  1.00  0.00     0.166 HD
ENDBRANCH   6   7
ENDBRANCH   1   6
BRANCH   1  14
HETATM   14  C           1     -35.060  -0.745 -12.466  0.00  0.00     0.249 C 
HETATM   15  O           1     -34.836   0.441 -12.454  0.00  0.00    -0.271 OA
HETATM   16  N           1     -35.549  -1.338 -13.600  0.00  0.00    -0.343 N 
HETATM   17  H           1     -35.736  -2.332 -13.611  0.00  0.00     0.163 HD
BRANCH  16  18
HETATM   18  C           1     -35.797  -0.540 -14.785  0.00  0.00     0.209 C 
BRANCH  18  19
HETATM   19  C           1     -35.428  -1.344 -16.026  0.00  0.00     0.200 C 
BRANCH  19  20
HETATM   20  O           1     -35.943  -0.709 -17.165  0.00  0.00    -0.398 OA
HETATM   21  H           1     -35.891  -1.331 -17.871  0.00  0.00     0.209 HD
ENDBRANCH  19  20
ENDBRANCH  18  19
BRANCH  18  22
HETATM   22  C           1     -37.259  -0.170 -14.844  0.00  0.00     0.198 C 
HETATM   23  O           1     -37.653   0.686 -15.666  0.00  0.00    -0.646 OA
HETATM   24  O           1     -38.075  -0.719 -14.073  0.00  0.00    -0.646 OA
ENDBRANCH  18  22
ENDBRANCH  16  18
ENDBRANCH   1  14
TORSDOF 8
ENDMDL
MODEL 5
REMARK VINA RESULT:      -5.6     13.772     16.036
REMARK  8 active torsions:
REMARK  status: ('A' for Active; 'I' for Inactive)
REMARK    1  A    between atoms: C_1  and  C_2 
REMARK    2  A    between atoms: C_1  and  C_10 
REMARK    3  A    between atoms: C_1  and  N_16 
REMARK    4  A    between atoms: C_2  and  O_3 
REMARK    5  A    between atoms: N_7  and  C_14 
REMARK    6  A    between atoms: C_13  and  C_14 
REMARK    7  A    between atoms: C_13  and  C_19 
REMARK    8  A    between atoms: C_14  and  C_15 
REMARK       I    between atoms: C_15  and  N_16 
ROOT
HETATM    1  C           1     -21.970  -4.355  -7.069  0.00  0.00     0.280 C 
ENDROOT
BRANCH   1   2
HETATM    2  N           1     -21.379  -2.977  -7.108  0.00  0.00    -0.066 N 
HETATM    3  H           1     -21.524  -2.563  -8.057  0.00  0.00     0.275 HD
HETATM    4  H           1     -20.355  -3.030  -6.906  0.00  0.00     0.275 HD
HETATM    5  H           1     -21.846  -2.377  -6.391  0.00  0.00     0.275 HD
ENDBRANCH   1   2
BRANCH   1   6
HETATM    6  C           1     -21.971  -4.946  -8.473  0.00  0.00     0.101 C 
BRANCH   6   7
HETATM    7  C           1     -23.141  -4.413  -9.239  0.00  0.00     0.028 A 
HETATM    8  C           1     -23.321  -4.560 -10.594  0.00  0.00     0.114 A 
HETATM    9  N           1     -24.502  -3.928 -10.865  0.00  0.00    -0.360 N 
HETATM   10  H           1     -24.957  -3.840 -11.808  0.00  0.00     0.166 HD
HETATM   11  C           1     -24.983  -3.434  -9.687  0.00  0.00     0.180 A 
HETATM   12  N           1     -24.181  -3.713  -8.685  0.00  0.00    -0.355 N 
ATOM     13  HN          1     -24.305  -3.462  -7.704  1.00  0.00     0.166 HD
ENDBRANCH   6   7
ENDBRANCH   1   6
BRANCH   1  14
HETATM   14  C           1     -21.147  -5.229  -6.156  0.00  0.00     0.249 C 
HETATM   15  O           1     -19.948  -5.093  -6.106  0.00  0.00    -0.271 OA
HETATM   16  N           1     -21.760  -6.177  -5.380  0.00  0.00    -0.343 N 
HETATM   17  H           1     -22.765  -6.291  -5.421  0.00  0.00     0.163 HD
BRANCH  16  18
HETATM   18  C           1     -20.970  -7.017  -4.501  0.00  0.00     0.209 C 
BRANCH  18  19
HETATM   19  C           1     -21.265  -6.655  -3.051  0.00  0.00     0.200 C 
BRANCH  19  20
HETATM   20  O           1     -22.524  -6.043  -2.969  0.00  0.00    -0.398 OA
HETATM   21  H           1     -22.727  -5.716  -3.829  0.00  0.00     0.209 HD
ENDBRANCH  19  20
ENDBRANCH  18  19
BRANCH  18  22
HETATM   22  C           1     -21.322  -8.464  -4.739  0.00  0.00     0.198 C 
HETATM   23  O           1     -21.833  -9.141  -3.820  0.00  0.00    -0.646 OA
HETATM   24  O           1     -21.104  -8.986  -5.853  0.00  0.00    -0.646 OA
ENDBRANCH  18  22
ENDBRANCH  16  18
ENDBRANCH   1  14
TORSDOF 8
ENDMDL
MODEL 6
REMARK VINA RESULT:      -5.6     14.826     16.901
REMARK  8 active torsions:
REMARK  status: ('A' for Active; 'I' for Inactive)
REMARK    1  A    between atoms: C_1  and  C_2 
REMARK    2  A    between atoms: C_1  and  C_10 
REMARK    3  A    between atoms: C_1  and  N_16 
REMARK    4  A    between atoms: C_2  and  O_3 
REMARK    5  A    between atoms: N_7  and  C_14 
REMARK    6  A    between atoms: C_13  and  C_14 
REMARK    7  A    between atoms: C_13  and  C_19 
REMARK    8  A    between atoms: C_14  and  C_15 
REMARK       I    between atoms: C_15  and  N_16 
ROOT
HETATM    1  C           1     -22.185  -5.141  -6.773  0.00  0.00     0.280 C 
ENDROOT
BRANCH   1   2
HETATM    2  N           1     -23.627  -4.880  -6.454  0.00  0.00    -0.066 N 
HETATM    3  H           1     -23.858  -3.884  -6.673  0.00  0.00     0.275 HD
HETATM    4  H           1     -23.799  -5.061  -5.439  0.00  0.00     0.275 HD
HETATM    5  H           1     -24.230  -5.512  -7.027  0.00  0.00     0.275 HD
ENDBRANCH   1   2
BRANCH   1   6
HETATM    6  C           1     -21.577  -3.903  -7.421  0.00  0.00     0.101 C 
BRANCH   6   7
HETATM    7  C           1     -21.493  -4.105  -8.902  0.00  0.00     0.028 A 
HETATM    8  C           1     -20.320  -4.211  -9.610  0.00  0.00     0.114 A 
HETATM    9  N           1     -20.706  -4.384 -10.911  0.00  0.00    -0.360 N 
HETATM   10  H           1     -20.069  -4.502 -11.737  0.00  0.00     0.166 HD
HETATM   11  C           1     -22.071  -4.377 -10.938  0.00  0.00     0.180 A 
HETATM   12  N           1     -22.575  -4.210  -9.736  0.00  0.00    -0.355 N 
ATOM     13  HN          1     -23.561  -4.168  -9.479  1.00  0.00     0.166 HD
ENDBRANCH   6   7
ENDBRANCH   1   6
BRANCH   1  14
HETATM   14  C           1     -21.439  -5.461  -5.502  0.00  0.00     0.249 C 
HETATM   15  O           1     -20.300  -5.086  -5.358  0.00  0.00    -0.271 OA
HETATM   16  N           1     -22.054  -6.176  -4.508  0.00  0.00    -0.343 N 
HETATM   17  H           1     -23.008  -6.489  -4.628  0.00  0.00     0.163 HD
BRANCH  16  18
HETATM   18  C           1     -21.337  -6.483  -3.286  0.00  0.00     0.209 C 
BRANCH  18  19
HETATM   19  C           1     -22.204  -6.127  -2.085  0.00  0.00     0.200 C 
BRANCH  19  20
HETATM   20  O           1     -22.233  -7.207  -1.192  0.00  0.00    -0.398 OA
HETATM   21  H           1     -21.392  -7.233  -0.767  0.00  0.00     0.209 HD
ENDBRANCH  19  20
ENDBRANCH  18  19
BRANCH  18  22
HETATM   22  C           1     -21.011  -7.955  -3.251  0.00  0.00     0.198 C 
HETATM   23  O           1     -21.766  -8.775  -3.816  0.00  0.00    -0.646 OA
HETATM   24  O           1     -19.986  -8.354  -2.658  0.00  0.00    -0.646 OA
ENDBRANCH  18  22
ENDBRANCH  16  18
ENDBRANCH   1  14
TORSDOF 8
ENDMDL
MODEL 7
REMARK VINA RESULT:      -5.1     15.138     17.622
REMARK  8 active torsions:
REMARK  status: ('A' for Active; 'I' for Inactive)
REMARK    1  A    between atoms: C_1  and  C_2 
REMARK    2  A    between atoms: C_1  and  C_10 
REMARK    3  A    between atoms: C_1  and  N_16 
REMARK    4  A    between atoms: C_2  and  O_3 
REMARK    5  A    between atoms: N_7  and  C_14 
REMARK    6  A    between atoms: C_13  and  C_14 
REMARK    7  A    between atoms: C_13  and  C_19 
REMARK    8  A    between atoms: C_14  and  C_15 
REMARK       I    between atoms: C_15  and  N_16 
ROOT
HETATM    1  C           1     -21.130  -5.482  -6.071  0.00  0.00     0.280 C 
ENDROOT
BRANCH   1   2
HETATM    2  N           1     -20.077  -4.647  -5.407  0.00  0.00    -0.066 N 
HETATM    3  H           1     -20.340  -3.638  -5.472  0.00  0.00     0.275 HD
HETATM    4  H           1     -19.159  -4.799  -5.883  0.00  0.00     0.275 HD
HETATM    5  H           1     -19.996  -4.923  -4.402  0.00  0.00     0.275 HD
ENDBRANCH   1   2
BRANCH   1   6
HETATM    6  C           1     -20.924  -5.452  -7.580  0.00  0.00     0.101 C 
BRANCH   6   7
HETATM    7  C           1     -22.064  -4.728  -8.226  0.00  0.00     0.028 A 
HETATM    8  C           1     -23.215  -4.347  -7.579  0.00  0.00     0.114 A 
HETATM    9  N           1     -23.969  -3.725  -8.535  0.00  0.00    -0.360 N 
HETATM   10  H           1     -24.921  -3.303  -8.397  0.00  0.00     0.166 HD
HETATM   11  C           1     -23.258  -3.753  -9.701  0.00  0.00     0.180 A 
HETATM   12  N           1     -22.101  -4.353  -9.544  0.00  0.00    -0.355 N 
ATOM     13  HN          1     -21.383  -4.507 -10.252  1.00  0.00     0.166 HD
ENDBRANCH   6   7
ENDBRANCH   1   6
BRANCH   1  14
HETATM   14  C           1     -21.032  -6.904  -5.578  0.00  0.00     0.249 C 
HETATM   15  O           1     -21.245  -7.822  -6.332  0.00  0.00    -0.271 OA
HETATM   16  N           1     -20.697  -7.154  -4.273  0.00  0.00    -0.343 N 
HETATM   17  H           1     -20.517  -6.385  -3.641  0.00  0.00     0.163 HD
BRANCH  16  18
HETATM   18  C           1     -20.601  -8.521  -3.799  0.00  0.00     0.209 C 
BRANCH  18  19
HETATM   19  C           1     -19.154  -8.990  -3.889  0.00  0.00     0.200 C 
BRANCH  19  20
HETATM   20  O           1     -18.648  -9.195  -2.598  0.00  0.00    -0.398 OA
HETATM   21  H           1     -19.284  -9.711  -2.133  0.00  0.00     0.209 HD
ENDBRANCH  19  20
ENDBRANCH  18  19
BRANCH  18  22
HETATM   22  C           1     -21.062  -8.588  -2.364  0.00  0.00     0.198 C 
HETATM   23  O           1     -20.924  -7.595  -1.617  0.00  0.00    -0.646 OA
HETATM   24  O           1     -21.581  -9.636  -1.923  0.00  0.00    -0.646 OA
ENDBRANCH  18  22
ENDBRANCH  16  18
ENDBRANCH   1  14
TORSDOF 8
ENDMDL
MODEL 8
REMARK VINA RESULT:      -5.1     15.392     17.693
REMARK  8 active torsions:
REMARK  status: ('A' for Active; 'I' for Inactive)
REMARK    1  A    between atoms: C_1  and  C_2 
REMARK    2  A    between atoms: C_1  and  C_10 
REMARK    3  A    between atoms: C_1  and  N_16 
REMARK    4  A    between atoms: C_2  and  O_3 
REMARK    5  A    between atoms: N_7  and  C_14 
REMARK    6  A    between atoms: C_13  and  C_14 
REMARK    7  A    between atoms: C_13  and  C_19 
REMARK    8  A    between atoms: C_14  and  C_15 
REMARK       I    between atoms: C_15  and  N_16 
ROOT
HETATM    1  C           1     -21.001  -5.594  -5.804  0.00  0.00     0.280 C 
ENDROOT
BRANCH   1   2
HETATM    2  N           1     -20.032  -4.542  -5.351  0.00  0.00    -0.066 N 
HETATM    3  H           1     -20.317  -3.615  -5.741  0.00  0.00     0.275 HD
HETATM    4  H           1     -19.073  -4.781  -5.691  0.00  0.00     0.275 HD
HETATM    5  H           1     -20.030  -4.497  -4.307  0.00  0.00     0.275 HD
ENDBRANCH   1   2
BRANCH   1   6
HETATM    6  C           1     -20.835  -5.826  -7.300  0.00  0.00     0.101 C 
BRANCH   6   7
HETATM    7  C           1     -21.752  -4.914  -8.053  0.00  0.00     0.028 A 
HETATM    8  C           1     -22.903  -4.366  -7.540  0.00  0.00     0.114 A 
HETATM    9  N           1     -23.420  -3.611  -8.555  0.00  0.00    -0.360 N 
HETATM   10  H           1     -24.303  -3.044  -8.520  0.00  0.00     0.166 HD
HETATM   11  C           1     -22.577  -3.728  -9.623  0.00  0.00     0.180 A 
HETATM   12  N           1     -21.559  -4.510  -9.348  0.00  0.00    -0.355 N 
ATOM     13  HN          1     -20.787  -4.763  -9.967  1.00  0.00     0.166 HD
ENDBRANCH   6   7
ENDBRANCH   1   6
BRANCH   1  14
HETATM   14  C           1     -20.731  -6.879  -5.062  0.00  0.00     0.249 C 
HETATM   15  O           1     -21.040  -6.982  -3.899  0.00  0.00    -0.271 OA
HETATM   16  N           1     -20.137  -7.930  -5.708  0.00  0.00    -0.343 N 
HETATM   17  H           1     -19.879  -7.845  -6.682  0.00  0.00     0.163 HD
BRANCH  16  18
HETATM   18  C           1     -19.879  -9.167  -4.996  0.00  0.00     0.209 C 
BRANCH  18  19
HETATM   19  C           1     -20.957 -10.186  -5.339  0.00  0.00     0.200 C 
BRANCH  19  20
HETATM   20  O           1     -20.526 -10.980  -6.412  0.00  0.00    -0.398 OA
HETATM   21  H           1     -21.222 -11.586  -6.601  0.00  0.00     0.209 HD
ENDBRANCH  19  20
ENDBRANCH  18  19
BRANCH  18  22
HETATM   22  C           1     -18.530  -9.707  -5.400  0.00  0.00     0.198 C 
HETATM   23  O           1     -17.977 -10.588  -4.706  0.00  0.00    -0.646 OA
HETATM   24  O           1     -17.967  -9.277  -6.429  0.00  0.00    -0.646 OA
ENDBRANCH  18  22
ENDBRANCH  16  18
ENDBRANCH   1  14
TORSDOF 8
ENDMDL
MODEL 9
REMARK VINA RESULT:      -5.1     15.003     16.776
REMARK  8 active torsions:
REMARK  status: ('A' for Active; 'I' for Inactive)
REMARK    1  A    between atoms: C_1  and  C_2 
REMARK    2  A    between atoms: C_1  and  C_10 
REMARK    3  A    between atoms: C_1  and  N_16 
REMARK    4  A    between atoms: C_2  and  O_3 
REMARK    5  A    between atoms: N_7  and  C_14 
REMARK    6  A    between atoms: C_13  and  C_14 
REMARK    7  A    between atoms: C_13  and  C_19 
REMARK    8  A    between atoms: C_14  and  C_15 
REMARK       I    between atoms: C_15  and  N_16 
ROOT
HETATM    1  C           1     -21.534  -8.184  -4.529  0.00  0.00     0.280 C 
ENDROOT
BRANCH   1   2
HETATM    2  N           1     -21.054  -9.088  -5.625  0.00  0.00    -0.066 N 
HETATM    3  H           1     -21.599  -9.980  -5.603  0.00  0.00     0.275 HD
HETATM    4  H           1     -20.040  -9.297  -5.486  0.00  0.00     0.275 HD
HETATM    5  H           1     -21.189  -8.618  -6.548  0.00  0.00     0.275 HD
ENDBRANCH   1   2
BRANCH   1   6
HETATM    6  C           1     -20.635  -8.343  -3.310  0.00  0.00     0.101 C 
BRANCH   6   7
HETATM    7  C           1     -21.462  -8.258  -2.065  0.00  0.00     0.028 A 
HETATM    8  C           1     -21.959  -9.343  -1.381  0.00  0.00     0.114 A 
HETATM    9  N           1     -22.644  -8.812  -0.324  0.00  0.00    -0.360 N 
HETATM   10  H           1     -23.158  -9.350   0.416  0.00  0.00     0.166 HD
HETATM   11  C           1     -22.538  -7.452  -0.407  0.00  0.00     0.180 A 
HETATM   12  N           1     -21.827  -7.089  -1.451  0.00  0.00    -0.355 N 
ATOM     13  HN          1     -21.597  -6.139  -1.741  1.00  0.00     0.166 HD
ENDBRANCH   6   7
ENDBRANCH   1   6
BRANCH   1  14
HETATM   14  C           1     -21.489  -6.752  -5.003  0.00  0.00     0.249 C 
HETATM   15  O           1     -21.983  -5.878  -4.332  0.00  0.00    -0.271 OA
HETATM   16  N           1     -20.887  -6.444  -6.194  0.00  0.00    -0.343 N 
HETATM   17  H           1     -20.472  -7.176  -6.755  0.00  0.00     0.163 HD
BRANCH  16  18
HETATM   18  C           1     -20.843  -5.068  -6.649  0.00  0.00     0.209 C 
BRANCH  18  19
HETATM   19  C           1     -19.516  -4.807  -7.351  0.00  0.00     0.200 C 
BRANCH  19  20
HETATM   20  O           1     -19.626  -3.657  -8.146  0.00  0.00    -0.398 OA
HETATM   21  H           1     -19.435  -3.916  -9.031  0.00  0.00     0.209 HD
ENDBRANCH  19  20
ENDBRANCH  18  19
BRANCH  18  22
HETATM   22  C           1     -21.978  -4.820  -7.611  0.00  0.00     0.198 C 
HETATM   23  O           1     -23.065  -4.369  -7.191  0.00  0.00    -0.646 OA
HETATM   24  O           1     -21.830  -5.064  -8.828  0.00  0.00    -0.646 OA
ENDBRANCH  18  22
ENDBRANCH  16  18
ENDBRANCH   1  14
TORSDOF 8
ENDMDL
