MODEL 1
REMARK VINA RESULT:      -6.5      0.000      0.000
REMARK  7 active torsions:
REMARK  status: ('A' for Active; 'I' for Inactive)
REMARK    1  A    between atoms: P_1  and  O_2 
REMARK    2  A    between atoms: P_1  and  O_9 
REMARK    3  A    between atoms: O_2  and  C_7 
REMARK    4  A    between atoms: N_3  and  C_16 
REMARK       I    between atoms: N_3  and  C_5 
REMARK    5  A    between atoms: C_5  and  C_19 
REMARK    6  A    between atoms: C_7  and  C_16 
REMARK    7  A    between atoms: C_15  and  C_16 
ROOT
HETATM    1  C           1     -36.484  -1.021 -11.196  0.00  0.00     0.210 C 
ENDROOT
BRANCH   1   2
HETATM    2  N           1     -35.947  -0.314 -12.342  0.00  0.00    -0.343 N 
HETATM    3  C           1     -36.679  -0.222 -13.494  0.00  0.00     0.251 C 
HETATM    4  O           1     -37.772  -0.730 -13.558  0.00  0.00    -0.271 OA
HETATM    5  H           1     -35.030   0.112 -12.289  0.00  0.00     0.163 HD
BRANCH   3   6
HETATM    6  C           1     -36.118   0.514 -14.687  0.00  0.00     0.311 C 
HETATM    7  C           1     -37.103   0.501 -15.843  0.00  0.00     0.047 C 
HETATM    8  C           1     -36.693  -0.689 -16.702  0.00  0.00     0.033 C 
HETATM    9  C           1     -35.488  -1.290 -15.998  0.00  0.00     0.271 C 
HETATM   10  N           1     -34.948  -0.177 -15.220  0.00  0.00     0.097 N 
HETATM   11  H           1     -34.412   0.437 -15.834  0.00  0.00     0.317 HD
ENDBRANCH   3   6
ENDBRANCH   1   2
BRANCH   1  12
HETATM   12  C           1     -35.441  -1.996 -10.668  0.00  0.00     0.217 C 
BRANCH  12  13
HETATM   13  O           1     -35.613  -3.245 -11.282  0.00  0.00    -0.287 OA
BRANCH  13  14
HETATM   14  P           1     -34.421  -3.725 -12.260  0.00  0.00     0.406 P 
HETATM   15  O           1     -33.120  -3.548 -11.576  0.00  0.00    -0.624 OA
HETATM   16  O           1     -34.442  -2.914 -13.498  0.00  0.00    -0.624 OA
BRANCH  14  17
HETATM   17  O           1     -34.624  -5.283 -12.631  0.00  0.00    -0.300 OA
HETATM   18  H           1     -35.145  -5.635 -11.931  0.00  0.00     0.223 HD
ENDBRANCH  14  17
ENDBRANCH  13  14
ENDBRANCH  12  13
ENDBRANCH   1  12
BRANCH   1  19
HETATM   19  C           1     -36.840  -0.032 -10.114  0.00  0.00     0.198 C 
HETATM   20  O           1     -37.766   0.788 -10.298  0.00  0.00    -0.646 OA
HETATM   21  O           1     -36.209  -0.031  -9.035  0.00  0.00    -0.646 OA
ENDBRANCH   1  19
TORSDOF 7
ENDMDL
MODEL 2
REMARK VINA RESULT:      -5.6     25.584     27.029
REMARK  7 active torsions:
REMARK  status: ('A' for Active; 'I' for Inactive)
REMARK    1  A    between atoms: P_1  and  O_2 
REMARK    2  A    between atoms: P_1  and  O_9 
REMARK    3  A    between atoms: O_2  and  C_7 
REMARK    4  A    between atoms: N_3  and  C_16 
REMARK       I    between atoms: N_3  and  C_5 
REMARK    5  A    between atoms: C_5  and  C_19 
REMARK    6  A    between atoms: C_7  and  C_16 
REMARK    7  A    between atoms: C_15  and  C_16 
ROOT
HETATM    1  C           1     -10.181   5.491 -20.605  0.00  0.00     0.210 C 
ENDROOT
BRANCH   1   2
HETATM    2  N           1     -11.357   5.305 -21.432  0.00  0.00    -0.343 N 
HETATM    3  C           1     -11.584   4.099 -22.037  0.00  0.00     0.251 C 
HETATM    4  O           1     -10.804   3.190 -21.884  0.00  0.00    -0.271 OA
HETATM    5  H           1     -12.010   6.067 -21.560  0.00  0.00     0.163 HD
BRANCH   3   6
HETATM    6  C           1     -12.808   3.906 -22.898  0.00  0.00     0.311 C 
HETATM    7  C           1     -13.671   5.155 -22.899  0.00  0.00     0.047 C 
HETATM    8  C           1     -14.710   4.922 -21.809  0.00  0.00     0.033 C 
HETATM    9  C           1     -14.394   3.546 -21.247  0.00  0.00     0.271 C 
HETATM   10  N           1     -13.682   2.880 -22.335  0.00  0.00     0.097 N 
HETATM   11  H           1     -14.353   2.554 -23.031  0.00  0.00     0.317 HD
ENDBRANCH   3   6
ENDBRANCH   1   2
BRANCH   1  12
HETATM   12  C           1      -9.584   6.866 -20.876  0.00  0.00     0.217 C 
BRANCH  12  13
HETATM   13  O           1     -10.610   7.821 -20.922  0.00  0.00    -0.287 OA
BRANCH  13  14
HETATM   14  P           1     -10.403   9.130 -20.001  0.00  0.00     0.406 P 
HETATM   15  O           1     -11.556  10.042 -20.171  0.00  0.00    -0.624 OA
HETATM   16  O           1      -9.160   9.825 -20.404  0.00  0.00    -0.624 OA
BRANCH  14  17
HETATM   17  O           1     -10.294   8.686 -18.452  0.00  0.00    -0.300 OA
HETATM   18  H           1     -10.630   9.418 -17.964  0.00  0.00     0.223 HD
ENDBRANCH  14  17
ENDBRANCH  13  14
ENDBRANCH  12  13
ENDBRANCH   1  12
BRANCH   1  19
HETATM   19  C           1     -10.565   5.388 -19.150  0.00  0.00     0.198 C 
HETATM   20  O           1      -9.739   5.692 -18.262  0.00  0.00    -0.646 OA
HETATM   21  O           1     -11.709   4.999 -18.831  0.00  0.00    -0.646 OA
ENDBRANCH   1  19
TORSDOF 7
ENDMDL
MODEL 3
REMARK VINA RESULT:      -5.4      2.382      3.835
REMARK  7 active torsions:
REMARK  status: ('A' for Active; 'I' for Inactive)
REMARK    1  A    between atoms: P_1  and  O_2 
REMARK    2  A    between atoms: P_1  and  O_9 
REMARK    3  A    between atoms: O_2  and  C_7 
REMARK    4  A    between atoms: N_3  and  C_16 
REMARK       I    between atoms: N_3  and  C_5 
REMARK    5  A    between atoms: C_5  and  C_19 
REMARK    6  A    between atoms: C_7  and  C_16 
REMARK    7  A    between atoms: C_15  and  C_16 
ROOT
HETATM    1  C           1     -34.573  -3.218 -11.768  0.00  0.00     0.210 C 
ENDROOT
BRANCH   1   2
HETATM    2  N           1     -35.443  -2.179 -12.284  0.00  0.00    -0.343 N 
HETATM    3  C           1     -35.057  -0.868 -12.217  0.00  0.00     0.251 C 
HETATM    4  O           1     -33.992  -0.576 -11.729  0.00  0.00    -0.271 OA
HETATM    5  H           1     -36.336  -2.424 -12.692  0.00  0.00     0.163 HD
BRANCH   3   6
HETATM    6  C           1     -35.963   0.214 -12.753  0.00  0.00     0.311 C 
HETATM    7  C           1     -36.978  -0.364 -13.724  0.00  0.00     0.047 C 
HETATM    8  C           1     -36.359  -0.178 -15.104  0.00  0.00     0.033 C 
HETATM    9  C           1     -35.026   0.504 -14.853  0.00  0.00     0.271 C 
HETATM   10  N           1     -35.211   1.167 -13.564  0.00  0.00     0.097 N 
HETATM   11  H           1     -35.743   2.027 -13.698  0.00  0.00     0.317 HD
ENDBRANCH   3   6
ENDBRANCH   1   2
BRANCH   1  12
HETATM   12  C           1     -35.418  -4.330 -11.160  0.00  0.00     0.217 C 
BRANCH  12  13
HETATM   13  O           1     -34.628  -5.095 -10.291  0.00  0.00    -0.287 OA
BRANCH  13  14
HETATM   14  P           1     -34.498  -6.665 -10.648  0.00  0.00     0.406 P 
HETATM   15  O           1     -35.202  -7.465  -9.622  0.00  0.00    -0.624 OA
HETATM   16  O           1     -33.067  -7.047 -10.677  0.00  0.00    -0.624 OA
BRANCH  14  17
HETATM   17  O           1     -35.159  -6.944 -12.094  0.00  0.00    -0.300 OA
HETATM   18  H           1     -35.084  -7.874 -12.223  0.00  0.00     0.223 HD
ENDBRANCH  14  17
ENDBRANCH  13  14
ENDBRANCH  12  13
ENDBRANCH   1  12
BRANCH   1  19
HETATM   19  C           1     -33.737  -3.779 -12.892  0.00  0.00     0.198 C 
HETATM   20  O           1     -32.600  -4.240 -12.655  0.00  0.00    -0.646 OA
HETATM   21  O           1     -34.181  -3.782 -14.060  0.00  0.00    -0.646 OA
ENDBRANCH   1  19
TORSDOF 7
ENDMDL
MODEL 4
REMARK VINA RESULT:      -5.3      2.124      4.106
REMARK  7 active torsions:
REMARK  status: ('A' for Active; 'I' for Inactive)
REMARK    1  A    between atoms: P_1  and  O_2 
REMARK    2  A    between atoms: P_1  and  O_9 
REMARK    3  A    between atoms: O_2  and  C_7 
REMARK    4  A    between atoms: N_3  and  C_16 
REMARK       I    between atoms: N_3  and  C_5 
REMARK    5  A    between atoms: C_5  and  C_19 
REMARK    6  A    between atoms: C_7  and  C_16 
REMARK    7  A    between atoms: C_15  and  C_16 
ROOT
HETATM    1  C           1     -34.843  -1.005 -12.024  0.00  0.00     0.210 C 
ENDROOT
BRANCH   1   2
HETATM    2  N           1     -35.174  -0.910 -13.433  0.00  0.00    -0.343 N 
HETATM    3  C           1     -34.978   0.267 -14.104  0.00  0.00     0.251 C 
HETATM    4  O           1     -34.530   1.226 -13.523  0.00  0.00    -0.271 OA
HETATM    5  H           1     -35.551  -1.713 -13.918  0.00  0.00     0.163 HD
BRANCH   3   6
HETATM    6  C           1     -35.324   0.365 -15.569  0.00  0.00     0.311 C 
HETATM    7  C           1     -36.145   1.612 -15.849  0.00  0.00     0.047 C 
HETATM    8  C           1     -37.597   1.152 -15.796  0.00  0.00     0.033 C 
HETATM    9  C           1     -37.531  -0.336 -15.498  0.00  0.00     0.271 C 
HETATM   10  N           1     -36.205  -0.728 -15.970  0.00  0.00     0.097 N 
HETATM   11  H           1     -36.221  -0.828 -16.985  0.00  0.00     0.317 HD
ENDBRANCH   3   6
ENDBRANCH   1   2
BRANCH   1  12
HETATM   12  C           1     -36.115  -0.877 -11.195  0.00  0.00     0.217 C 
BRANCH  12  13
HETATM   13  O           1     -36.264   0.450 -10.768  0.00  0.00    -0.287 OA
BRANCH  13  14
HETATM   14  P           1     -36.963   0.656  -9.327  0.00  0.00     0.406 P 
HETATM   15  O           1     -37.490  -0.640  -8.844  0.00  0.00    -0.624 OA
HETATM   16  O           1     -38.075   1.625  -9.453  0.00  0.00    -0.624 OA
BRANCH  14  17
HETATM   17  O           1     -35.874   1.218  -8.276  0.00  0.00    -0.300 OA
HETATM   18  H           1     -35.497   1.973  -8.695  0.00  0.00     0.223 HD
ENDBRANCH  14  17
ENDBRANCH  13  14
ENDBRANCH  12  13
ENDBRANCH   1  12
BRANCH   1  19
HETATM   19  C           1     -34.195  -2.338 -11.747  0.00  0.00     0.198 C 
HETATM   20  O           1     -33.968  -3.129 -12.688  0.00  0.00    -0.646 OA
HETATM   21  O           1     -33.886  -2.653 -10.578  0.00  0.00    -0.646 OA
ENDBRANCH   1  19
TORSDOF 7
ENDMDL
MODEL 5
REMARK VINA RESULT:      -5.3     25.685     27.052
REMARK  7 active torsions:
REMARK  status: ('A' for Active; 'I' for Inactive)
REMARK    1  A    between atoms: P_1  and  O_2 
REMARK    2  A    between atoms: P_1  and  O_9 
REMARK    3  A    between atoms: O_2  and  C_7 
REMARK    4  A    between atoms: N_3  and  C_16 
REMARK       I    between atoms: N_3  and  C_5 
REMARK    5  A    between atoms: C_5  and  C_19 
REMARK    6  A    between atoms: C_7  and  C_16 
REMARK    7  A    between atoms: C_15  and  C_16 
ROOT
HETATM    1  C           1     -10.904   7.884 -20.942  0.00  0.00     0.210 C 
ENDROOT
BRANCH   1   2
HETATM    2  N           1     -11.589   6.792 -20.277  0.00  0.00    -0.343 N 
HETATM    3  C           1     -11.256   5.497 -20.570  0.00  0.00     0.251 C 
HETATM    4  O           1     -10.394   5.263 -21.381  0.00  0.00    -0.271 OA
HETATM    5  H           1     -12.312   6.988 -19.598  0.00  0.00     0.163 HD
BRANCH   3   6
HETATM    6  C           1     -11.970   4.361 -19.878  0.00  0.00     0.311 C 
HETATM    7  C           1     -11.734   3.050 -20.607  0.00  0.00     0.047 C 
HETATM    8  C           1     -12.926   2.895 -21.544  0.00  0.00     0.033 C 
HETATM    9  C           1     -13.787   4.121 -21.296  0.00  0.00     0.271 C 
HETATM   10  N           1     -13.418   4.540 -19.946  0.00  0.00     0.097 N 
HETATM   11  H           1     -13.889   3.944 -19.265  0.00  0.00     0.317 HD
ENDBRANCH   3   6
ENDBRANCH   1   2
BRANCH   1  12
HETATM   12  C           1     -11.913   8.712 -21.726  0.00  0.00     0.217 C 
BRANCH  12  13
HETATM   13  O           1     -13.007   9.018 -20.904  0.00  0.00    -0.287 OA
BRANCH  13  14
HETATM   14  P           1     -13.326  10.589 -20.705  0.00  0.00     0.406 P 
HETATM   15  O           1     -13.468  10.885 -19.262  0.00  0.00    -0.624 OA
HETATM   16  O           1     -14.586  10.927 -21.404  0.00  0.00    -0.624 OA
BRANCH  14  17
HETATM   17  O           1     -12.116  11.465 -21.317  0.00  0.00    -0.300 OA
HETATM   18  H           1     -12.533  12.106 -21.868  0.00  0.00     0.223 HD
ENDBRANCH  14  17
ENDBRANCH  13  14
ENDBRANCH  12  13
ENDBRANCH   1  12
BRANCH   1  19
HETATM   19  C           1     -10.229   8.756 -19.913  0.00  0.00     0.198 C 
HETATM   20  O           1     -10.253   8.432 -18.706  0.00  0.00    -0.646 OA
HETATM   21  O           1      -9.646   9.804 -20.266  0.00  0.00    -0.646 OA
ENDBRANCH   1  19
TORSDOF 7
ENDMDL
MODEL 6
REMARK VINA RESULT:      -5.3     15.848     17.707
REMARK  7 active torsions:
REMARK  status: ('A' for Active; 'I' for Inactive)
REMARK    1  A    between atoms: P_1  and  O_2 
REMARK    2  A    between atoms: P_1  and  O_9 
REMARK    3  A    between atoms: O_2  and  C_7 
REMARK    4  A    between atoms: N_3  and  C_16 
REMARK       I    between atoms: N_3  and  C_5 
REMARK    5  A    between atoms: C_5  and  C_19 
REMARK    6  A    between atoms: C_7  and  C_16 
REMARK    7  A    between atoms: C_15  and  C_16 
ROOT
HETATM    1  C           1     -21.875  -6.911  -4.443  0.00  0.00     0.210 C 
ENDROOT
BRANCH   1   2
HETATM    2  N           1     -21.095  -5.919  -5.157  0.00  0.00    -0.343 N 
HETATM    3  C           1     -21.709  -5.077  -6.044  0.00  0.00     0.251 C 
HETATM    4  O           1     -22.898  -5.161  -6.234  0.00  0.00    -0.271 OA
HETATM    5  H           1     -20.098  -5.850  -4.998  0.00  0.00     0.163 HD
BRANCH   3   6
HETATM    6  C           1     -20.897  -4.044  -6.788  0.00  0.00     0.311 C 
HETATM    7  C           1     -21.635  -3.565  -8.025  0.00  0.00     0.047 C 
HETATM    8  C           1     -21.108  -4.431  -9.163  0.00  0.00     0.033 C 
HETATM    9  C           1     -20.089  -5.355  -8.520  0.00  0.00     0.271 C 
HETATM   10  N           1     -19.671  -4.633  -7.320  0.00  0.00     0.097 N 
HETATM   11  H           1     -19.002  -3.907  -7.578  0.00  0.00     0.317 HD
ENDBRANCH   3   6
ENDBRANCH   1   2
BRANCH   1  12
HETATM   12  C           1     -21.440  -8.305  -4.877  0.00  0.00     0.217 C 
BRANCH  12  13
HETATM   13  O           1     -20.225  -8.221  -5.573  0.00  0.00    -0.287 OA
BRANCH  13  14
HETATM   14  P           1     -19.118  -9.337  -5.204  0.00  0.00     0.406 P 
HETATM   15  O           1     -18.031  -9.304  -6.206  0.00  0.00    -0.624 OA
HETATM   16  O           1     -19.750 -10.676  -5.203  0.00  0.00    -0.624 OA
BRANCH  14  17
HETATM   17  O           1     -18.509  -9.027  -3.741  0.00  0.00    -0.300 OA
HETATM   18  H           1     -18.820  -9.728  -3.193  0.00  0.00     0.223 HD
ENDBRANCH  14  17
ENDBRANCH  13  14
ENDBRANCH  12  13
ENDBRANCH   1  12
BRANCH   1  19
HETATM   19  C           1     -21.652  -6.755  -2.959  0.00  0.00     0.198 C 
HETATM   20  O           1     -22.333  -5.935  -2.308  0.00  0.00    -0.646 OA
HETATM   21  O           1     -20.785  -7.446  -2.380  0.00  0.00    -0.646 OA
ENDBRANCH   1  19
TORSDOF 7
ENDMDL
MODEL 7
REMARK VINA RESULT:      -5.2     17.600     19.910
REMARK  7 active torsions:
REMARK  status: ('A' for Active; 'I' for Inactive)
REMARK    1  A    between atoms: P_1  and  O_2 
REMARK    2  A    between atoms: P_1  and  O_9 
REMARK    3  A    between atoms: O_2  and  C_7 
REMARK    4  A    between atoms: N_3  and  C_16 
REMARK       I    between atoms: N_3  and  C_5 
REMARK    5  A    between atoms: C_5  and  C_19 
REMARK    6  A    between atoms: C_7  and  C_16 
REMARK    7  A    between atoms: C_15  and  C_16 
ROOT
HETATM    1  C           1     -21.144  -7.711  -3.822  0.00  0.00     0.210 C 
ENDROOT
BRANCH   1   2
HETATM    2  N           1     -21.647  -8.557  -2.757  0.00  0.00    -0.343 N 
HETATM    3  C           1     -20.831  -8.901  -1.714  0.00  0.00     0.251 C 
HETATM    4  O           1     -19.692  -8.502  -1.680  0.00  0.00    -0.271 OA
HETATM    5  H           1     -22.601  -8.893  -2.786  0.00  0.00     0.163 HD
BRANCH   3   6
HETATM    6  C           1     -21.354  -9.783  -0.606  0.00  0.00     0.311 C 
HETATM    7  C           1     -22.873  -9.776  -0.582  0.00  0.00     0.047 C 
HETATM    8  C           1     -23.250  -8.705   0.435  0.00  0.00     0.033 C 
HETATM    9  C           1     -21.927  -8.160   0.946  0.00  0.00     0.271 C 
HETATM   10  N           1     -20.983  -9.249   0.701  0.00  0.00     0.097 N 
HETATM   11  H           1     -21.089  -9.959   1.426  0.00  0.00     0.317 HD
ENDBRANCH   3   6
ENDBRANCH   1   2
BRANCH   1  12
HETATM   12  C           1     -21.239  -8.455  -5.147  0.00  0.00     0.217 C 
BRANCH  12  13
HETATM   13  O           1     -19.958  -8.593  -5.699  0.00  0.00    -0.287 OA
BRANCH  13  14
HETATM   14  P           1     -19.088  -9.847  -5.169  0.00  0.00     0.406 P 
HETATM   15  O           1     -18.370 -10.465  -6.305  0.00  0.00    -0.624 OA
HETATM   16  O           1     -19.990 -10.845  -4.552  0.00  0.00    -0.624 OA
BRANCH  14  17
HETATM   17  O           1     -18.020  -9.334  -4.073  0.00  0.00    -0.300 OA
HETATM   18  H           1     -17.221  -9.198  -4.554  0.00  0.00     0.223 HD
ENDBRANCH  14  17
ENDBRANCH  13  14
ENDBRANCH  12  13
ENDBRANCH   1  12
BRANCH   1  19
HETATM   19  C           1     -21.967  -6.449  -3.894  0.00  0.00     0.198 C 
HETATM   20  O           1     -22.216  -5.928  -5.003  0.00  0.00    -0.646 OA
HETATM   21  O           1     -22.400  -5.924  -2.846  0.00  0.00    -0.646 OA
ENDBRANCH   1  19
TORSDOF 7
ENDMDL
MODEL 8
REMARK VINA RESULT:      -5.1     18.037     19.596
REMARK  7 active torsions:
REMARK  status: ('A' for Active; 'I' for Inactive)
REMARK    1  A    between atoms: P_1  and  O_2 
REMARK    2  A    between atoms: P_1  and  O_9 
REMARK    3  A    between atoms: O_2  and  C_7 
REMARK    4  A    between atoms: N_3  and  C_16 
REMARK       I    between atoms: N_3  and  C_5 
REMARK    5  A    between atoms: C_5  and  C_19 
REMARK    6  A    between atoms: C_7  and  C_16 
REMARK    7  A    between atoms: C_15  and  C_16 
ROOT
HETATM    1  C           1     -21.222  -7.867  -1.599  0.00  0.00     0.210 C 
ENDROOT
BRANCH   1   2
HETATM    2  N           1     -21.802  -9.162  -1.893  0.00  0.00    -0.343 N 
HETATM    3  C           1     -21.243 -10.297  -1.371  0.00  0.00     0.251 C 
HETATM    4  O           1     -20.267 -10.220  -0.665  0.00  0.00    -0.271 OA
HETATM    5  H           1     -22.620  -9.227  -2.486  0.00  0.00     0.163 HD
BRANCH   3   6
HETATM    6  C           1     -21.847 -11.645  -1.679  0.00  0.00     0.311 C 
HETATM    7  C           1     -23.280 -11.499  -2.162  0.00  0.00     0.047 C 
HETATM    8  C           1     -24.140 -11.679  -0.917  0.00  0.00     0.033 C 
HETATM    9  C           1     -23.156 -11.928   0.213  0.00  0.00     0.271 C 
HETATM   10  N           1     -21.971 -12.448  -0.465  0.00  0.00     0.097 N 
HETATM   11  H           1     -22.115 -13.432  -0.695  0.00  0.00     0.317 HD
ENDBRANCH   3   6
ENDBRANCH   1   2
BRANCH   1  12
HETATM   12  C           1     -20.495  -7.345  -2.831  0.00  0.00     0.217 C 
BRANCH  12  13
HETATM   13  O           1     -21.114  -7.843  -3.986  0.00  0.00    -0.287 OA
BRANCH  13  14
HETATM   14  P           1     -21.442  -6.760  -5.138  0.00  0.00     0.406 P 
HETATM   15  O           1     -21.286  -7.390  -6.467  0.00  0.00    -0.624 OA
HETATM   16  O           1     -20.509  -5.617  -5.019  0.00  0.00    -0.624 OA
BRANCH  14  17
HETATM   17  O           1     -22.960  -6.237  -4.966  0.00  0.00    -0.300 OA
HETATM   18  H           1     -22.942  -5.337  -5.245  0.00  0.00     0.223 HD
ENDBRANCH  14  17
ENDBRANCH  13  14
ENDBRANCH  12  13
ENDBRANCH   1  12
BRANCH   1  19
HETATM   19  C           1     -22.315  -6.901  -1.214  0.00  0.00     0.198 C 
HETATM   20  O           1     -23.050  -7.147  -0.234  0.00  0.00    -0.646 OA
HETATM   21  O           1     -22.486  -5.854  -1.876  0.00  0.00    -0.646 OA
ENDBRANCH   1  19
TORSDOF 7
ENDMDL
MODEL 9
REMARK VINA RESULT:      -5.1     26.093     27.509
REMARK  7 active torsions:
REMARK  status: ('A' for Active; 'I' for Inactive)
REMARK    1  A    between atoms: P_1  and  O_2 
REMARK    2  A    between atoms: P_1  and  O_9 
REMARK    3  A    between atoms: O_2  and  C_7 
REMARK    4  A    between atoms: N_3  and  C_16 
REMARK       I    between atoms: N_3  and  C_5 
REMARK    5  A    between atoms: C_5  and  C_19 
REMARK    6  A    between atoms: C_7  and  C_16 
REMARK    7  A    between atoms: C_15  and  C_16 
ROOT
HETATM    1  C           1     -10.794   8.138 -21.992  0.00  0.00     0.210 C 
ENDROOT
BRANCH   1   2
HETATM    2  N           1     -10.733   7.011 -21.081  0.00  0.00    -0.343 N 
HETATM    3  C           1     -10.956   5.743 -21.545  0.00  0.00     0.251 C 
HETATM    4  O           1     -11.204   5.562 -22.713  0.00  0.00    -0.271 OA
HETATM    5  H           1     -10.527   7.164 -20.102  0.00  0.00     0.163 HD
BRANCH   3   6
HETATM    6  C           1     -10.893   4.571 -20.597  0.00  0.00     0.311 C 
HETATM    7  C           1     -11.252   3.279 -21.309  0.00  0.00     0.047 C 
HETATM    8  C           1     -12.741   3.083 -21.052  0.00  0.00     0.033 C 
HETATM    9  C           1     -13.156   4.269 -20.199  0.00  0.00     0.271 C 
HETATM   10  N           1     -11.912   4.690 -19.557  0.00  0.00     0.097 N 
HETATM   11  H           1     -11.707   4.067 -18.776  0.00  0.00     0.317 HD
ENDBRANCH   3   6
ENDBRANCH   1   2
BRANCH   1  12
HETATM   12  C           1     -12.083   8.913 -21.754  0.00  0.00     0.217 C 
BRANCH  12  13
HETATM   13  O           1     -11.925   9.755 -20.644  0.00  0.00    -0.287 OA
BRANCH  13  14
HETATM   14  P           1     -12.357   9.136 -19.216  0.00  0.00     0.406 P 
HETATM   15  O           1     -13.284  10.066 -18.535  0.00  0.00    -0.624 OA
HETATM   16  O           1     -11.151   8.940 -18.380  0.00  0.00    -0.624 OA
BRANCH  14  17
HETATM   17  O           1     -13.091   7.717 -19.445  0.00  0.00    -0.300 OA
HETATM   18  H           1     -12.664   7.122 -18.853  0.00  0.00     0.223 HD
ENDBRANCH  14  17
ENDBRANCH  13  14
ENDBRANCH  12  13
ENDBRANCH   1  12
BRANCH   1  19
HETATM   19  C           1      -9.612   9.044 -21.753  0.00  0.00     0.198 C 
HETATM   20  O           1      -9.385   9.994 -22.532  0.00  0.00    -0.646 OA
HETATM   21  O           1      -8.859   8.844 -20.775  0.00  0.00    -0.646 OA
ENDBRANCH   1  19
TORSDOF 7
ENDMDL
