MODEL 1
REMARK VINA RESULT:      -8.5      0.000      0.000
REMARK  10 active torsions:
REMARK  status: ('A' for Active; 'I' for Inactive)
REMARK    1  A    between atoms: C_2  and  C_27 
REMARK    2  A    between atoms: C_2  and  C_21 
REMARK    3  A    between atoms: C_6  and  C_7 
REMARK    4  A    between atoms: C_7  and  C_8 
REMARK    5  A    between atoms: C_8  and  C_9 
REMARK    6  A    between atoms: C_8  and  N_12 
REMARK       I    between atoms: C_9  and  N_13 
REMARK    7  A    between atoms: N_13  and  C_20 
REMARK       I    between atoms: N_14  and  C_29 
REMARK    8  A    between atoms: C_20  and  C_21 
REMARK    9  A    between atoms: C_20  and  C_30 
REMARK       I    between atoms: N_22  and  C_29 
REMARK   10  A    between atoms: N_22  and  C_27 
ROOT
HETATM    1  H           1     -32.326  -3.671 -14.162  0.00  0.00     0.163 HD
HETATM    2  C           1     -33.812  -4.508 -15.333  0.00  0.00     0.249 C 
HETATM    3  O           1     -34.957  -4.896 -15.353  0.00  0.00    -0.271 OA
HETATM    4  N           1     -33.284  -3.995 -14.179  0.00  0.00    -0.345 N 
ENDROOT
BRANCH   4   5
HETATM    5  C           1     -34.097  -3.918 -12.981  0.00  0.00     0.185 C 
BRANCH   5   6
HETATM    6  C           1     -33.196  -3.916 -11.754  0.00  0.00     0.038 C 
BRANCH   6   7
HETATM    7  C           1     -33.912  -4.598 -10.595  0.00  0.00     0.023 C 
BRANCH   7   8
HETATM    8  C           1     -34.693  -5.797 -11.116  0.00  0.00     0.138 C 
BRANCH   8   9
HETATM    9  N           1     -33.862  -7.006 -11.010  0.00  0.00    -0.227 N 
HETATM   10  H           1     -32.995  -7.099 -11.594  0.00  0.00     0.177 HD
HETATM   11  C           1     -34.194  -7.934 -10.215  0.00  0.00     0.665 C 
HETATM   12  N           1     -33.459  -9.003 -10.123  0.00  0.00    -0.235 N 
HETATM   13  N           1     -35.240  -7.821  -9.512  0.00  0.00    -0.235 N 
HETATM   14  H           1     -32.595  -9.096 -10.703  0.00  0.00     0.174 HD
HETATM   15  H           1     -33.733  -9.769  -9.467  0.00  0.00     0.174 HD
HETATM   16  H           1     -35.515  -8.591  -8.852  0.00  0.00     0.174 HD
HETATM   17  H           1     -35.833  -6.959  -9.587  0.00  0.00     0.174 HD
ENDBRANCH   8   9
ENDBRANCH   7   8
ENDBRANCH   6   7
ENDBRANCH   5   6
BRANCH   5  18
HETATM   18  C           1     -34.911  -2.648 -13.008  0.00  0.00     0.196 C 
HETATM   19  O           1     -35.725  -2.408 -12.089  0.00  0.00    -0.646 OA
HETATM   20  O           1     -34.771  -1.835 -13.947  0.00  0.00    -0.646 OA
ENDBRANCH   5  18
ENDBRANCH   4   5
BRANCH   2  21
HETATM   21  C           1     -32.967  -4.588 -16.580  0.00  0.00     0.278 C 
BRANCH  21  22
HETATM   22  C           1     -31.495  -4.491 -16.205  0.00  0.00     0.081 C 
BRANCH  22  23
HETATM   23  C           1     -30.690  -5.373 -17.109  0.00  0.00    -0.056 A 
HETATM   24  C           1     -29.527  -4.885 -17.705  0.00  0.00     0.007 A 
HETATM   25  C           1     -28.778  -5.706 -18.547  0.00  0.00     0.001 A 
HETATM   26  C           1     -29.190  -7.015 -18.791  0.00  0.00     0.000 A 
HETATM   27  C           1     -30.353  -7.504 -18.195  0.00  0.00     0.001 A 
HETATM   28  C           1     -31.103  -6.683 -17.354  0.00  0.00     0.007 A 
ENDBRANCH  22  23
ENDBRANCH  21  22
BRANCH  21  29
HETATM   29  N           1     -33.325  -3.456 -17.498  0.00  0.00    -0.066 N 
HETATM   30  H           1     -34.350  -3.265 -17.432  0.00  0.00     0.275 HD
HETATM   31  H           1     -32.793  -2.600 -17.221  0.00  0.00     0.275 HD
HETATM   32  H           1     -33.083  -3.716 -18.480  0.00  0.00     0.275 HD
ENDBRANCH  21  29
ENDBRANCH   2  21
TORSDOF 10
ENDMDL
MODEL 2
REMARK VINA RESULT:      -7.5     13.934     14.946
REMARK  10 active torsions:
REMARK  status: ('A' for Active; 'I' for Inactive)
REMARK    1  A    between atoms: C_2  and  C_27 
REMARK    2  A    between atoms: C_2  and  C_21 
REMARK    3  A    between atoms: C_6  and  C_7 
REMARK    4  A    between atoms: C_7  and  C_8 
REMARK    5  A    between atoms: C_8  and  C_9 
REMARK    6  A    between atoms: C_8  and  N_12 
REMARK       I    between atoms: C_9  and  N_13 
REMARK    7  A    between atoms: N_13  and  C_20 
REMARK       I    between atoms: N_14  and  C_29 
REMARK    8  A    between atoms: C_20  and  C_21 
REMARK    9  A    between atoms: C_20  and  C_30 
REMARK       I    between atoms: N_22  and  C_29 
REMARK   10  A    between atoms: N_22  and  C_27 
ROOT
HETATM    1  H           1     -22.409  -6.796  -4.638  0.00  0.00     0.163 HD
HETATM    2  C           1     -21.162  -6.452  -6.253  0.00  0.00     0.249 C 
HETATM    3  O           1     -20.095  -6.719  -6.756  0.00  0.00    -0.271 OA
HETATM    4  N           1     -21.516  -7.020  -5.059  0.00  0.00    -0.345 N 
ENDROOT
BRANCH   4   5
HETATM    5  C           1     -20.613  -7.942  -4.398  0.00  0.00     0.185 C 
BRANCH   5   6
HETATM    6  C           1     -20.539  -7.605  -2.915  0.00  0.00     0.038 C 
BRANCH   6   7
HETATM    7  C           1     -21.499  -6.464  -2.603  0.00  0.00     0.023 C 
BRANCH   7   8
HETATM    8  C           1     -22.324  -6.817  -1.373  0.00  0.00     0.138 C 
BRANCH   8   9
HETATM    9  N           1     -22.173  -8.249  -1.075  0.00  0.00    -0.227 N 
HETATM   10  H           1     -21.564  -8.850  -1.684  0.00  0.00     0.177 HD
HETATM   11  C           1     -22.777  -8.757  -0.086  0.00  0.00     0.665 C 
HETATM   12  N           1     -22.643 -10.023   0.176  0.00  0.00    -0.235 N 
HETATM   13  N           1     -23.511  -8.032   0.647  0.00  0.00    -0.235 N 
HETATM   14  H           1     -22.037 -10.621  -0.429  0.00  0.00     0.174 HD
HETATM   15  H           1     -23.142 -10.443   0.994  0.00  0.00     0.174 HD
HETATM   16  H           1     -24.013  -8.454   1.469  0.00  0.00     0.174 HD
HETATM   17  H           1     -23.619  -7.010   0.436  0.00  0.00     0.174 HD
ENDBRANCH   8   9
ENDBRANCH   7   8
ENDBRANCH   6   7
ENDBRANCH   5   6
BRANCH   5  18
HETATM   18  C           1     -21.122  -9.352  -4.568  0.00  0.00     0.196 C 
HETATM   19  O           1     -21.871  -9.855  -3.701  0.00  0.00    -0.646 OA
HETATM   20  O           1     -20.798 -10.017  -5.575  0.00  0.00    -0.646 OA
ENDBRANCH   5  18
ENDBRANCH   4   5
BRANCH   2  21
HETATM   21  C           1     -22.101  -5.494  -6.942  0.00  0.00     0.278 C 
BRANCH  21  22
HETATM   22  C           1     -21.340  -4.240  -7.351  0.00  0.00     0.081 C 
BRANCH  22  23
HETATM   23  C           1     -21.379  -4.094  -8.841  0.00  0.00    -0.056 A 
HETATM   24  C           1     -22.569  -3.735  -9.474  0.00  0.00     0.007 A 
HETATM   25  C           1     -22.606  -3.600 -10.862  0.00  0.00     0.001 A 
HETATM   26  C           1     -21.454  -3.823 -11.615  0.00  0.00     0.000 A 
HETATM   27  C           1     -20.264  -4.182 -10.981  0.00  0.00     0.001 A 
HETATM   28  C           1     -20.227  -4.318  -9.594  0.00  0.00     0.007 A 
ENDBRANCH  22  23
ENDBRANCH  21  22
BRANCH  21  29
HETATM   29  N           1     -23.211  -5.122  -6.003  0.00  0.00    -0.066 N 
HETATM   30  H           1     -23.077  -4.138  -5.678  0.00  0.00     0.275 HD
HETATM   31  H           1     -24.128  -5.203  -6.498  0.00  0.00     0.275 HD
HETATM   32  H           1     -23.199  -5.765  -5.180  0.00  0.00     0.275 HD
ENDBRANCH  21  29
ENDBRANCH   2  21
TORSDOF 10
ENDMDL
MODEL 3
REMARK VINA RESULT:      -7.4     14.085     16.380
REMARK  10 active torsions:
REMARK  status: ('A' for Active; 'I' for Inactive)
REMARK    1  A    between atoms: C_2  and  C_27 
REMARK    2  A    between atoms: C_2  and  C_21 
REMARK    3  A    between atoms: C_6  and  C_7 
REMARK    4  A    between atoms: C_7  and  C_8 
REMARK    5  A    between atoms: C_8  and  C_9 
REMARK    6  A    between atoms: C_8  and  N_12 
REMARK       I    between atoms: C_9  and  N_13 
REMARK    7  A    between atoms: N_13  and  C_20 
REMARK       I    between atoms: N_14  and  C_29 
REMARK    8  A    between atoms: C_20  and  C_21 
REMARK    9  A    between atoms: C_20  and  C_30 
REMARK       I    between atoms: N_22  and  C_29 
REMARK   10  A    between atoms: N_22  and  C_27 
ROOT
HETATM    1  H           1     -20.817  -4.408  -4.874  0.00  0.00     0.163 HD
HETATM    2  C           1     -21.504  -6.319  -4.480  0.00  0.00     0.249 C 
HETATM    3  O           1     -21.937  -7.337  -4.968  0.00  0.00    -0.271 OA
HETATM    4  N           1     -21.179  -5.260  -5.283  0.00  0.00    -0.345 N 
ENDROOT
BRANCH   4   5
HETATM    5  C           1     -21.353  -5.358  -6.719  0.00  0.00     0.185 C 
BRANCH   5   6
HETATM    6  C           1     -21.895  -4.041  -7.257  0.00  0.00     0.038 C 
BRANCH   6   7
HETATM    7  C           1     -23.180  -4.298  -8.034  0.00  0.00     0.023 C 
BRANCH   7   8
HETATM    8  C           1     -22.839  -4.657  -9.474  0.00  0.00     0.138 C 
BRANCH   8   9
HETATM    9  N           1     -21.749  -3.792  -9.950  0.00  0.00    -0.227 N 
HETATM   10  H           1     -21.244  -3.166  -9.275  0.00  0.00     0.177 HD
HETATM   11  C           1     -21.421  -3.803 -11.172  0.00  0.00     0.665 C 
HETATM   12  N           1     -20.457  -3.037 -11.593  0.00  0.00    -0.235 N 
HETATM   13  N           1     -22.030  -4.557 -11.985  0.00  0.00    -0.235 N 
HETATM   14  H           1     -19.954  -2.414 -10.921  0.00  0.00     0.174 HD
HETATM   15  H           1     -20.186  -3.045 -12.602  0.00  0.00     0.174 HD
HETATM   16  H           1     -21.758  -4.566 -13.000  0.00  0.00     0.174 HD
HETATM   17  H           1     -22.808  -5.175 -11.646  0.00  0.00     0.174 HD
ENDBRANCH   8   9
ENDBRANCH   7   8
ENDBRANCH   6   7
ENDBRANCH   5   6
BRANCH   5  18
HETATM   18  C           1     -20.023  -5.655  -7.367  0.00  0.00     0.196 C 
HETATM   19  O           1     -19.476  -4.796  -8.094  0.00  0.00    -0.646 OA
HETATM   20  O           1     -19.467  -6.758  -7.177  0.00  0.00    -0.646 OA
ENDBRANCH   5  18
ENDBRANCH   4   5
BRANCH   2  21
HETATM   21  C           1     -21.322  -6.218  -2.986  0.00  0.00     0.278 C 
BRANCH  21  22
HETATM   22  C           1     -20.698  -7.503  -2.461  0.00  0.00     0.081 C 
BRANCH  22  23
HETATM   23  C           1     -21.647  -8.170  -1.513  0.00  0.00    -0.056 A 
HETATM   24  C           1     -22.070  -7.501  -0.365  0.00  0.00     0.007 A 
HETATM   25  C           1     -22.954  -8.121   0.518  0.00  0.00     0.001 A 
HETATM   26  C           1     -23.414  -9.411   0.252  0.00  0.00     0.000 A 
HETATM   27  C           1     -22.991 -10.080  -0.897  0.00  0.00     0.001 A 
HETATM   28  C           1     -22.107  -9.460  -1.779  0.00  0.00     0.007 A 
ENDBRANCH  22  23
ENDBRANCH  21  22
BRANCH  21  29
HETATM   29  N           1     -22.658  -6.009  -2.334  0.00  0.00    -0.066 N 
HETATM   30  H           1     -23.226  -6.881  -2.417  0.00  0.00     0.275 HD
HETATM   31  H           1     -22.521  -5.776  -1.325  0.00  0.00     0.275 HD
HETATM   32  H           1     -23.156  -5.222  -2.809  0.00  0.00     0.275 HD
ENDBRANCH  21  29
ENDBRANCH   2  21
TORSDOF 10
ENDMDL
MODEL 4
REMARK VINA RESULT:      -7.3     14.644     15.737
REMARK  10 active torsions:
REMARK  status: ('A' for Active; 'I' for Inactive)
REMARK    1  A    between atoms: C_2  and  C_27 
REMARK    2  A    between atoms: C_2  and  C_21 
REMARK    3  A    between atoms: C_6  and  C_7 
REMARK    4  A    between atoms: C_7  and  C_8 
REMARK    5  A    between atoms: C_8  and  C_9 
REMARK    6  A    between atoms: C_8  and  N_12 
REMARK       I    between atoms: C_9  and  N_13 
REMARK    7  A    between atoms: N_13  and  C_20 
REMARK       I    between atoms: N_14  and  C_29 
REMARK    8  A    between atoms: C_20  and  C_21 
REMARK    9  A    between atoms: C_20  and  C_30 
REMARK       I    between atoms: N_22  and  C_29 
REMARK   10  A    between atoms: N_22  and  C_27 
ROOT
HETATM    1  H           1     -20.623  -8.393  -6.563  0.00  0.00     0.163 HD
HETATM    2  C           1     -20.685  -6.618  -5.500  0.00  0.00     0.249 C 
HETATM    3  O           1     -20.325  -6.051  -4.495  0.00  0.00    -0.271 OA
HETATM    4  N           1     -20.320  -7.919  -5.721  0.00  0.00    -0.345 N 
ENDROOT
BRANCH   4   5
HETATM    5  C           1     -19.500  -8.616  -4.750  0.00  0.00     0.185 C 
BRANCH   5   6
HETATM    6  C           1     -20.394  -9.403  -3.802  0.00  0.00     0.038 C 
BRANCH   6   7
HETATM    7  C           1     -19.724  -9.505  -2.437  0.00  0.00     0.023 C 
BRANCH   7   8
HETATM    8  C           1     -20.539  -8.728  -1.412  0.00  0.00     0.138 C 
BRANCH   8   9
HETATM    9  N           1     -20.976  -7.452  -1.999  0.00  0.00    -0.227 N 
HETATM   10  H           1     -20.456  -7.045  -2.815  0.00  0.00     0.177 HD
HETATM   11  C           1     -21.978  -6.845  -1.519  0.00  0.00     0.665 C 
HETATM   12  N           1     -22.364  -5.717  -2.038  0.00  0.00    -0.235 N 
HETATM   13  N           1     -22.604  -7.337  -0.535  0.00  0.00    -0.235 N 
HETATM   14  H           1     -21.847  -5.312  -2.851  0.00  0.00     0.174 HD
HETATM   15  H           1     -23.191  -5.216  -1.642  0.00  0.00     0.174 HD
HETATM   16  H           1     -23.436  -6.833  -0.137  0.00  0.00     0.174 HD
HETATM   17  H           1     -22.293  -8.247  -0.116  0.00  0.00     0.174 HD
ENDBRANCH   8   9
ENDBRANCH   7   8
ENDBRANCH   6   7
ENDBRANCH   5   6
BRANCH   5  18
HETATM   18  C           1     -18.572  -9.565  -5.467  0.00  0.00     0.196 C 
HETATM   19  O           1     -19.010 -10.301  -6.379  0.00  0.00    -0.646 OA
HETATM   20  O           1     -17.363  -9.616  -5.151  0.00  0.00    -0.646 OA
ENDBRANCH   5  18
ENDBRANCH   4   5
BRANCH   2  21
HETATM   21  C           1     -21.538  -5.891  -6.510  0.00  0.00     0.278 C 
BRANCH  21  22
HETATM   22  C           1     -20.835  -4.611  -6.942  0.00  0.00     0.081 C 
BRANCH  22  23
HETATM   23  C           1     -21.082  -4.373  -8.400  0.00  0.00    -0.056 A 
HETATM   24  C           1     -22.312  -3.872  -8.826  0.00  0.00     0.007 A 
HETATM   25  C           1     -22.543  -3.651 -10.184  0.00  0.00     0.001 A 
HETATM   26  C           1     -21.543  -3.929 -11.115  0.00  0.00     0.000 A 
HETATM   27  C           1     -20.312  -4.431 -10.689  0.00  0.00     0.001 A 
HETATM   28  C           1     -20.082  -4.653  -9.331  0.00  0.00     0.007 A 
ENDBRANCH  22  23
ENDBRANCH  21  22
BRANCH  21  29
HETATM   29  N           1     -22.862  -5.550  -5.892  0.00  0.00    -0.066 N 
HETATM   30  H           1     -23.394  -4.920  -6.533  0.00  0.00     0.275 HD
HETATM   31  H           1     -23.408  -6.426  -5.733  0.00  0.00     0.275 HD
HETATM   32  H           1     -22.704  -5.066  -4.979  0.00  0.00     0.275 HD
ENDBRANCH  21  29
ENDBRANCH   2  21
TORSDOF 10
ENDMDL
MODEL 5
REMARK VINA RESULT:      -7.3     14.171     16.391
REMARK  10 active torsions:
REMARK  status: ('A' for Active; 'I' for Inactive)
REMARK    1  A    between atoms: C_2  and  C_27 
REMARK    2  A    between atoms: C_2  and  C_21 
REMARK    3  A    between atoms: C_6  and  C_7 
REMARK    4  A    between atoms: C_7  and  C_8 
REMARK    5  A    between atoms: C_8  and  C_9 
REMARK    6  A    between atoms: C_8  and  N_12 
REMARK       I    between atoms: C_9  and  N_13 
REMARK    7  A    between atoms: N_13  and  C_20 
REMARK       I    between atoms: N_14  and  C_29 
REMARK    8  A    between atoms: C_20  and  C_21 
REMARK    9  A    between atoms: C_20  and  C_30 
REMARK       I    between atoms: N_22  and  C_29 
REMARK   10  A    between atoms: N_22  and  C_27 
ROOT
HETATM    1  H           1     -21.191  -6.174  -4.156  0.00  0.00     0.163 HD
HETATM    2  C           1     -20.426  -7.968  -4.849  0.00  0.00     0.249 C 
HETATM    3  O           1     -20.065  -8.579  -5.827  0.00  0.00    -0.271 OA
HETATM    4  N           1     -20.888  -6.686  -4.975  0.00  0.00    -0.345 N 
ENDROOT
BRANCH   4   5
HETATM    5  C           1     -20.945  -6.061  -6.282  0.00  0.00     0.185 C 
BRANCH   5   6
HETATM    6  C           1     -22.266  -5.320  -6.435  0.00  0.00     0.038 C 
BRANCH   6   7
HETATM    7  C           1     -22.047  -4.050  -7.248  0.00  0.00     0.023 C 
BRANCH   7   8
HETATM    8  C           1     -22.635  -4.232  -8.641  0.00  0.00     0.138 C 
BRANCH   8   9
HETATM    9  N           1     -24.013  -3.720  -8.661  0.00  0.00    -0.227 N 
HETATM   10  H           1     -24.414  -3.256  -7.809  0.00  0.00     0.177 HD
HETATM   11  C           1     -24.718  -3.840  -9.706  0.00  0.00     0.665 C 
HETATM   12  N           1     -25.937  -3.388  -9.723  0.00  0.00    -0.235 N 
HETATM   13  N           1     -24.235  -4.400 -10.734  0.00  0.00    -0.235 N 
HETATM   14  H           1     -26.335  -2.925  -8.875  0.00  0.00     0.174 HD
HETATM   15  H           1     -26.518  -3.487 -10.586  0.00  0.00     0.174 HD
HETATM   16  H           1     -24.820  -4.499 -11.601  0.00  0.00     0.174 HD
HETATM   17  H           1     -23.252  -4.765 -10.720  0.00  0.00     0.174 HD
ENDBRANCH   8   9
ENDBRANCH   7   8
ENDBRANCH   6   7
ENDBRANCH   5   6
BRANCH   5  18
HETATM   18  C           1     -19.803  -5.085  -6.422  0.00  0.00     0.196 C 
HETATM   19  O           1     -19.474  -4.365  -5.453  0.00  0.00    -0.646 OA
HETATM   20  O           1     -19.186  -4.995  -7.504  0.00  0.00    -0.646 OA
ENDBRANCH   5  18
ENDBRANCH   4   5
BRANCH   2  21
HETATM   21  C           1     -20.366  -8.619  -3.489  0.00  0.00     0.278 C 
BRANCH  21  22
HETATM   22  C           1     -20.751  -7.605  -2.421  0.00  0.00     0.081 C 
BRANCH  22  23
HETATM   23  C           1     -21.717  -8.230  -1.463  0.00  0.00    -0.056 A 
HETATM   24  C           1     -22.239  -7.480  -0.410  0.00  0.00     0.007 A 
HETATM   25  C           1     -23.138  -8.062   0.484  0.00  0.00     0.001 A 
HETATM   26  C           1     -23.515  -9.395   0.323  0.00  0.00     0.000 A 
HETATM   27  C           1     -22.992 -10.146  -0.731  0.00  0.00     0.001 A 
HETATM   28  C           1     -22.093  -9.564  -1.624  0.00  0.00     0.007 A 
ENDBRANCH  22  23
ENDBRANCH  21  22
BRANCH  21  29
HETATM   29  N           1     -18.971  -9.109  -3.233  0.00  0.00    -0.066 N 
HETATM   30  H           1     -18.444  -9.149  -4.134  0.00  0.00     0.275 HD
HETATM   31  H           1     -18.487  -8.457  -2.576  0.00  0.00     0.275 HD
HETATM   32  H           1     -19.011 -10.064  -2.811  0.00  0.00     0.275 HD
ENDBRANCH  21  29
ENDBRANCH   2  21
TORSDOF 10
ENDMDL
MODEL 6
REMARK VINA RESULT:      -7.2     14.011     15.154
REMARK  10 active torsions:
REMARK  status: ('A' for Active; 'I' for Inactive)
REMARK    1  A    between atoms: C_2  and  C_27 
REMARK    2  A    between atoms: C_2  and  C_21 
REMARK    3  A    between atoms: C_6  and  C_7 
REMARK    4  A    between atoms: C_7  and  C_8 
REMARK    5  A    between atoms: C_8  and  C_9 
REMARK    6  A    between atoms: C_8  and  N_12 
REMARK       I    between atoms: C_9  and  N_13 
REMARK    7  A    between atoms: N_13  and  C_20 
REMARK       I    between atoms: N_14  and  C_29 
REMARK    8  A    between atoms: C_20  and  C_21 
REMARK    9  A    between atoms: C_20  and  C_30 
REMARK       I    between atoms: N_22  and  C_29 
REMARK   10  A    between atoms: N_22  and  C_27 
ROOT
HETATM    1  H           1     -19.923  -6.718  -4.555  0.00  0.00     0.163 HD
HETATM    2  C           1     -21.680  -5.958  -5.340  0.00  0.00     0.249 C 
HETATM    3  O           1     -22.886  -6.020  -5.312  0.00  0.00    -0.271 OA
HETATM    4  N           1     -20.933  -6.771  -4.531  0.00  0.00    -0.345 N 
ENDROOT
BRANCH   4   5
HETATM    5  C           1     -21.590  -7.707  -3.640  0.00  0.00     0.185 C 
BRANCH   5   6
HETATM    6  C           1     -20.926  -9.072  -3.757  0.00  0.00     0.038 C 
BRANCH   6   7
HETATM    7  C           1     -21.995 -10.156  -3.805  0.00  0.00     0.023 C 
BRANCH   7   8
HETATM    8  C           1     -21.833 -11.081  -2.605  0.00  0.00     0.138 C 
BRANCH   8   9
HETATM    9  N           1     -23.084 -11.105  -1.833  0.00  0.00    -0.227 N 
HETATM   10  H           1     -23.960 -11.491  -2.264  0.00  0.00     0.177 HD
HETATM   11  C           1     -23.105 -10.659  -0.648  0.00  0.00     0.665 C 
HETATM   12  N           1     -24.212 -10.679   0.034  0.00  0.00    -0.235 N 
HETATM   13  N           1     -22.049 -10.193  -0.129  0.00  0.00    -0.235 N 
HETATM   14  H           1     -25.084 -11.064  -0.395  0.00  0.00     0.174 HD
HETATM   15  H           1     -24.229 -10.311   1.012  0.00  0.00     0.174 HD
HETATM   16  H           1     -22.067  -9.822   0.854  0.00  0.00     0.174 HD
HETATM   17  H           1     -21.157 -10.176  -0.680  0.00  0.00     0.174 HD
ENDBRANCH   8   9
ENDBRANCH   7   8
ENDBRANCH   6   7
ENDBRANCH   5   6
BRANCH   5  18
HETATM   18  C           1     -21.473  -7.213  -2.219  0.00  0.00     0.196 C 
HETATM   19  O           1     -20.672  -7.762  -1.430  0.00  0.00    -0.646 OA
HETATM   20  O           1     -22.175  -6.255  -1.830  0.00  0.00    -0.646 OA
ENDBRANCH   5  18
ENDBRANCH   4   5
BRANCH   2  21
HETATM   21  C           1     -20.997  -4.982  -6.268  0.00  0.00     0.278 C 
BRANCH  21  22
HETATM   22  C           1     -20.601  -5.694  -7.553  0.00  0.00     0.081 C 
BRANCH  22  23
HETATM   23  C           1     -21.056  -4.890  -8.732  0.00  0.00    -0.056 A 
HETATM   24  C           1     -20.169  -4.613  -9.771  0.00  0.00     0.007 A 
HETATM   25  C           1     -20.592  -3.863 -10.869  0.00  0.00     0.001 A 
HETATM   26  C           1     -21.904  -3.392 -10.926  0.00  0.00     0.000 A 
HETATM   27  C           1     -22.791  -3.669  -9.885  0.00  0.00     0.001 A 
HETATM   28  C           1     -22.367  -4.418  -8.788  0.00  0.00     0.007 A 
ENDBRANCH  22  23
ENDBRANCH  21  22
BRANCH  21  29
HETATM   29  N           1     -19.771  -4.435  -5.600  0.00  0.00    -0.066 N 
HETATM   30  H           1     -19.007  -5.147  -5.636  0.00  0.00     0.275 HD
HETATM   31  H           1     -19.461  -3.568  -6.095  0.00  0.00     0.275 HD
HETATM   32  H           1     -19.989  -4.209  -4.603  0.00  0.00     0.275 HD
ENDBRANCH  21  29
ENDBRANCH   2  21
TORSDOF 10
ENDMDL
MODEL 7
REMARK VINA RESULT:      -6.9     14.412     15.535
REMARK  10 active torsions:
REMARK  status: ('A' for Active; 'I' for Inactive)
REMARK    1  A    between atoms: C_2  and  C_27 
REMARK    2  A    between atoms: C_2  and  C_21 
REMARK    3  A    between atoms: C_6  and  C_7 
REMARK    4  A    between atoms: C_7  and  C_8 
REMARK    5  A    between atoms: C_8  and  C_9 
REMARK    6  A    between atoms: C_8  and  N_12 
REMARK       I    between atoms: C_9  and  N_13 
REMARK    7  A    between atoms: N_13  and  C_20 
REMARK       I    between atoms: N_14  and  C_29 
REMARK    8  A    between atoms: C_20  and  C_21 
REMARK    9  A    between atoms: C_20  and  C_30 
REMARK       I    between atoms: N_22  and  C_29 
REMARK   10  A    between atoms: N_22  and  C_27 
ROOT
HETATM    1  H           1     -19.944  -6.598  -4.548  0.00  0.00     0.163 HD
HETATM    2  C           1     -21.669  -5.873  -5.431  0.00  0.00     0.249 C 
HETATM    3  O           1     -22.876  -5.939  -5.450  0.00  0.00    -0.271 OA
HETATM    4  N           1     -20.955  -6.653  -4.563  0.00  0.00    -0.345 N 
ENDROOT
BRANCH   4   5
HETATM    5  C           1     -21.645  -7.559  -3.666  0.00  0.00     0.185 C 
BRANCH   5   6
HETATM    6  C           1     -20.936  -8.907  -3.659  0.00  0.00     0.038 C 
BRANCH   6   7
HETATM    7  C           1     -21.257  -9.657  -4.946  0.00  0.00     0.023 C 
BRANCH   7   8
HETATM    8  C           1     -20.158 -10.674  -5.228  0.00  0.00     0.138 C 
BRANCH   8   9
HETATM    9  N           1     -18.991  -9.987  -5.801  0.00  0.00    -0.227 N 
HETATM   10  H           1     -19.128  -9.204  -6.487  0.00  0.00     0.177 HD
HETATM   11  C           1     -17.823 -10.341  -5.468  0.00  0.00     0.665 C 
HETATM   12  N           1     -16.791  -9.734  -5.976  0.00  0.00    -0.235 N 
HETATM   13  N           1     -17.658 -11.285  -4.641  0.00  0.00    -0.235 N 
HETATM   14  H           1     -16.926  -8.954  -6.658  0.00  0.00     0.174 HD
HETATM   15  H           1     -15.825 -10.026  -5.701  0.00  0.00     0.174 HD
HETATM   16  H           1     -16.688 -11.579  -4.365  0.00  0.00     0.174 HD
HETATM   17  H           1     -18.491 -11.775  -4.232  0.00  0.00     0.174 HD
ENDBRANCH   8   9
ENDBRANCH   7   8
ENDBRANCH   6   7
ENDBRANCH   5   6
BRANCH   5  18
HETATM   18  C           1     -21.642  -6.984  -2.272  0.00  0.00     0.196 C 
HETATM   19  O           1     -21.006  -7.558  -1.360  0.00  0.00    -0.646 OA
HETATM   20  O           1     -22.273  -5.933  -2.027  0.00  0.00    -0.646 OA
ENDBRANCH   5  18
ENDBRANCH   4   5
BRANCH   2  21
HETATM   21  C           1     -20.952  -4.929  -6.365  0.00  0.00     0.278 C 
BRANCH  21  22
HETATM   22  C           1     -20.577  -5.665  -7.644  0.00  0.00     0.081 C 
BRANCH  22  23
HETATM   23  C           1     -21.010  -4.859  -8.829  0.00  0.00    -0.056 A 
HETATM   24  C           1     -22.308  -4.352  -8.891  0.00  0.00     0.007 A 
HETATM   25  C           1     -22.712  -3.602  -9.996  0.00  0.00     0.001 A 
HETATM   26  C           1     -21.817  -3.357 -11.037  0.00  0.00     0.000 A 
HETATM   27  C           1     -20.518  -3.864 -10.975  0.00  0.00     0.001 A 
HETATM   28  C           1     -20.115  -4.615  -9.871  0.00  0.00     0.007 A 
ENDBRANCH  22  23
ENDBRANCH  21  22
BRANCH  21  29
HETATM   29  N           1     -19.708  -4.419  -5.699  0.00  0.00    -0.066 N 
HETATM   30  H           1     -19.254  -5.196  -5.168  0.00  0.00     0.275 HD
HETATM   31  H           1     -19.047  -4.059  -6.423  0.00  0.00     0.275 HD
HETATM   32  H           1     -19.959  -3.648  -5.040  0.00  0.00     0.275 HD
ENDBRANCH  21  29
ENDBRANCH   2  21
TORSDOF 10
ENDMDL
MODEL 8
REMARK VINA RESULT:      -6.8      4.102      8.200
REMARK  10 active torsions:
REMARK  status: ('A' for Active; 'I' for Inactive)
REMARK    1  A    between atoms: C_2  and  C_27 
REMARK    2  A    between atoms: C_2  and  C_21 
REMARK    3  A    between atoms: C_6  and  C_7 
REMARK    4  A    between atoms: C_7  and  C_8 
REMARK    5  A    between atoms: C_8  and  C_9 
REMARK    6  A    between atoms: C_8  and  N_12 
REMARK       I    between atoms: C_9  and  N_13 
REMARK    7  A    between atoms: N_13  and  C_20 
REMARK       I    between atoms: N_14  and  C_29 
REMARK    8  A    between atoms: C_20  and  C_21 
REMARK    9  A    between atoms: C_20  and  C_30 
REMARK       I    between atoms: N_22  and  C_29 
REMARK   10  A    between atoms: N_22  and  C_27 
ROOT
HETATM    1  H           1     -30.613  -4.016 -15.636  0.00  0.00     0.163 HD
HETATM    2  C           1     -32.318  -4.909 -16.395  0.00  0.00     0.249 C 
HETATM    3  O           1     -32.753  -5.862 -16.999  0.00  0.00    -0.271 OA
HETATM    4  N           1     -30.977  -4.814 -16.141  0.00  0.00    -0.345 N 
ENDROOT
BRANCH   4   5
HETATM    5  C           1     -30.077  -5.855 -16.596  0.00  0.00     0.185 C 
BRANCH   5   6
HETATM    6  C           1     -29.658  -5.574 -18.033  0.00  0.00     0.038 C 
BRANCH   6   7
HETATM    7  C           1     -28.708  -6.666 -18.509  0.00  0.00     0.023 C 
BRANCH   7   8
HETATM    8  C           1     -27.464  -6.027 -19.114  0.00  0.00     0.138 C 
BRANCH   8   9
HETATM    9  N           1     -26.264  -6.646 -18.531  0.00  0.00    -0.227 N 
HETATM   10  H           1     -26.227  -6.854 -17.503  0.00  0.00     0.177 HD
HETATM   11  C           1     -25.276  -6.928 -19.270  0.00  0.00     0.665 C 
HETATM   12  N           1     -24.214  -7.475 -18.755  0.00  0.00    -0.235 N 
HETATM   13  N           1     -25.320  -6.677 -20.510  0.00  0.00    -0.235 N 
HETATM   14  H           1     -24.178  -7.682 -17.731  0.00  0.00     0.174 HD
HETATM   15  H           1     -23.398  -7.707 -19.365  0.00  0.00     0.174 HD
HETATM   16  H           1     -24.500  -6.911 -21.123  0.00  0.00     0.174 HD
HETATM   17  H           1     -26.176  -6.236 -20.926  0.00  0.00     0.174 HD
ENDBRANCH   8   9
ENDBRANCH   7   8
ENDBRANCH   6   7
ENDBRANCH   5   6
BRANCH   5  18
HETATM   18  C           1     -28.853  -5.882 -15.714  0.00  0.00     0.196 C 
HETATM   19  O           1     -28.513  -6.944 -15.147  0.00  0.00    -0.646 OA
HETATM   20  O           1     -28.178  -4.843 -15.550  0.00  0.00    -0.646 OA
ENDBRANCH   5  18
ENDBRANCH   4   5
BRANCH   2  21
HETATM   21  C           1     -33.256  -3.826 -15.922  0.00  0.00     0.278 C 
BRANCH  21  22
HETATM   22  C           1     -34.235  -4.407 -14.911  0.00  0.00     0.081 C 
BRANCH  22  23
HETATM   23  C           1     -34.015  -3.765 -13.576  0.00  0.00    -0.056 A 
HETATM   24  C           1     -34.733  -2.622 -13.225  0.00  0.00     0.007 A 
HETATM   25  C           1     -34.527  -2.023 -11.982  0.00  0.00     0.001 A 
HETATM   26  C           1     -33.604  -2.569 -11.090  0.00  0.00     0.000 A 
HETATM   27  C           1     -32.886  -3.713 -11.441  0.00  0.00     0.001 A 
HETATM   28  C           1     -33.091  -4.311 -12.684  0.00  0.00     0.007 A 
ENDBRANCH  22  23
ENDBRANCH  21  22
BRANCH  21  29
HETATM   29  N           1     -34.014  -3.277 -17.094  0.00  0.00    -0.066 N 
HETATM   30  H           1     -33.390  -2.649 -17.650  0.00  0.00     0.275 HD
HETATM   31  H           1     -34.343  -4.064 -17.698  0.00  0.00     0.275 HD
HETATM   32  H           1     -34.838  -2.733 -16.751  0.00  0.00     0.275 HD
ENDBRANCH  21  29
ENDBRANCH   2  21
TORSDOF 10
ENDMDL
MODEL 9
REMARK VINA RESULT:      -6.6     15.808     17.037
REMARK  10 active torsions:
REMARK  status: ('A' for Active; 'I' for Inactive)
REMARK    1  A    between atoms: C_2  and  C_27 
REMARK    2  A    between atoms: C_2  and  C_21 
REMARK    3  A    between atoms: C_6  and  C_7 
REMARK    4  A    between atoms: C_7  and  C_8 
REMARK    5  A    between atoms: C_8  and  C_9 
REMARK    6  A    between atoms: C_8  and  N_12 
REMARK       I    between atoms: C_9  and  N_13 
REMARK    7  A    between atoms: N_13  and  C_20 
REMARK       I    between atoms: N_14  and  C_29 
REMARK    8  A    between atoms: C_20  and  C_21 
REMARK    9  A    between atoms: C_20  and  C_30 
REMARK       I    between atoms: N_22  and  C_29 
REMARK   10  A    between atoms: N_22  and  C_27 
ROOT
HETATM    1  H           1     -20.814  -8.163  -3.691  0.00  0.00     0.163 HD
HETATM    2  C           1     -20.193  -7.283  -5.458  0.00  0.00     0.249 C 
HETATM    3  O           1     -19.425  -7.362  -6.388  0.00  0.00    -0.271 OA
HETATM    4  N           1     -20.171  -8.229  -4.469  0.00  0.00    -0.345 N 
ENDROOT
BRANCH   4   5
HETATM    5  C           1     -19.225  -9.326  -4.538  0.00  0.00     0.185 C 
BRANCH   5   6
HETATM    6  C           1     -18.604  -9.548  -3.165  0.00  0.00     0.038 C 
BRANCH   6   7
HETATM    7  C           1     -17.086  -9.493  -3.279  0.00  0.00     0.023 C 
BRANCH   7   8
HETATM    8  C           1     -16.536 -10.906  -3.427  0.00  0.00     0.138 C 
BRANCH   8   9
HETATM    9  N           1     -16.053 -11.102  -4.802  0.00  0.00    -0.227 N 
HETATM   10  H           1     -15.380 -10.416  -5.224  0.00  0.00     0.177 HD
HETATM   11  C           1     -16.450 -12.098  -5.475  0.00  0.00     0.665 C 
HETATM   12  N           1     -16.023 -12.270  -6.692  0.00  0.00    -0.235 N 
HETATM   13  N           1     -17.261 -12.924  -4.966  0.00  0.00    -0.235 N 
HETATM   14  H           1     -15.353 -11.588  -7.112  0.00  0.00     0.174 HD
HETATM   15  H           1     -16.350 -13.092  -7.248  0.00  0.00     0.174 HD
HETATM   16  H           1     -17.590 -13.751  -5.525  0.00  0.00     0.174 HD
HETATM   17  H           1     -17.606 -12.785  -3.985  0.00  0.00     0.174 HD
ENDBRANCH   8   9
ENDBRANCH   7   8
ENDBRANCH   6   7
ENDBRANCH   5   6
BRANCH   5  18
HETATM   18  C           1     -19.942 -10.580  -4.972  0.00  0.00     0.196 C 
HETATM   19  O           1     -19.979 -11.575  -4.214  0.00  0.00    -0.646 OA
HETATM   20  O           1     -20.501 -10.626  -6.089  0.00  0.00    -0.646 OA
ENDBRANCH   5  18
ENDBRANCH   4   5
BRANCH   2  21
HETATM   21  C           1     -21.177  -6.141  -5.389  0.00  0.00     0.278 C 
BRANCH  21  22
HETATM   22  C           1     -20.499  -4.856  -5.842  0.00  0.00     0.081 C 
BRANCH  22  23
HETATM   23  C           1     -20.939  -4.523  -7.234  0.00  0.00    -0.056 A 
HETATM   24  C           1     -22.276  -4.215  -7.488  0.00  0.00     0.007 A 
HETATM   25  C           1     -22.687  -3.906  -8.784  0.00  0.00     0.001 A 
HETATM   26  C           1     -21.760  -3.902  -9.827  0.00  0.00     0.000 A 
HETATM   27  C           1     -20.423  -4.209  -9.573  0.00  0.00     0.001 A 
HETATM   28  C           1     -20.012  -4.520  -8.277  0.00  0.00     0.007 A 
ENDBRANCH  22  23
ENDBRANCH  21  22
BRANCH  21  29
HETATM   29  N           1     -21.657  -5.982  -3.976  0.00  0.00    -0.066 N 
HETATM   30  H           1     -22.281  -6.783  -3.728  0.00  0.00     0.275 HD
HETATM   31  H           1     -20.837  -5.965  -3.329  0.00  0.00     0.275 HD
HETATM   32  H           1     -22.190  -5.087  -3.889  0.00  0.00     0.275 HD
ENDBRANCH  21  29
ENDBRANCH   2  21
TORSDOF 10
ENDMDL
