MODEL 1
REMARK VINA RESULT:      -6.1      0.000      0.000
REMARK  5 active torsions:
REMARK  status: ('A' for Active; 'I' for Inactive)
REMARK    1  A    between atoms: C_2  and  C_16 
REMARK       I    between atoms: N_4  and  C_11 
REMARK    2  A    between atoms: C_5  and  C_9 
REMARK    3  A    between atoms: C_11  and  C_15 
REMARK    4  A    between atoms: N_14  and  C_15 
REMARK    5  A    between atoms: C_15  and  C_16 
ROOT
HETATM    1  N           1     -27.327  -5.995 -18.182  0.00  0.00    -0.336 N 
HETATM    2  C           1     -27.458  -5.818 -16.738  0.00  0.00     0.188 C 
HETATM    3  C           1     -28.301  -4.562 -16.602  0.00  0.00     0.038 C 
HETATM    4  C           1     -29.085  -4.467 -17.905  0.00  0.00     0.022 C 
HETATM    5  C           1     -26.213  -6.382 -18.877  0.00  0.00     0.251 C 
HETATM    6  C           1     -28.645  -5.670 -18.721  0.00  0.00     0.127 C 
HETATM    7  O           1     -25.185  -6.618 -18.288  0.00  0.00    -0.271 OA
ENDROOT
BRANCH   5   8
HETATM    8  C           1     -26.269  -6.512 -20.379  0.00  0.00     0.278 C 
BRANCH   8   9
HETATM    9  N           1     -25.328  -5.522 -21.001  0.00  0.00    -0.066 N 
HETATM   10  H           1     -24.355  -5.713 -20.673  0.00  0.00     0.275 HD
HETATM   11  H           1     -25.369  -5.609 -22.041  0.00  0.00     0.275 HD
HETATM   12  H           1     -25.606  -4.554 -20.720  0.00  0.00     0.275 HD
ENDBRANCH   8   9
BRANCH   8  13
HETATM   13  C           1     -25.860  -7.922 -20.783  0.00  0.00     0.021 C 
HETATM   14  C           1     -27.065  -8.658 -21.353  0.00  0.00     0.012 C 
BRANCH  13  15
HETATM   15  C           1     -24.764  -7.849 -21.837  0.00  0.00     0.002 C 
HETATM   16  C           1     -23.451  -8.344 -21.243  0.00  0.00     0.005 C 
ENDBRANCH  13  15
ENDBRANCH   8  13
ENDBRANCH   5   8
BRANCH   2  17
HETATM   17  C           1     -28.153  -7.001 -16.112  0.00  0.00     0.196 C 
HETATM   18  O           1     -29.080  -7.577 -16.722  0.00  0.00    -0.646 OA
HETATM   19  O           1     -27.802  -7.407 -14.983  0.00  0.00    -0.646 OA
ENDBRANCH   2  17
TORSDOF 5
ENDMDL
MODEL 2
REMARK VINA RESULT:      -6.0     17.467     19.693
REMARK  5 active torsions:
REMARK  status: ('A' for Active; 'I' for Inactive)
REMARK    1  A    between atoms: C_2  and  C_16 
REMARK       I    between atoms: N_4  and  C_11 
REMARK    2  A    between atoms: C_5  and  C_9 
REMARK    3  A    between atoms: C_11  and  C_15 
REMARK    4  A    between atoms: N_14  and  C_15 
REMARK    5  A    between atoms: C_15  and  C_16 
ROOT
HETATM    1  N           1     -21.373  -9.395  -0.965  0.00  0.00    -0.336 N 
HETATM    2  C           1     -21.071  -7.966  -0.941  0.00  0.00     0.188 C 
HETATM    3  C           1     -20.378  -7.720  -2.270  0.00  0.00     0.038 C 
HETATM    4  C           1     -20.870  -8.835  -3.186  0.00  0.00     0.022 C 
HETATM    5  C           1     -21.268 -10.286   0.069  0.00  0.00     0.251 C 
HETATM    6  C           1     -21.813  -9.663  -2.331  0.00  0.00     0.127 C 
HETATM    7  O           1     -20.885  -9.913   1.152  0.00  0.00    -0.271 OA
ENDROOT
BRANCH   5   8
HETATM    8  C           1     -21.629 -11.736  -0.146  0.00  0.00     0.278 C 
BRANCH   8   9
HETATM    9  N           1     -20.518 -12.607   0.362  0.00  0.00    -0.066 N 
HETATM   10  H           1     -20.718 -12.886   1.349  0.00  0.00     0.275 HD
HETATM   11  H           1     -20.445 -13.462  -0.234  0.00  0.00     0.275 HD
HETATM   12  H           1     -19.617 -12.078   0.327  0.00  0.00     0.275 HD
ENDBRANCH   8   9
BRANCH   8  13
HETATM   13  C           1     -22.911 -12.057   0.609  0.00  0.00     0.021 C 
HETATM   14  C           1     -24.102 -11.470  -0.136  0.00  0.00     0.012 C 
BRANCH  13  15
HETATM   15  C           1     -23.072 -13.568   0.713  0.00  0.00     0.002 C 
HETATM   16  C           1     -23.412 -13.946   2.150  0.00  0.00     0.005 C 
ENDBRANCH  13  15
ENDBRANCH   8  13
ENDBRANCH   5   8
BRANCH   2  17
HETATM   17  C           1     -22.336  -7.150  -0.836  0.00  0.00     0.196 C 
HETATM   18  O           1     -22.527  -6.190  -1.614  0.00  0.00    -0.646 OA
HETATM   19  O           1     -23.192  -7.434   0.029  0.00  0.00    -0.646 OA
ENDBRANCH   2  17
TORSDOF 5
ENDMDL
MODEL 3
REMARK VINA RESULT:      -5.9     18.048     19.929
REMARK  5 active torsions:
REMARK  status: ('A' for Active; 'I' for Inactive)
REMARK    1  A    between atoms: C_2  and  C_16 
REMARK       I    between atoms: N_4  and  C_11 
REMARK    2  A    between atoms: C_5  and  C_9 
REMARK    3  A    between atoms: C_11  and  C_15 
REMARK    4  A    between atoms: N_14  and  C_15 
REMARK    5  A    between atoms: C_15  and  C_16 
ROOT
HETATM    1  N           1     -22.048 -11.030   0.211  0.00  0.00    -0.336 N 
HETATM    2  C           1     -21.454 -12.186   0.875  0.00  0.00     0.188 C 
HETATM    3  C           1     -22.626 -13.129   1.079  0.00  0.00     0.038 C 
HETATM    4  C           1     -23.638 -12.741   0.008  0.00  0.00     0.022 C 
HETATM    5  C           1     -21.777  -9.707   0.437  0.00  0.00     0.251 C 
HETATM    6  C           1     -22.994 -11.592  -0.749  0.00  0.00     0.127 C 
HETATM    7  O           1     -20.961  -9.392   1.272  0.00  0.00    -0.271 OA
ENDROOT
BRANCH   5   8
HETATM    8  C           1     -22.497  -8.643  -0.354  0.00  0.00     0.278 C 
BRANCH   8   9
HETATM    9  N           1     -23.473  -7.933   0.537  0.00  0.00    -0.066 N 
HETATM   10  H           1     -23.940  -8.626   1.164  0.00  0.00     0.275 HD
HETATM   11  H           1     -22.966  -7.226   1.115  0.00  0.00     0.275 HD
HETATM   12  H           1     -24.194  -7.454  -0.048  0.00  0.00     0.275 HD
ENDBRANCH   8   9
BRANCH   8  13
HETATM   13  C           1     -21.485  -7.642  -0.897  0.00  0.00     0.021 C 
HETATM   14  C           1     -20.603  -8.322  -1.934  0.00  0.00     0.012 C 
BRANCH  13  15
HETATM   15  C           1     -22.223  -6.477  -1.543  0.00  0.00     0.002 C 
HETATM   16  C           1     -21.564  -6.132  -2.873  0.00  0.00     0.005 C 
ENDBRANCH  13  15
ENDBRANCH   8  13
ENDBRANCH   5   8
BRANCH   2  17
HETATM   17  C           1     -20.398 -12.823   0.005  0.00  0.00     0.196 C 
HETATM   18  O           1     -20.414 -14.057  -0.196  0.00  0.00    -0.646 OA
HETATM   19  O           1     -19.507 -12.116  -0.515  0.00  0.00    -0.646 OA
ENDBRANCH   2  17
TORSDOF 5
ENDMDL
MODEL 4
REMARK VINA RESULT:      -5.6     15.496     17.910
REMARK  5 active torsions:
REMARK  status: ('A' for Active; 'I' for Inactive)
REMARK    1  A    between atoms: C_2  and  C_16 
REMARK       I    between atoms: N_4  and  C_11 
REMARK    2  A    between atoms: C_5  and  C_9 
REMARK    3  A    between atoms: C_11  and  C_15 
REMARK    4  A    between atoms: N_14  and  C_15 
REMARK    5  A    between atoms: C_15  and  C_16 
ROOT
HETATM    1  N           1     -21.073  -7.964  -3.372  0.00  0.00    -0.336 N 
HETATM    2  C           1     -20.913  -8.473  -4.731  0.00  0.00     0.188 C 
HETATM    3  C           1     -21.637  -7.451  -5.589  0.00  0.00     0.038 C 
HETATM    4  C           1     -21.620  -6.164  -4.772  0.00  0.00     0.022 C 
HETATM    5  C           1     -21.335  -8.684  -2.237  0.00  0.00     0.251 C 
HETATM    6  C           1     -20.892  -6.520  -3.487  0.00  0.00     0.127 C 
HETATM    7  O           1     -21.460  -9.884  -2.299  0.00  0.00    -0.271 OA
ENDROOT
BRANCH   5   8
HETATM    8  C           1     -21.468  -7.979  -0.910  0.00  0.00     0.278 C 
BRANCH   8   9
HETATM    9  N           1     -22.552  -6.946  -1.000  0.00  0.00    -0.066 N 
HETATM   10  H           1     -22.493  -6.305  -0.177  0.00  0.00     0.275 HD
HETATM   11  H           1     -22.436  -6.395  -1.880  0.00  0.00     0.275 HD
HETATM   12  H           1     -23.484  -7.419  -1.006  0.00  0.00     0.275 HD
ENDBRANCH   8   9
BRANCH   8  13
HETATM   13  C           1     -21.821  -8.992   0.171  0.00  0.00     0.021 C 
HETATM   14  C           1     -21.117  -8.619   1.468  0.00  0.00     0.012 C 
BRANCH  13  15
HETATM   15  C           1     -23.328  -8.989   0.393  0.00  0.00     0.002 C 
HETATM   16  C           1     -23.898 -10.354   0.026  0.00  0.00     0.005 C 
ENDBRANCH  13  15
ENDBRANCH   8  13
ENDBRANCH   5   8
BRANCH   2  17
HETATM   17  C           1     -19.453  -8.552  -5.107  0.00  0.00     0.196 C 
HETATM   18  O           1     -19.068  -8.110  -6.211  0.00  0.00    -0.646 OA
HETATM   19  O           1     -18.630  -9.059  -4.315  0.00  0.00    -0.646 OA
ENDBRANCH   2  17
TORSDOF 5
ENDMDL
MODEL 5
REMARK VINA RESULT:      -5.6     16.037     17.974
REMARK  5 active torsions:
REMARK  status: ('A' for Active; 'I' for Inactive)
REMARK    1  A    between atoms: C_2  and  C_16 
REMARK       I    between atoms: N_4  and  C_11 
REMARK    2  A    between atoms: C_5  and  C_9 
REMARK    3  A    between atoms: C_11  and  C_15 
REMARK    4  A    between atoms: N_14  and  C_15 
REMARK    5  A    between atoms: C_15  and  C_16 
ROOT
HETATM    1  N           1     -21.319  -8.552  -1.062  0.00  0.00    -0.336 N 
HETATM    2  C           1     -20.713  -9.415  -0.052  0.00  0.00     0.188 C 
HETATM    3  C           1     -21.153  -8.797   1.263  0.00  0.00     0.038 C 
HETATM    4  C           1     -22.432  -8.036   0.936  0.00  0.00     0.022 C 
HETATM    5  C           1     -20.758  -8.118  -2.234  0.00  0.00     0.251 C 
HETATM    6  C           1     -22.653  -8.253  -0.550  0.00  0.00     0.127 C 
HETATM    7  O           1     -19.634  -8.451  -2.525  0.00  0.00    -0.271 OA
ENDROOT
BRANCH   5   8
HETATM    8  C           1     -21.544  -7.223  -3.160  0.00  0.00     0.278 C 
BRANCH   8   9
HETATM    9  N           1     -21.709  -5.872  -2.528  0.00  0.00    -0.066 N 
HETATM   10  H           1     -22.724  -5.625  -2.494  0.00  0.00     0.275 HD
HETATM   11  H           1     -21.322  -5.892  -1.558  0.00  0.00     0.275 HD
HETATM   12  H           1     -21.196  -5.158  -3.093  0.00  0.00     0.275 HD
ENDBRANCH   8   9
BRANCH   8  13
HETATM   13  C           1     -20.798  -7.077  -4.479  0.00  0.00     0.021 C 
HETATM   14  C           1     -21.415  -8.003  -5.518  0.00  0.00     0.012 C 
BRANCH  13  15
HETATM   15  C           1     -20.898  -5.635  -4.961  0.00  0.00     0.002 C 
HETATM   16  C           1     -20.525  -5.564  -6.436  0.00  0.00     0.005 C 
ENDBRANCH  13  15
ENDBRANCH   8  13
ENDBRANCH   5   8
BRANCH   2  17
HETATM   17  C           1     -21.223 -10.829  -0.178  0.00  0.00     0.196 C 
HETATM   18  O           1     -21.557 -11.467   0.845  0.00  0.00    -0.646 OA
HETATM   19  O           1     -21.313 -11.364  -1.305  0.00  0.00    -0.646 OA
ENDBRANCH   2  17
TORSDOF 5
ENDMDL
MODEL 6
REMARK VINA RESULT:      -5.6      2.403      3.272
REMARK  5 active torsions:
REMARK  status: ('A' for Active; 'I' for Inactive)
REMARK    1  A    between atoms: C_2  and  C_16 
REMARK       I    between atoms: N_4  and  C_11 
REMARK    2  A    between atoms: C_5  and  C_9 
REMARK    3  A    between atoms: C_11  and  C_15 
REMARK    4  A    between atoms: N_14  and  C_15 
REMARK    5  A    between atoms: C_15  and  C_16 
ROOT
HETATM    1  N           1     -28.537  -6.038 -16.793  0.00  0.00    -0.336 N 
HETATM    2  C           1     -29.943  -6.328 -16.525  0.00  0.00     0.188 C 
HETATM    3  C           1     -30.611  -4.965 -16.582  0.00  0.00     0.038 C 
HETATM    4  C           1     -29.700  -4.113 -17.457  0.00  0.00     0.022 C 
HETATM    5  C           1     -27.442  -6.591 -16.186  0.00  0.00     0.251 C 
HETATM    6  C           1     -28.555  -5.030 -17.849  0.00  0.00     0.127 C 
HETATM    7  O           1     -27.586  -7.420 -15.319  0.00  0.00    -0.271 OA
ENDROOT
BRANCH   5   8
HETATM    8  C           1     -26.055  -6.163 -16.598  0.00  0.00     0.278 C 
BRANCH   8   9
HETATM    9  N           1     -25.137  -6.236 -15.413  0.00  0.00    -0.066 N 
HETATM   10  H           1     -24.950  -7.237 -15.179  0.00  0.00     0.275 HD
HETATM   11  H           1     -24.237  -5.757 -15.640  0.00  0.00     0.275 HD
HETATM   12  H           1     -25.587  -5.766 -14.595  0.00  0.00     0.275 HD
ENDBRANCH   8   9
BRANCH   8  13
HETATM   13  C           1     -25.543  -7.089 -17.694  0.00  0.00     0.021 C 
HETATM   14  C           1     -25.762  -6.439 -19.053  0.00  0.00     0.012 C 
BRANCH  13  15
HETATM   15  C           1     -24.055  -7.343 -17.487  0.00  0.00     0.002 C 
HETATM   16  C           1     -23.318  -7.153 -18.806  0.00  0.00     0.005 C 
ENDBRANCH  13  15
ENDBRANCH   8  13
ENDBRANCH   5   8
BRANCH   2  17
HETATM   17  C           1     -30.512  -7.248 -17.577  0.00  0.00     0.196 C 
HETATM   18  O           1     -29.794  -8.139 -18.082  0.00  0.00    -0.646 OA
HETATM   19  O           1     -31.701  -7.121 -17.943  0.00  0.00    -0.646 OA
ENDBRANCH   2  17
TORSDOF 5
ENDMDL
MODEL 7
REMARK VINA RESULT:      -5.5      2.209      5.368
REMARK  5 active torsions:
REMARK  status: ('A' for Active; 'I' for Inactive)
REMARK    1  A    between atoms: C_2  and  C_16 
REMARK       I    between atoms: N_4  and  C_11 
REMARK    2  A    between atoms: C_5  and  C_9 
REMARK    3  A    between atoms: C_11  and  C_15 
REMARK    4  A    between atoms: N_14  and  C_15 
REMARK    5  A    between atoms: C_15  and  C_16 
ROOT
HETATM    1  N           1     -26.769  -6.347 -19.216  0.00  0.00    -0.336 N 
HETATM    2  C           1     -26.634  -6.648 -20.638  0.00  0.00     0.188 C 
HETATM    3  C           1     -25.147  -6.485 -20.903  0.00  0.00     0.038 C 
HETATM    4  C           1     -24.477  -6.710 -19.553  0.00  0.00     0.022 C 
HETATM    5  C           1     -27.761  -5.627 -18.607  0.00  0.00     0.251 C 
HETATM    6  C           1     -25.616  -6.982 -18.586  0.00  0.00     0.127 C 
HETATM    7  O           1     -28.658  -5.157 -19.265  0.00  0.00    -0.271 OA
ENDROOT
BRANCH   5   8
HETATM    8  C           1     -27.733  -5.419 -17.112  0.00  0.00     0.278 C 
BRANCH   8   9
HETATM    9  N           1     -28.121  -4.003 -16.798  0.00  0.00    -0.066 N 
HETATM   10  H           1     -27.455  -3.607 -16.097  0.00  0.00     0.275 HD
HETATM   11  H           1     -28.089  -3.432 -17.672  0.00  0.00     0.275 HD
HETATM   12  H           1     -29.089  -3.987 -16.405  0.00  0.00     0.275 HD
ENDBRANCH   8   9
BRANCH   8  13
HETATM   13  C           1     -28.717  -6.373 -16.448  0.00  0.00     0.021 C 
HETATM   14  C           1     -27.995  -7.189 -15.385  0.00  0.00     0.012 C 
BRANCH  13  15
HETATM   15  C           1     -29.839  -5.572 -15.799  0.00  0.00     0.002 C 
HETATM   16  C           1     -31.053  -5.559 -16.719  0.00  0.00     0.005 C 
ENDBRANCH  13  15
ENDBRANCH   8  13
ENDBRANCH   5   8
BRANCH   2  17
HETATM   17  C           1     -27.081  -8.058 -20.935  0.00  0.00     0.196 C 
HETATM   18  O           1     -28.168  -8.477 -20.481  0.00  0.00    -0.646 OA
HETATM   19  O           1     -26.365  -8.807 -21.634  0.00  0.00    -0.646 OA
ENDBRANCH   2  17
TORSDOF 5
ENDMDL
MODEL 8
REMARK VINA RESULT:      -5.5     15.251     17.602
REMARK  5 active torsions:
REMARK  status: ('A' for Active; 'I' for Inactive)
REMARK    1  A    between atoms: C_2  and  C_16 
REMARK       I    between atoms: N_4  and  C_11 
REMARK    2  A    between atoms: C_5  and  C_9 
REMARK    3  A    between atoms: C_11  and  C_15 
REMARK    4  A    between atoms: N_14  and  C_15 
REMARK    5  A    between atoms: C_15  and  C_16 
ROOT
HETATM    1  N           1     -21.516  -8.694  -3.465  0.00  0.00    -0.336 N 
HETATM    2  C           1     -21.621  -8.054  -4.774  0.00  0.00     0.188 C 
HETATM    3  C           1     -22.086  -6.645  -4.453  0.00  0.00     0.038 C 
HETATM    4  C           1     -21.631  -6.394  -3.020  0.00  0.00     0.022 C 
HETATM    5  C           1     -21.882  -9.969  -3.129  0.00  0.00     0.251 C 
HETATM    6  C           1     -20.936  -7.675  -2.595  0.00  0.00     0.127 C 
HETATM    7  O           1     -22.354 -10.703  -3.965  0.00  0.00    -0.271 OA
ENDROOT
BRANCH   5   8
HETATM    8  C           1     -21.698 -10.458  -1.713  0.00  0.00     0.278 C 
BRANCH   8   9
HETATM    9  N           1     -20.333 -10.068  -1.224  0.00  0.00    -0.066 N 
HETATM   10  H           1     -20.215 -10.384  -0.235  0.00  0.00     0.275 HD
HETATM   11  H           1     -19.607 -10.519  -1.824  0.00  0.00     0.275 HD
HETATM   12  H           1     -20.231  -9.029  -1.272  0.00  0.00     0.275 HD
ENDBRANCH   8   9
BRANCH   8  13
HETATM   13  C           1     -22.756  -9.830  -0.816  0.00  0.00     0.021 C 
HETATM   14  C           1     -23.743 -10.899  -0.367  0.00  0.00     0.012 C 
BRANCH  13  15
HETATM   15  C           1     -22.084  -9.213   0.404  0.00  0.00     0.002 C 
HETATM   16  C           1     -22.743  -7.877   0.726  0.00  0.00     0.005 C 
ENDBRANCH  13  15
ENDBRANCH   8  13
ENDBRANCH   5   8
BRANCH   2  17
HETATM   17  C           1     -20.282  -8.032  -5.470  0.00  0.00     0.196 C 
HETATM   18  O           1     -19.909  -7.004  -6.076  0.00  0.00    -0.646 OA
HETATM   19  O           1     -19.545  -9.042  -5.440  0.00  0.00    -0.646 OA
ENDBRANCH   2  17
TORSDOF 5
ENDMDL
MODEL 9
REMARK VINA RESULT:      -5.4     15.926     18.297
REMARK  5 active torsions:
REMARK  status: ('A' for Active; 'I' for Inactive)
REMARK    1  A    between atoms: C_2  and  C_16 
REMARK       I    between atoms: N_4  and  C_11 
REMARK    2  A    between atoms: C_5  and  C_9 
REMARK    3  A    between atoms: C_11  and  C_15 
REMARK    4  A    between atoms: N_14  and  C_15 
REMARK    5  A    between atoms: C_15  and  C_16 
ROOT
HETATM    1  N           1     -21.542  -8.586  -2.726  0.00  0.00    -0.336 N 
HETATM    2  C           1     -21.484  -8.220  -4.138  0.00  0.00     0.188 C 
HETATM    3  C           1     -21.876  -6.752  -4.149  0.00  0.00     0.038 C 
HETATM    4  C           1     -21.533  -6.241  -2.754  0.00  0.00     0.022 C 
HETATM    5  C           1     -22.026  -9.746  -2.184  0.00  0.00     0.251 C 
HETATM    6  C           1     -20.970  -7.444  -2.018  0.00  0.00     0.127 C 
HETATM    7  O           1     -22.472 -10.609  -2.904  0.00  0.00    -0.271 OA
ENDROOT
BRANCH   5   8
HETATM    8  C           1     -22.002  -9.948  -0.689  0.00  0.00     0.278 C 
BRANCH   8   9
HETATM    9  N           1     -23.203  -9.288  -0.078  0.00  0.00    -0.066 N 
HETATM   10  H           1     -23.624  -9.924   0.637  0.00  0.00     0.275 HD
HETATM   11  H           1     -22.914  -8.394   0.378  0.00  0.00     0.275 HD
HETATM   12  H           1     -23.908  -9.089  -0.824  0.00  0.00     0.275 HD
ENDBRANCH   8   9
BRANCH   8  13
HETATM   13  C           1     -22.029 -11.439  -0.377  0.00  0.00     0.021 C 
HETATM   14  C           1     -20.946 -11.766   0.641  0.00  0.00     0.012 C 
BRANCH  13  15
HETATM   15  C           1     -23.391 -11.811   0.193  0.00  0.00     0.002 C 
HETATM   16  C           1     -23.251 -13.038   1.086  0.00  0.00     0.005 C 
ENDBRANCH  13  15
ENDBRANCH   8  13
ENDBRANCH   5   8
BRANCH   2  17
HETATM   17  C           1     -20.091  -8.408  -4.686  0.00  0.00     0.196 C 
HETATM   18  O           1     -19.288  -9.170  -4.105  0.00  0.00    -0.646 OA
HETATM   19  O           1     -19.739  -7.801  -5.721  0.00  0.00    -0.646 OA
ENDBRANCH   2  17
TORSDOF 5
ENDMDL
