MODEL 1
REMARK VINA RESULT:      -6.9      0.000      0.000
REMARK  8 active torsions:
REMARK  status: ('A' for Active; 'I' for Inactive)
REMARK    1  A    between atoms: C_2  and  C_10 
REMARK    2  A    between atoms: N_8  and  C_10 
REMARK       I    between atoms: N_8  and  C_14 
REMARK    3  A    between atoms: C_10  and  C_13 
REMARK    4  A    between atoms: C_11  and  C_13 
REMARK    5  A    between atoms: C_14  and  C_15 
REMARK    6  A    between atoms: C_15  and  C_23 
REMARK    7  A    between atoms: C_15  and  N_27 
REMARK    8  A    between atoms: C_23  and  O_24 
ROOT
HETATM    1  C           1     -28.147  -6.729 -16.956  0.00  0.00     0.190 C 
ENDROOT
BRANCH   1   2
HETATM    2  C           1     -28.447  -6.847 -15.482  0.00  0.00     0.197 C 
HETATM    3  O           1     -29.226  -6.037 -14.936  0.00  0.00    -0.646 OA
HETATM    4  O           1     -27.915  -7.755 -14.807  0.00  0.00    -0.646 OA
ENDBRANCH   1   2
BRANCH   1   5
HETATM    5  N           1     -29.341  -6.306 -17.660  0.00  0.00    -0.344 N 
HETATM    6  H           1     -30.078  -6.971 -17.853  0.00  0.00     0.163 HD
HETATM    7  C           1     -29.472  -5.003 -18.064  0.00  0.00     0.251 C 
HETATM    8  O           1     -29.077  -4.667 -19.154  0.00  0.00    -0.271 OA
BRANCH   7   9
HETATM    9  C           1     -30.112  -3.990 -17.146  0.00  0.00     0.297 C 
BRANCH   9  10
HETATM   10  C           1     -31.606  -4.265 -17.049  0.00  0.00     0.206 C 
BRANCH  10  11
HETATM   11  O           1     -31.813  -5.548 -16.523  0.00  0.00    -0.398 OA
HETATM   12  H           1     -31.070  -6.070 -16.776  0.00  0.00     0.209 HD
ENDBRANCH  10  11
ENDBRANCH   9  10
BRANCH   9  13
HETATM   13  N           1     -29.893  -2.611 -17.697  0.00  0.00    -0.064 N 
HETATM   14  H           1     -29.037  -2.195 -17.264  0.00  0.00     0.275 HD
HETATM   15  H           1     -29.768  -2.665 -18.733  0.00  0.00     0.275 HD
HETATM   16  H           1     -30.721  -2.012 -17.476  0.00  0.00     0.275 HD
ENDBRANCH   9  13
ENDBRANCH   7   9
ENDBRANCH   1   5
BRANCH   1  17
HETATM   17  C           1     -27.042  -5.702 -17.170  0.00  0.00     0.077 C 
BRANCH  17  18
HETATM   18  C           1     -25.812  -6.389 -17.677  0.00  0.00    -0.028 A 
HETATM   19  C           1     -24.724  -6.767 -16.924  0.00  0.00     0.096 A 
HETATM   20  N           1     -23.820  -7.362 -17.763  0.00  0.00    -0.365 N 
HETATM   21  H           1     -22.891  -7.750 -17.467  0.00  0.00     0.165 HD
HETATM   22  C           1     -24.304  -7.376 -19.052  0.00  0.00     0.042 A 
HETATM   23  C           1     -23.733  -7.876 -20.228  0.00  0.00     0.030 A 
HETATM   24  C           1     -25.560  -6.768 -19.024  0.00  0.00    -0.002 A 
HETATM   25  C           1     -24.470  -7.748 -21.410  0.00  0.00     0.002 A 
HETATM   26  C           1     -25.726  -7.146 -21.412  0.00  0.00     0.001 A 
HETATM   27  C           1     -26.283  -6.652 -20.228  0.00  0.00     0.014 A 
ENDBRANCH  17  18
ENDBRANCH   1  17
TORSDOF 8
ENDMDL
MODEL 2
REMARK VINA RESULT:      -6.8      9.524     11.651
REMARK  8 active torsions:
REMARK  status: ('A' for Active; 'I' for Inactive)
REMARK    1  A    between atoms: C_2  and  C_10 
REMARK    2  A    between atoms: N_8  and  C_10 
REMARK       I    between atoms: N_8  and  C_14 
REMARK    3  A    between atoms: C_10  and  C_13 
REMARK    4  A    between atoms: C_11  and  C_13 
REMARK    5  A    between atoms: C_14  and  C_15 
REMARK    6  A    between atoms: C_15  and  C_23 
REMARK    7  A    between atoms: C_15  and  N_27 
REMARK    8  A    between atoms: C_23  and  O_24 
ROOT
HETATM    1  C           1     -36.966  -0.481 -11.350  0.00  0.00     0.190 C 
ENDROOT
BRANCH   1   2
HETATM    2  C           1     -37.096   0.414 -10.143  0.00  0.00     0.197 C 
HETATM    3  O           1     -38.075   1.183 -10.037  0.00  0.00    -0.646 OA
HETATM    4  O           1     -36.222   0.388  -9.248  0.00  0.00    -0.646 OA
ENDBRANCH   1   2
BRANCH   1   5
HETATM    5  N           1     -37.267   0.277 -12.548  0.00  0.00    -0.344 N 
HETATM    6  H           1     -37.705   1.186 -12.476  0.00  0.00     0.163 HD
HETATM    7  C           1     -36.959  -0.238 -13.780  0.00  0.00     0.251 C 
HETATM    8  O           1     -37.766  -0.914 -14.370  0.00  0.00    -0.271 OA
BRANCH   7   9
HETATM    9  C           1     -35.612   0.042 -14.399  0.00  0.00     0.297 C 
BRANCH   9  10
HETATM   10  C           1     -35.741   1.178 -15.405  0.00  0.00     0.206 C 
BRANCH  10  11
HETATM   11  O           1     -37.087   1.335 -15.762  0.00  0.00    -0.398 OA
HETATM   12  H           1     -37.163   2.176 -16.182  0.00  0.00     0.209 HD
ENDBRANCH  10  11
ENDBRANCH   9  10
BRANCH   9  13
HETATM   13  N           1     -35.119  -1.191 -15.099  0.00  0.00    -0.064 N 
HETATM   14  H           1     -35.847  -1.939 -15.038  0.00  0.00     0.275 HD
HETATM   15  H           1     -34.928  -0.969 -16.102  0.00  0.00     0.275 HD
HETATM   16  H           1     -34.239  -1.523 -14.642  0.00  0.00     0.275 HD
ENDBRANCH   9  13
ENDBRANCH   7   9
ENDBRANCH   1   5
BRANCH   1  17
HETATM   17  C           1     -35.543  -1.018 -11.434  0.00  0.00     0.077 C 
BRANCH  17  18
HETATM   18  C           1     -35.539  -2.478 -11.098  0.00  0.00    -0.028 A 
HETATM   19  C           1     -36.576  -3.182 -10.529  0.00  0.00     0.096 A 
HETATM   20  N           1     -36.170  -4.482 -10.388  0.00  0.00    -0.365 N 
HETATM   21  H           1     -36.754  -5.253  -9.980  0.00  0.00     0.165 HD
HETATM   22  C           1     -34.883  -4.634 -10.856  0.00  0.00     0.042 A 
HETATM   23  C           1     -34.069  -5.771 -10.912  0.00  0.00     0.030 A 
HETATM   24  C           1     -34.463  -3.383 -11.310  0.00  0.00    -0.002 A 
HETATM   25  C           1     -32.786  -5.621 -11.449  0.00  0.00     0.002 A 
HETATM   26  C           1     -32.340  -4.385 -11.910  0.00  0.00     0.001 A 
HETATM   27  C           1     -33.167  -3.258 -11.847  0.00  0.00     0.014 A 
ENDBRANCH  17  18
ENDBRANCH   1  17
TORSDOF 8
ENDMDL
MODEL 3
REMARK VINA RESULT:      -6.7     13.438     15.681
REMARK  8 active torsions:
REMARK  status: ('A' for Active; 'I' for Inactive)
REMARK    1  A    between atoms: C_2  and  C_10 
REMARK    2  A    between atoms: N_8  and  C_10 
REMARK       I    between atoms: N_8  and  C_14 
REMARK    3  A    between atoms: C_10  and  C_13 
REMARK    4  A    between atoms: C_11  and  C_13 
REMARK    5  A    between atoms: C_14  and  C_15 
REMARK    6  A    between atoms: C_15  and  C_23 
REMARK    7  A    between atoms: C_15  and  N_27 
REMARK    8  A    between atoms: C_23  and  O_24 
ROOT
HETATM    1  C           1     -21.310  -8.896  -3.900  0.00  0.00     0.190 C 
ENDROOT
BRANCH   1   2
HETATM    2  C           1     -21.165 -10.062  -4.847  0.00  0.00     0.197 C 
HETATM    3  O           1     -20.336 -10.009  -5.780  0.00  0.00    -0.646 OA
HETATM    4  O           1     -21.876 -11.081  -4.699  0.00  0.00    -0.646 OA
ENDBRANCH   1   2
BRANCH   1   5
HETATM    5  N           1     -20.923  -9.308  -2.565  0.00  0.00    -0.344 N 
HETATM    6  H           1     -20.039  -9.777  -2.416  0.00  0.00     0.163 HD
HETATM    7  C           1     -21.755  -9.063  -1.505  0.00  0.00     0.251 C 
HETATM    8  O           1     -22.585  -9.880  -1.188  0.00  0.00    -0.271 OA
BRANCH   7   9
HETATM    9  C           1     -21.632  -7.773  -0.732  0.00  0.00     0.297 C 
BRANCH   9  10
HETATM   10  C           1     -22.135  -7.983   0.690  0.00  0.00     0.206 C 
BRANCH  10  11
HETATM   11  O           1     -23.536  -7.944   0.702  0.00  0.00    -0.398 OA
HETATM   12  H           1     -23.804  -7.522  -0.097  0.00  0.00     0.209 HD
ENDBRANCH  10  11
ENDBRANCH   9  10
BRANCH   9  13
HETATM   13  N           1     -22.455  -6.711  -1.400  0.00  0.00    -0.064 N 
HETATM   14  H           1     -22.997  -7.135  -2.187  0.00  0.00     0.275 HD
HETATM   15  H           1     -23.115  -6.294  -0.706  0.00  0.00     0.275 HD
HETATM   16  H           1     -21.824  -5.965  -1.774  0.00  0.00     0.275 HD
ENDBRANCH   9  13
ENDBRANCH   7   9
ENDBRANCH   1   5
BRANCH   1  17
HETATM   17  C           1     -20.413  -7.754  -4.359  0.00  0.00     0.077 C 
BRANCH  17  18
HETATM   18  C           1     -21.229  -6.746  -5.107  0.00  0.00    -0.028 A 
HETATM   19  C           1     -22.582  -6.533  -4.966  0.00  0.00     0.096 A 
HETATM   20  N           1     -22.938  -5.529  -5.827  0.00  0.00    -0.365 N 
HETATM   21  H           1     -23.912  -5.151  -5.939  0.00  0.00     0.165 HD
HETATM   22  C           1     -21.838  -5.086  -6.525  0.00  0.00     0.042 A 
HETATM   23  C           1     -21.725  -4.088  -7.500  0.00  0.00     0.030 A 
HETATM   24  C           1     -20.746  -5.839  -6.089  0.00  0.00    -0.002 A 
HETATM   25  C           1     -20.458  -3.854  -8.043  0.00  0.00     0.002 A 
HETATM   26  C           1     -19.350  -4.590  -7.626  0.00  0.00     0.001 A 
HETATM   27  C           1     -19.480  -5.584  -6.651  0.00  0.00     0.014 A 
ENDBRANCH  17  18
ENDBRANCH   1  17
TORSDOF 8
ENDMDL
MODEL 4
REMARK VINA RESULT:      -6.5     14.996     17.570
REMARK  8 active torsions:
REMARK  status: ('A' for Active; 'I' for Inactive)
REMARK    1  A    between atoms: C_2  and  C_10 
REMARK    2  A    between atoms: N_8  and  C_10 
REMARK       I    between atoms: N_8  and  C_14 
REMARK    3  A    between atoms: C_10  and  C_13 
REMARK    4  A    between atoms: C_11  and  C_13 
REMARK    5  A    between atoms: C_14  and  C_15 
REMARK    6  A    between atoms: C_15  and  C_23 
REMARK    7  A    between atoms: C_15  and  N_27 
REMARK    8  A    between atoms: C_23  and  O_24 
ROOT
HETATM    1  C           1     -21.215  -7.824  -2.998  0.00  0.00     0.190 C 
ENDROOT
BRANCH   1   2
HETATM    2  C           1     -21.717  -6.401  -2.995  0.00  0.00     0.197 C 
HETATM    3  O           1     -22.476  -6.008  -2.084  0.00  0.00    -0.646 OA
HETATM    4  O           1     -21.373  -5.615  -3.905  0.00  0.00    -0.646 OA
ENDBRANCH   1   2
BRANCH   1   5
HETATM    5  N           1     -20.298  -8.010  -4.106  0.00  0.00    -0.344 N 
HETATM    6  H           1     -19.386  -7.575  -4.087  0.00  0.00     0.163 HD
HETATM    7  C           1     -20.670  -8.775  -5.180  0.00  0.00     0.251 C 
HETATM    8  O           1     -21.226  -8.264  -6.121  0.00  0.00    -0.271 OA
BRANCH   7   9
HETATM    9  C           1     -20.380 -10.256  -5.186  0.00  0.00     0.297 C 
BRANCH   9  10
HETATM   10  C           1     -18.887 -10.481  -5.388  0.00  0.00     0.206 C 
BRANCH  10  11
HETATM   11  O           1     -18.350  -9.421  -6.131  0.00  0.00    -0.398 OA
HETATM   12  H           1     -19.049  -8.805  -6.274  0.00  0.00     0.209 HD
ENDBRANCH  10  11
ENDBRANCH   9  10
BRANCH   9  13
HETATM   13  N           1     -21.138 -10.907  -6.306  0.00  0.00    -0.064 N 
HETATM   14  H           1     -22.164 -10.823  -6.126  0.00  0.00     0.275 HD
HETATM   15  H           1     -20.902 -10.436  -7.208  0.00  0.00     0.275 HD
HETATM   16  H           1     -20.877 -11.918  -6.362  0.00  0.00     0.275 HD
ENDBRANCH   9  13
ENDBRANCH   7   9
ENDBRANCH   1   5
BRANCH   1  17
HETATM   17  C           1     -20.492  -8.111  -1.688  0.00  0.00     0.077 C 
BRANCH  17  18
HETATM   18  C           1     -20.621  -9.566  -1.355  0.00  0.00    -0.028 A 
HETATM   19  C           1     -19.641 -10.521  -1.502  0.00  0.00     0.096 A 
HETATM   20  N           1     -20.160 -11.718  -1.085  0.00  0.00    -0.365 N 
HETATM   21  H           1     -19.640 -12.631  -1.083  0.00  0.00     0.165 HD
HETATM   22  C           1     -21.462 -11.555  -0.669  0.00  0.00     0.042 A 
HETATM   23  C           1     -22.376 -12.490  -0.168  0.00  0.00     0.030 A 
HETATM   24  C           1     -21.777 -10.205  -0.829  0.00  0.00    -0.002 A 
HETATM   25  C           1     -23.650 -12.026   0.179  0.00  0.00     0.002 A 
HETATM   26  C           1     -23.991 -10.684   0.030  0.00  0.00     0.001 A 
HETATM   27  C           1     -23.066  -9.763  -0.473  0.00  0.00     0.014 A 
ENDBRANCH  17  18
ENDBRANCH   1  17
TORSDOF 8
ENDMDL
MODEL 5
REMARK VINA RESULT:      -6.5      2.563      6.123
REMARK  8 active torsions:
REMARK  status: ('A' for Active; 'I' for Inactive)
REMARK    1  A    between atoms: C_2  and  C_10 
REMARK    2  A    between atoms: N_8  and  C_10 
REMARK       I    between atoms: N_8  and  C_14 
REMARK    3  A    between atoms: C_10  and  C_13 
REMARK    4  A    between atoms: C_11  and  C_13 
REMARK    5  A    between atoms: C_14  and  C_15 
REMARK    6  A    between atoms: C_15  and  C_23 
REMARK    7  A    between atoms: C_15  and  N_27 
REMARK    8  A    between atoms: C_23  and  O_24 
ROOT
HETATM    1  C           1     -25.935  -6.444 -17.234  0.00  0.00     0.190 C 
ENDROOT
BRANCH   1   2
HETATM    2  C           1     -26.084  -6.699 -15.754  0.00  0.00     0.197 C 
HETATM    3  O           1     -25.340  -6.110 -14.941  0.00  0.00    -0.646 OA
HETATM    4  O           1     -26.952  -7.500 -15.342  0.00  0.00    -0.646 OA
ENDBRANCH   1   2
BRANCH   1   5
HETATM    5  N           1     -24.927  -7.332 -17.778  0.00  0.00    -0.344 N 
HETATM    6  H           1     -24.692  -8.188 -17.294  0.00  0.00     0.163 HD
HETATM    7  C           1     -24.292  -7.012 -18.948  0.00  0.00     0.251 C 
HETATM    8  O           1     -23.274  -6.364 -18.924  0.00  0.00    -0.271 OA
BRANCH   7   9
HETATM    9  C           1     -24.864  -7.471 -20.267  0.00  0.00     0.297 C 
BRANCH   9  10
HETATM   10  C           1     -23.785  -8.189 -21.067  0.00  0.00     0.206 C 
BRANCH  10  11
HETATM   11  O           1     -24.299  -8.564 -22.316  0.00  0.00    -0.398 OA
HETATM   12  H           1     -23.845  -9.348 -22.574  0.00  0.00     0.209 HD
ENDBRANCH  10  11
ENDBRANCH   9  10
BRANCH   9  13
HETATM   13  N           1     -25.349  -6.281 -21.041  0.00  0.00    -0.064 N 
HETATM   14  H           1     -26.221  -6.534 -21.559  0.00  0.00     0.275 HD
HETATM   15  H           1     -25.550  -5.495 -20.383  0.00  0.00     0.275 HD
HETATM   16  H           1     -24.614  -5.985 -21.723  0.00  0.00     0.275 HD
ENDBRANCH   9  13
ENDBRANCH   7   9
ENDBRANCH   1   5
BRANCH   1  17
HETATM   17  C           1     -27.266  -6.700 -17.931  0.00  0.00     0.077 C 
BRANCH  17  18
HETATM   18  C           1     -28.229  -5.607 -17.585  0.00  0.00    -0.028 A 
HETATM   19  C           1     -27.909  -4.290 -17.342  0.00  0.00     0.096 A 
HETATM   20  N           1     -29.071  -3.622 -17.064  0.00  0.00    -0.365 N 
HETATM   21  H           1     -29.137  -2.598 -16.838  0.00  0.00     0.165 HD
HETATM   22  C           1     -30.143  -4.484 -17.122  0.00  0.00     0.042 A 
HETATM   23  C           1     -31.507  -4.248 -16.913  0.00  0.00     0.030 A 
HETATM   24  C           1     -29.638  -5.743 -17.450  0.00  0.00    -0.002 A 
HETATM   25  C           1     -32.378  -5.335 -17.043  0.00  0.00     0.002 A 
HETATM   26  C           1     -31.902  -6.603 -17.369  0.00  0.00     0.001 A 
HETATM   27  C           1     -30.535  -6.821 -17.575  0.00  0.00     0.014 A 
ENDBRANCH  17  18
ENDBRANCH   1  17
TORSDOF 8
ENDMDL
MODEL 6
REMARK VINA RESULT:      -6.5     14.017     16.348
REMARK  8 active torsions:
REMARK  status: ('A' for Active; 'I' for Inactive)
REMARK    1  A    between atoms: C_2  and  C_10 
REMARK    2  A    between atoms: N_8  and  C_10 
REMARK       I    between atoms: N_8  and  C_14 
REMARK    3  A    between atoms: C_10  and  C_13 
REMARK    4  A    between atoms: C_11  and  C_13 
REMARK    5  A    between atoms: C_14  and  C_15 
REMARK    6  A    between atoms: C_15  and  C_23 
REMARK    7  A    between atoms: C_15  and  N_27 
REMARK    8  A    between atoms: C_23  and  O_24 
ROOT
HETATM    1  C           1     -20.389  -7.594  -4.934  0.00  0.00     0.190 C 
ENDROOT
BRANCH   1   2
HETATM    2  C           1     -19.264  -8.596  -5.016  0.00  0.00     0.197 C 
HETATM    3  O           1     -18.733  -9.025  -3.969  0.00  0.00    -0.646 OA
HETATM    4  O           1     -18.862  -8.996  -6.130  0.00  0.00    -0.646 OA
ENDBRANCH   1   2
BRANCH   1   5
HETATM    5  N           1     -20.733  -7.144  -6.268  0.00  0.00    -0.344 N 
HETATM    6  H           1     -21.271  -7.742  -6.882  0.00  0.00     0.163 HD
HETATM    7  C           1     -20.326  -5.909  -6.700  0.00  0.00     0.251 C 
HETATM    8  O           1     -19.264  -5.784  -7.259  0.00  0.00    -0.271 OA
BRANCH   7   9
HETATM    9  C           1     -21.209  -4.705  -6.478  0.00  0.00     0.297 C 
BRANCH   9  10
HETATM   10  C           1     -22.659  -5.082  -6.750  0.00  0.00     0.206 C 
BRANCH  10  11
HETATM   11  O           1     -23.263  -4.086  -7.529  0.00  0.00    -0.398 OA
HETATM   12  H           1     -24.076  -3.862  -7.107  0.00  0.00     0.209 HD
ENDBRANCH  10  11
ENDBRANCH   9  10
BRANCH   9  13
HETATM   13  N           1     -20.796  -3.606  -7.412  0.00  0.00    -0.064 N 
HETATM   14  H           1     -21.300  -3.714  -8.321  0.00  0.00     0.275 HD
HETATM   15  H           1     -21.034  -2.681  -6.989  0.00  0.00     0.275 HD
HETATM   16  H           1     -19.764  -3.658  -7.578  0.00  0.00     0.275 HD
ENDBRANCH   9  13
ENDBRANCH   7   9
ENDBRANCH   1   5
BRANCH   1  17
HETATM   17  C           1     -21.606  -8.247  -4.291  0.00  0.00     0.077 C 
BRANCH  17  18
HETATM   18  C           1     -21.766  -7.737  -2.892  0.00  0.00    -0.028 A 
HETATM   19  C           1     -22.166  -6.470  -2.531  0.00  0.00     0.096 A 
HETATM   20  N           1     -22.184  -6.411  -1.163  0.00  0.00    -0.365 N 
HETATM   21  H           1     -22.451  -5.565  -0.602  0.00  0.00     0.165 HD
HETATM   22  C           1     -21.801  -7.621  -0.628  0.00  0.00     0.042 A 
HETATM   23  C           1     -21.674  -8.020   0.707  0.00  0.00     0.030 A 
HETATM   24  C           1     -21.532  -8.474  -1.699  0.00  0.00    -0.002 A 
HETATM   25  C           1     -21.258  -9.333   0.952  0.00  0.00     0.002 A 
HETATM   26  C           1     -20.983 -10.208  -0.097  0.00  0.00     0.001 A 
HETATM   27  C           1     -21.115  -9.792  -1.426  0.00  0.00     0.014 A 
ENDBRANCH  17  18
ENDBRANCH   1  17
TORSDOF 8
ENDMDL
MODEL 7
REMARK VINA RESULT:      -6.4     11.361     13.797
REMARK  8 active torsions:
REMARK  status: ('A' for Active; 'I' for Inactive)
REMARK    1  A    between atoms: C_2  and  C_10 
REMARK    2  A    between atoms: N_8  and  C_10 
REMARK       I    between atoms: N_8  and  C_14 
REMARK    3  A    between atoms: C_10  and  C_13 
REMARK    4  A    between atoms: C_11  and  C_13 
REMARK    5  A    between atoms: C_14  and  C_15 
REMARK    6  A    between atoms: C_15  and  C_23 
REMARK    7  A    between atoms: C_15  and  N_27 
REMARK    8  A    between atoms: C_23  and  O_24 
ROOT
HETATM    1  C           1     -21.033  -6.290  -5.363  0.00  0.00     0.190 C 
ENDROOT
BRANCH   1   2
HETATM    2  C           1     -21.616  -6.308  -3.972  0.00  0.00     0.197 C 
HETATM    3  O           1     -22.850  -6.201  -3.811  0.00  0.00    -0.646 OA
HETATM    4  O           1     -20.864  -6.428  -2.980  0.00  0.00    -0.646 OA
ENDBRANCH   1   2
BRANCH   1   5
HETATM    5  N           1     -21.017  -7.638  -5.897  0.00  0.00    -0.344 N 
HETATM    6  H           1     -21.213  -7.797  -6.876  0.00  0.00     0.163 HD
HETATM    7  C           1     -20.739  -8.697  -5.074  0.00  0.00     0.251 C 
HETATM    8  O           1     -21.634  -9.261  -4.493  0.00  0.00    -0.271 OA
BRANCH   7   9
HETATM    9  C           1     -19.313  -9.158  -4.895  0.00  0.00     0.297 C 
BRANCH   9  10
HETATM   10  C           1     -19.175 -10.587  -5.404  0.00  0.00     0.206 C 
BRANCH  10  11
HETATM   11  O           1     -20.157 -10.837  -6.372  0.00  0.00    -0.398 OA
HETATM   12  H           1     -19.783 -10.611  -7.207  0.00  0.00     0.209 HD
ENDBRANCH  10  11
ENDBRANCH   9  10
BRANCH   9  13
HETATM   13  N           1     -18.953  -9.110  -3.439  0.00  0.00    -0.064 N 
HETATM   14  H           1     -18.163  -8.440  -3.298  0.00  0.00     0.275 HD
HETATM   15  H           1     -19.781  -8.795  -2.885  0.00  0.00     0.275 HD
HETATM   16  H           1     -18.662 -10.063  -3.120  0.00  0.00     0.275 HD
ENDBRANCH   9  13
ENDBRANCH   7   9
ENDBRANCH   1   5
BRANCH   1  17
HETATM   17  C           1     -21.884  -5.400  -6.260  0.00  0.00     0.077 C 
BRANCH  17  18
HETATM   18  C           1     -21.045  -4.878  -7.386  0.00  0.00    -0.028 A 
HETATM   19  C           1     -19.711  -4.548  -7.318  0.00  0.00     0.096 A 
HETATM   20  N           1     -19.324  -4.114  -8.558  0.00  0.00    -0.365 N 
HETATM   21  H           1     -18.356  -3.794  -8.808  0.00  0.00     0.165 HD
HETATM   22  C           1     -20.388  -4.156  -9.432  0.00  0.00     0.042 A 
HETATM   23  C           1     -20.462  -3.810 -10.786  0.00  0.00     0.030 A 
HETATM   24  C           1     -21.486  -4.635  -8.716  0.00  0.00    -0.002 A 
HETATM   25  C           1     -21.697  -3.960 -11.425  0.00  0.00     0.002 A 
HETATM   26  C           1     -22.810  -4.436 -10.735  0.00  0.00     0.001 A 
HETATM   27  C           1     -22.719  -4.777  -9.382  0.00  0.00     0.014 A 
ENDBRANCH  17  18
ENDBRANCH   1  17
TORSDOF 8
ENDMDL
MODEL 8
REMARK VINA RESULT:      -6.4     12.218     14.580
REMARK  8 active torsions:
REMARK  status: ('A' for Active; 'I' for Inactive)
REMARK    1  A    between atoms: C_2  and  C_10 
REMARK    2  A    between atoms: N_8  and  C_10 
REMARK       I    between atoms: N_8  and  C_14 
REMARK    3  A    between atoms: C_10  and  C_13 
REMARK    4  A    between atoms: C_11  and  C_13 
REMARK    5  A    between atoms: C_14  and  C_15 
REMARK    6  A    between atoms: C_15  and  C_23 
REMARK    7  A    between atoms: C_15  and  N_27 
REMARK    8  A    between atoms: C_23  and  O_24 
ROOT
HETATM    1  C           1     -21.491  -7.375  -3.856  0.00  0.00     0.190 C 
ENDROOT
BRANCH   1   2
HETATM    2  C           1     -21.601  -6.858  -2.442  0.00  0.00     0.197 C 
HETATM    3  O           1     -20.892  -7.351  -1.540  0.00  0.00    -0.646 OA
HETATM    4  O           1     -22.403  -5.936  -2.174  0.00  0.00    -0.646 OA
ENDBRANCH   1   2
BRANCH   1   5
HETATM    5  N           1     -22.095  -8.690  -3.937  0.00  0.00    -0.344 N 
HETATM    6  H           1     -23.100  -8.790  -3.885  0.00  0.00     0.163 HD
HETATM    7  C           1     -21.304  -9.799  -4.082  0.00  0.00     0.251 C 
HETATM    8  O           1     -20.893 -10.380  -3.107  0.00  0.00    -0.271 OA
BRANCH   7   9
HETATM    9  C           1     -20.947 -10.294  -5.462  0.00  0.00     0.297 C 
BRANCH   9  10
HETATM   10  C           1     -21.264 -11.781  -5.566  0.00  0.00     0.206 C 
BRANCH  10  11
HETATM   11  O           1     -22.520 -12.032  -4.996  0.00  0.00    -0.398 OA
HETATM   12  H           1     -23.166 -11.758  -5.626  0.00  0.00     0.209 HD
ENDBRANCH  10  11
ENDBRANCH   9  10
BRANCH   9  13
HETATM   13  N           1     -19.482 -10.079  -5.706  0.00  0.00    -0.064 N 
HETATM   14  H           1     -18.961 -10.960  -5.493  0.00  0.00     0.275 HD
HETATM   15  H           1     -19.330  -9.816  -6.706  0.00  0.00     0.275 HD
HETATM   16  H           1     -19.135  -9.311  -5.087  0.00  0.00     0.275 HD
ENDBRANCH   9  13
ENDBRANCH   7   9
ENDBRANCH   1   5
BRANCH   1  17
HETATM   17  C           1     -22.215  -6.425  -4.802  0.00  0.00     0.077 C 
BRANCH  17  18
HETATM   18  C           1     -21.331  -6.114  -5.970  0.00  0.00    -0.028 A 
HETATM   19  C           1     -20.047  -6.571  -6.160  0.00  0.00     0.096 A 
HETATM   20  N           1     -19.592  -6.059  -7.346  0.00  0.00    -0.365 N 
HETATM   21  H           1     -18.640  -6.237  -7.752  0.00  0.00     0.165 HD
HETATM   22  C           1     -20.562  -5.275  -7.931  0.00  0.00     0.042 A 
HETATM   23  C           1     -20.544  -4.559  -9.133  0.00  0.00     0.030 A 
HETATM   24  C           1     -21.669  -5.295  -7.082  0.00  0.00    -0.002 A 
HETATM   25  C           1     -21.695  -3.842  -9.475  0.00  0.00     0.002 A 
HETATM   26  C           1     -22.815  -3.843  -8.647  0.00  0.00     0.001 A 
HETATM   27  C           1     -22.817  -4.564  -7.449  0.00  0.00     0.014 A 
ENDBRANCH  17  18
ENDBRANCH   1  17
TORSDOF 8
ENDMDL
MODEL 9
REMARK VINA RESULT:      -6.3     14.562     16.589
REMARK  8 active torsions:
REMARK  status: ('A' for Active; 'I' for Inactive)
REMARK    1  A    between atoms: C_2  and  C_10 
REMARK    2  A    between atoms: N_8  and  C_10 
REMARK       I    between atoms: N_8  and  C_14 
REMARK    3  A    between atoms: C_10  and  C_13 
REMARK    4  A    between atoms: C_11  and  C_13 
REMARK    5  A    between atoms: C_14  and  C_15 
REMARK    6  A    between atoms: C_15  and  C_23 
REMARK    7  A    between atoms: C_15  and  N_27 
REMARK    8  A    between atoms: C_23  and  O_24 
ROOT
HETATM    1  C           1     -21.354  -8.861  -2.021  0.00  0.00     0.190 C 
ENDROOT
BRANCH   1   2
HETATM    2  C           1     -21.889  -8.742  -0.615  0.00  0.00     0.197 C 
HETATM    3  O           1     -22.998  -9.239  -0.325  0.00  0.00    -0.646 OA
HETATM    4  O           1     -21.223  -8.145   0.259  0.00  0.00    -0.646 OA
ENDBRANCH   1   2
BRANCH   1   5
HETATM    5  N           1     -20.894  -7.563  -2.474  0.00  0.00    -0.344 N 
HETATM    6  H           1     -19.950  -7.261  -2.273  0.00  0.00     0.163 HD
HETATM    7  C           1     -21.740  -6.743  -3.173  0.00  0.00     0.251 C 
HETATM    8  O           1     -22.439  -5.953  -2.584  0.00  0.00    -0.271 OA
BRANCH   7   9
HETATM    9  C           1     -21.796  -6.825  -4.679  0.00  0.00     0.297 C 
BRANCH   9  10
HETATM   10  C           1     -20.501  -6.281  -5.266  0.00  0.00     0.206 C 
BRANCH  10  11
HETATM   11  O           1     -20.055  -7.133  -6.286  0.00  0.00    -0.398 OA
HETATM   12  H           1     -20.156  -8.015  -5.969  0.00  0.00     0.209 HD
ENDBRANCH  10  11
ENDBRANCH   9  10
BRANCH   9  13
HETATM   13  N           1     -22.952  -6.010  -5.179  0.00  0.00    -0.064 N 
HETATM   14  H           1     -22.598  -5.105  -5.565  0.00  0.00     0.275 HD
HETATM   15  H           1     -23.452  -6.537  -5.930  0.00  0.00     0.275 HD
HETATM   16  H           1     -23.611  -5.818  -4.391  0.00  0.00     0.275 HD
ENDBRANCH   9  13
ENDBRANCH   7   9
ENDBRANCH   1   5
BRANCH   1  17
HETATM   17  C           1     -20.191  -9.845  -2.041  0.00  0.00     0.077 C 
BRANCH  17  18
HETATM   18  C           1     -19.641  -9.940  -3.431  0.00  0.00    -0.028 A 
HETATM   19  C           1     -20.371 -10.136  -4.581  0.00  0.00     0.096 A 
HETATM   20  N           1     -19.494 -10.162  -5.633  0.00  0.00    -0.365 N 
HETATM   21  H           1     -19.766 -10.297  -6.638  0.00  0.00     0.165 HD
HETATM   22  C           1     -18.204  -9.985  -5.184  0.00  0.00     0.042 A 
HETATM   23  C           1     -16.998  -9.941  -5.892  0.00  0.00     0.030 A 
HETATM   24  C           1     -18.270  -9.843  -3.797  0.00  0.00    -0.002 A 
HETATM   25  C           1     -15.824  -9.745  -5.156  0.00  0.00     0.002 A 
HETATM   26  C           1     -15.860  -9.600  -3.771  0.00  0.00     0.001 A 
HETATM   27  C           1     -17.075  -9.646  -3.079  0.00  0.00     0.014 A 
ENDBRANCH  17  18
ENDBRANCH   1  17
TORSDOF 8
ENDMDL
