MODEL 1
REMARK VINA RESULT:      -5.8      0.000      0.000
REMARK  8 active torsions:
REMARK  status: ('A' for Active; 'I' for Inactive)
REMARK    1  A    between atoms: C_1  and  C_2 
REMARK    2  A    between atoms: C_1  and  C_20 
REMARK    3  A    between atoms: C_1  and  N_17 
REMARK    4  A    between atoms: C_2  and  Se_3 
REMARK       I    between atoms: N_17  and  C_21 
REMARK    5  A    between atoms: C_18  and  C_23 
REMARK    6  A    between atoms: C_18  and  C_19 
REMARK    7  A    between atoms: C_21  and  C_23 
REMARK    8  A    between atoms: N_22  and  C_23 
ROOT
HETATM    1  C           1     -25.120  -6.906 -19.887  0.00  0.00     0.280 C 
ENDROOT
BRANCH   1   2
HETATM    2  C           1     -25.258  -7.953 -20.986  0.00  0.00     0.101 C 
BRANCH   2   3
HETATM    3  C           1     -23.905  -8.280 -21.537  0.00  0.00     0.028 A 
HETATM    4  N           1     -22.898  -8.876 -20.826  0.00  0.00    -0.355 N 
HETATM    5  C           1     -21.895  -8.982 -21.667  0.00  0.00     0.180 A 
ATOM      6  HN          1     -22.921  -9.175 -19.850  1.00  0.00     0.166 HD
HETATM    7  N           1     -22.216  -8.476 -22.894  0.00  0.00    -0.360 N 
HETATM    8  H           1     -21.590  -8.443 -23.736  0.00  0.00     0.166 HD
HETATM    9  C           1     -23.505  -8.022 -22.826  0.00  0.00     0.114 A 
ENDBRANCH   2   3
ENDBRANCH   1   2
BRANCH   1  10
HETATM   10  C           1     -26.486  -6.380 -19.520  0.00  0.00     0.249 C 
HETATM   11  O           1     -27.233  -5.983 -20.382  0.00  0.00    -0.271 OA
HETATM   12  N           1     -26.879  -6.351 -18.208  0.00  0.00    -0.345 N 
HETATM   13  H           1     -26.252  -6.684 -17.485  0.00  0.00     0.163 HD
BRANCH  12  14
HETATM   14  C           1     -28.191  -5.846 -17.854  0.00  0.00     0.185 C 
BRANCH  14  15
HETATM   15  C           1     -29.009  -6.960 -17.217  0.00  0.00     0.039 C 
BRANCH  15  16
HETATM   16 Se           1     -30.190  -7.745 -18.555  0.00  0.00     0.000 Se
HETATM   17  H           1     -31.225  -8.132 -17.582  0.00  0.00     0.000 HD
ENDBRANCH  15  16
ENDBRANCH  14  15
BRANCH  14  18
HETATM   18  C           1     -28.043  -4.708 -16.875  0.00  0.00     0.196 C 
HETATM   19  O           1     -28.405  -3.555 -17.196  0.00  0.00    -0.646 OA
HETATM   20  O           1     -27.557  -4.917 -15.742  0.00  0.00    -0.646 OA
ENDBRANCH  14  18
ENDBRANCH  12  14
ENDBRANCH   1  10
BRANCH   1  21
HETATM   21  N           1     -24.484  -7.529 -18.680  0.00  0.00    -0.066 N 
HETATM   22  H           1     -24.876  -7.091 -17.816  0.00  0.00     0.275 HD
HETATM   23  H           1     -23.451  -7.374 -18.713  0.00  0.00     0.275 HD
HETATM   24  H           1     -24.681  -8.555 -18.672  0.00  0.00     0.275 HD
ENDBRANCH   1  21
TORSDOF 8
ENDMDL
MODEL 2
REMARK VINA RESULT:      -5.7     12.112     14.149
REMARK  8 active torsions:
REMARK  status: ('A' for Active; 'I' for Inactive)
REMARK    1  A    between atoms: C_1  and  C_2 
REMARK    2  A    between atoms: C_1  and  C_20 
REMARK    3  A    between atoms: C_1  and  N_17 
REMARK    4  A    between atoms: C_2  and  Se_3 
REMARK       I    between atoms: N_17  and  C_21 
REMARK    5  A    between atoms: C_18  and  C_23 
REMARK    6  A    between atoms: C_18  and  C_19 
REMARK    7  A    between atoms: C_21  and  C_23 
REMARK    8  A    between atoms: N_22  and  C_23 
ROOT
HETATM    1  C           1     -21.123  -5.671  -6.736  0.00  0.00     0.280 C 
ENDROOT
BRANCH   1   2
HETATM    2  C           1     -20.657  -5.179  -5.372  0.00  0.00     0.101 C 
BRANCH   2   3
HETATM    3  C           1     -21.074  -6.157  -4.318  0.00  0.00     0.028 A 
HETATM    4  N           1     -21.545  -5.813  -3.078  0.00  0.00    -0.355 N 
HETATM    5  C           1     -21.792  -6.951  -2.473  0.00  0.00     0.180 A 
ATOM      6  HN          1     -21.677  -4.872  -2.706  1.00  0.00     0.166 HD
HETATM    7  N           1     -21.498  -8.018  -3.274  0.00  0.00    -0.360 N 
HETATM    8  H           1     -21.607  -9.032  -3.024  0.00  0.00     0.166 HD
HETATM    9  C           1     -21.036  -7.523  -4.462  0.00  0.00     0.114 A 
ENDBRANCH   2   3
ENDBRANCH   1   2
BRANCH   1  10
HETATM   10  C           1     -21.671  -4.510  -7.530  0.00  0.00     0.249 C 
HETATM   11  O           1     -21.579  -3.386  -7.098  0.00  0.00    -0.271 OA
HETATM   12  N           1     -22.274  -4.731  -8.739  0.00  0.00    -0.345 N 
HETATM   13  H           1     -22.351  -5.674  -9.101  0.00  0.00     0.163 HD
BRANCH  12  14
HETATM   14  C           1     -22.800  -3.616  -9.502  0.00  0.00     0.185 C 
BRANCH  14  15
HETATM   15  C           1     -22.147  -3.588 -10.877  0.00  0.00     0.039 C 
BRANCH  15  16
HETATM   16 Se           1     -20.344  -4.320 -10.755  0.00  0.00     0.000 Se
HETATM   17  H           1     -20.131  -4.345 -12.211  0.00  0.00     0.000 HD
ENDBRANCH  15  16
ENDBRANCH  14  15
BRANCH  14  18
HETATM   18  C           1     -24.292  -3.774  -9.657  0.00  0.00     0.196 C 
HETATM   19  O           1     -24.779  -4.898  -9.906  0.00  0.00    -0.646 OA
HETATM   20  O           1     -25.042  -2.781  -9.537  0.00  0.00    -0.646 OA
ENDBRANCH  14  18
ENDBRANCH  12  14
ENDBRANCH   1  10
BRANCH   1  21
HETATM   21  N           1     -19.964  -6.276  -7.472  0.00  0.00    -0.066 N 
HETATM   22  H           1     -20.259  -6.520  -8.444  0.00  0.00     0.275 HD
HETATM   23  H           1     -19.649  -7.139  -6.974  0.00  0.00     0.275 HD
HETATM   24  H           1     -19.178  -5.589  -7.509  0.00  0.00     0.275 HD
ENDBRANCH   1  21
TORSDOF 8
ENDMDL
MODEL 3
REMARK VINA RESULT:      -5.6      1.937      2.242
REMARK  8 active torsions:
REMARK  status: ('A' for Active; 'I' for Inactive)
REMARK    1  A    between atoms: C_1  and  C_2 
REMARK    2  A    between atoms: C_1  and  C_20 
REMARK    3  A    between atoms: C_1  and  N_17 
REMARK    4  A    between atoms: C_2  and  Se_3 
REMARK       I    between atoms: N_17  and  C_21 
REMARK    5  A    between atoms: C_18  and  C_23 
REMARK    6  A    between atoms: C_18  and  C_19 
REMARK    7  A    between atoms: C_21  and  C_23 
REMARK    8  A    between atoms: N_22  and  C_23 
ROOT
HETATM    1  C           1     -25.760  -7.685 -20.227  0.00  0.00     0.280 C 
ENDROOT
BRANCH   1   2
HETATM    2  C           1     -24.930  -6.979 -21.292  0.00  0.00     0.101 C 
BRANCH   2   3
HETATM    3  C           1     -23.734  -7.815 -21.630  0.00  0.00     0.028 A 
HETATM    4  N           1     -22.826  -8.280 -20.716  0.00  0.00    -0.355 N 
HETATM    5  C           1     -21.946  -8.959 -21.415  0.00  0.00     0.180 A 
ATOM      6  HN          1     -22.831  -8.130 -19.706  1.00  0.00     0.166 HD
HETATM    7  N           1     -22.252  -8.950 -22.746  0.00  0.00    -0.360 N 
HETATM    8  H           1     -21.708  -9.419 -23.512  0.00  0.00     0.166 HD
HETATM    9  C           1     -23.398  -8.219 -22.899  0.00  0.00     0.114 A 
ENDBRANCH   2   3
ENDBRANCH   1   2
BRANCH   1  10
HETATM   10  C           1     -25.625  -6.951 -18.916  0.00  0.00     0.249 C 
HETATM   11  O           1     -24.531  -6.665 -18.493  0.00  0.00    -0.271 OA
HETATM   12  N           1     -26.744  -6.610 -18.204  0.00  0.00    -0.345 N 
HETATM   13  H           1     -27.662  -6.851 -18.559  0.00  0.00     0.163 HD
BRANCH  12  14
HETATM   14  C           1     -26.616  -5.905 -16.944  0.00  0.00     0.185 C 
BRANCH  14  15
HETATM   15  C           1     -27.826  -5.004 -16.741  0.00  0.00     0.039 C 
BRANCH  15  16
HETATM   16 Se           1     -28.942  -5.044 -18.339  0.00  0.00     0.000 Se
HETATM   17  H           1     -30.185  -5.327 -17.604  0.00  0.00     0.000 HD
ENDBRANCH  15  16
ENDBRANCH  14  15
BRANCH  14  18
HETATM   18  C           1     -26.537  -6.904 -15.816  0.00  0.00     0.196 C 
HETATM   19  O           1     -25.425  -7.239 -15.354  0.00  0.00    -0.646 OA
HETATM   20  O           1     -27.584  -7.396 -15.342  0.00  0.00    -0.646 OA
ENDBRANCH  14  18
ENDBRANCH  12  14
ENDBRANCH   1  10
BRANCH   1  21
HETATM   21  N           1     -27.200  -7.701 -20.646  0.00  0.00    -0.066 N 
HETATM   22  H           1     -27.309  -7.165 -21.537  0.00  0.00     0.275 HD
HETATM   23  H           1     -27.784  -7.260 -19.899  0.00  0.00     0.275 HD
HETATM   24  H           1     -27.510  -8.688 -20.792  0.00  0.00     0.275 HD
ENDBRANCH   1  21
TORSDOF 8
ENDMDL
MODEL 4
REMARK VINA RESULT:      -5.4     12.846     14.638
REMARK  8 active torsions:
REMARK  status: ('A' for Active; 'I' for Inactive)
REMARK    1  A    between atoms: C_1  and  C_2 
REMARK    2  A    between atoms: C_1  and  C_20 
REMARK    3  A    between atoms: C_1  and  N_17 
REMARK    4  A    between atoms: C_2  and  Se_3 
REMARK       I    between atoms: N_17  and  C_21 
REMARK    5  A    between atoms: C_18  and  C_23 
REMARK    6  A    between atoms: C_18  and  C_19 
REMARK    7  A    between atoms: C_21  and  C_23 
REMARK    8  A    between atoms: N_22  and  C_23 
ROOT
HETATM    1  C           1     -21.317  -4.748  -6.745  0.00  0.00     0.280 C 
ENDROOT
BRANCH   1   2
HETATM    2  C           1     -21.488  -5.298  -8.156  0.00  0.00     0.101 C 
BRANCH   2   3
HETATM    3  C           1     -22.550  -4.520  -8.870  0.00  0.00     0.028 A 
HETATM    4  N           1     -23.688  -4.034  -8.281  0.00  0.00    -0.355 N 
HETATM    5  C           1     -24.341  -3.423  -9.242  0.00  0.00     0.180 A 
ATOM      6  HN          1     -23.968  -4.127  -7.305  1.00  0.00     0.166 HD
HETATM    7  N           1     -23.669  -3.496 -10.429  0.00  0.00    -0.360 N 
HETATM    8  H           1     -23.979  -3.087 -11.345  0.00  0.00     0.166 HD
HETATM    9  C           1     -22.516  -4.198 -10.205  0.00  0.00     0.114 A 
ENDBRANCH   2   3
ENDBRANCH   1   2
BRANCH   1  10
HETATM   10  C           1     -21.974  -5.683  -5.758  0.00  0.00     0.249 C 
HETATM   11  O           1     -23.177  -5.705  -5.656  0.00  0.00    -0.271 OA
HETATM   12  N           1     -21.206  -6.504  -4.978  0.00  0.00    -0.345 N 
HETATM   13  H           1     -20.197  -6.485  -5.064  0.00  0.00     0.163 HD
BRANCH  12  14
HETATM   14  C           1     -21.836  -7.402  -4.029  0.00  0.00     0.185 C 
BRANCH  14  15
HETATM   15  C           1     -21.205  -8.783  -4.141  0.00  0.00     0.039 C 
BRANCH  15  16
HETATM   16 Se           1     -19.463  -8.634  -5.004  0.00  0.00     0.000 Se
HETATM   17  H           1     -18.702  -8.924  -3.778  0.00  0.00     0.000 HD
ENDBRANCH  15  16
ENDBRANCH  14  15
BRANCH  14  18
HETATM   18  C           1     -21.642  -6.872  -2.631  0.00  0.00     0.196 C 
HETATM   19  O           1     -22.327  -5.908  -2.226  0.00  0.00    -0.646 OA
HETATM   20  O           1     -20.794  -7.396  -1.875  0.00  0.00    -0.646 OA
ENDBRANCH  14  18
ENDBRANCH  12  14
ENDBRANCH   1  10
BRANCH   1  21
HETATM   21  N           1     -19.856  -4.633  -6.427  0.00  0.00    -0.066 N 
HETATM   22  H           1     -19.330  -4.380  -7.295  0.00  0.00     0.275 HD
HETATM   23  H           1     -19.507  -5.548  -6.061  0.00  0.00     0.275 HD
HETATM   24  H           1     -19.714  -3.892  -5.705  0.00  0.00     0.275 HD
ENDBRANCH   1  21
TORSDOF 8
ENDMDL
MODEL 5
REMARK VINA RESULT:      -5.3     12.345     14.222
REMARK  8 active torsions:
REMARK  status: ('A' for Active; 'I' for Inactive)
REMARK    1  A    between atoms: C_1  and  C_2 
REMARK    2  A    between atoms: C_1  and  C_20 
REMARK    3  A    between atoms: C_1  and  N_17 
REMARK    4  A    between atoms: C_2  and  Se_3 
REMARK       I    between atoms: N_17  and  C_21 
REMARK    5  A    between atoms: C_18  and  C_23 
REMARK    6  A    between atoms: C_18  and  C_19 
REMARK    7  A    between atoms: C_21  and  C_23 
REMARK    8  A    between atoms: N_22  and  C_23 
ROOT
HETATM    1  C           1     -21.069  -4.182  -7.625  0.00  0.00     0.280 C 
ENDROOT
BRANCH   1   2
HETATM    2  C           1     -21.731  -5.160  -8.587  0.00  0.00     0.101 C 
BRANCH   2   3
HETATM    3  C           1     -22.944  -4.525  -9.191  0.00  0.00     0.028 A 
HETATM    4  N           1     -23.781  -3.663  -8.533  0.00  0.00    -0.355 N 
HETATM    5  C           1     -24.707  -3.342  -9.407  0.00  0.00     0.180 A 
ATOM      6  HN          1     -23.702  -3.338  -7.568  1.00  0.00     0.166 HD
HETATM    7  N           1     -24.500  -3.965 -10.605  0.00  0.00    -0.360 N 
HETATM    8  H           1     -25.097  -3.874 -11.464  0.00  0.00     0.166 HD
HETATM    9  C           1     -23.371  -4.728 -10.481  0.00  0.00     0.114 A 
ENDBRANCH   2   3
ENDBRANCH   1   2
BRANCH   1  10
HETATM   10  C           1     -20.780  -4.878  -6.318  0.00  0.00     0.249 C 
HETATM   11  O           1     -20.157  -4.308  -5.455  0.00  0.00    -0.271 OA
HETATM   12  N           1     -21.224  -6.157  -6.110  0.00  0.00    -0.345 N 
HETATM   13  H           1     -21.747  -6.634  -6.834  0.00  0.00     0.163 HD
BRANCH  12  14
HETATM   14  C           1     -20.947  -6.826  -4.854  0.00  0.00     0.185 C 
BRANCH  14  15
HETATM   15  C           1     -22.232  -6.941  -4.046  0.00  0.00     0.039 C 
BRANCH  15  16
HETATM   16 Se           1     -21.919  -6.295  -2.233  0.00  0.00     0.000 Se
HETATM   17  H           1     -22.199  -7.593  -1.598  0.00  0.00     0.000 HD
ENDBRANCH  15  16
ENDBRANCH  14  15
BRANCH  14  18
HETATM   18  C           1     -20.401  -8.205  -5.131  0.00  0.00     0.196 C 
HETATM   19  O           1     -21.062  -9.013  -5.818  0.00  0.00    -0.646 OA
HETATM   20  O           1     -19.287  -8.541  -4.672  0.00  0.00    -0.646 OA
ENDBRANCH  14  18
ENDBRANCH  12  14
ENDBRANCH   1  10
BRANCH   1  21
HETATM   21  N           1     -19.785  -3.686  -8.221  0.00  0.00    -0.066 N 
HETATM   22  H           1     -19.577  -4.223  -9.094  0.00  0.00     0.275 HD
HETATM   23  H           1     -19.009  -3.820  -7.535  0.00  0.00     0.275 HD
HETATM   24  H           1     -19.876  -2.670  -8.450  0.00  0.00     0.275 HD
ENDBRANCH   1  21
TORSDOF 8
ENDMDL
MODEL 6
REMARK VINA RESULT:      -5.1     12.892     14.515
REMARK  8 active torsions:
REMARK  status: ('A' for Active; 'I' for Inactive)
REMARK    1  A    between atoms: C_1  and  C_2 
REMARK    2  A    between atoms: C_1  and  C_20 
REMARK    3  A    between atoms: C_1  and  N_17 
REMARK    4  A    between atoms: C_2  and  Se_3 
REMARK       I    between atoms: N_17  and  C_21 
REMARK    5  A    between atoms: C_18  and  C_23 
REMARK    6  A    between atoms: C_18  and  C_19 
REMARK    7  A    between atoms: C_21  and  C_23 
REMARK    8  A    between atoms: N_22  and  C_23 
ROOT
HETATM    1  C           1     -22.219  -5.093  -6.971  0.00  0.00     0.280 C 
ENDROOT
BRANCH   1   2
HETATM    2  C           1     -21.633  -3.801  -7.525  0.00  0.00     0.101 C 
BRANCH   2   3
HETATM    3  C           1     -21.404  -3.946  -8.997  0.00  0.00     0.028 A 
HETATM    4  N           1     -22.316  -3.613  -9.964  0.00  0.00    -0.355 N 
HETATM    5  C           1     -21.730  -3.892 -11.105  0.00  0.00     0.180 A 
ATOM      6  HN          1     -23.252  -3.229  -9.826  1.00  0.00     0.166 HD
HETATM    7  N           1     -20.475  -4.393 -10.913  0.00  0.00    -0.360 N 
HETATM    8  H           1     -19.803  -4.692 -11.662  0.00  0.00     0.166 HD
HETATM    9  C           1     -20.251  -4.434  -9.563  0.00  0.00     0.114 A 
ENDBRANCH   2   3
ENDBRANCH   1   2
BRANCH   1  10
HETATM   10  C           1     -21.347  -5.600  -5.848  0.00  0.00     0.249 C 
HETATM   11  O           1     -20.506  -4.881  -5.365  0.00  0.00    -0.271 OA
HETATM   12  N           1     -21.509  -6.875  -5.377  0.00  0.00    -0.345 N 
HETATM   13  H           1     -22.215  -7.478  -5.783  0.00  0.00     0.163 HD
BRANCH  12  14
HETATM   14  C           1     -20.672  -7.362  -4.298  0.00  0.00     0.185 C 
BRANCH  14  15
HETATM   15  C           1     -21.549  -7.794  -3.130  0.00  0.00     0.039 C 
BRANCH  15  16
HETATM   16 Se           1     -22.040  -6.230  -2.074  0.00  0.00     0.000 Se
HETATM   17  H           1     -22.678  -7.011  -1.002  0.00  0.00     0.000 HD
ENDBRANCH  15  16
ENDBRANCH  14  15
BRANCH  14  18
HETATM   18  C           1     -19.864  -8.541  -4.783  0.00  0.00     0.196 C 
HETATM   19  O           1     -18.837  -8.892  -4.163  0.00  0.00    -0.646 OA
HETATM   20  O           1     -20.223  -9.167  -5.804  0.00  0.00    -0.646 OA
ENDBRANCH  14  18
ENDBRANCH  12  14
ENDBRANCH   1  10
BRANCH   1  21
HETATM   21  N           1     -23.602  -4.833  -6.451  0.00  0.00    -0.066 N 
HETATM   22  H           1     -24.025  -5.731  -6.124  0.00  0.00     0.275 HD
HETATM   23  H           1     -24.189  -4.426  -7.214  0.00  0.00     0.275 HD
HETATM   24  H           1     -23.553  -4.159  -5.653  0.00  0.00     0.275 HD
ENDBRANCH   1  21
TORSDOF 8
ENDMDL
MODEL 7
REMARK VINA RESULT:      -4.9     13.566     15.296
REMARK  8 active torsions:
REMARK  status: ('A' for Active; 'I' for Inactive)
REMARK    1  A    between atoms: C_1  and  C_2 
REMARK    2  A    between atoms: C_1  and  C_20 
REMARK    3  A    between atoms: C_1  and  N_17 
REMARK    4  A    between atoms: C_2  and  Se_3 
REMARK       I    between atoms: N_17  and  C_21 
REMARK    5  A    between atoms: C_18  and  C_23 
REMARK    6  A    between atoms: C_18  and  C_19 
REMARK    7  A    between atoms: C_21  and  C_23 
REMARK    8  A    between atoms: N_22  and  C_23 
ROOT
HETATM    1  C           1     -21.803  -6.245  -6.044  0.00  0.00     0.280 C 
ENDROOT
BRANCH   1   2
HETATM    2  C           1     -21.370  -4.840  -6.441  0.00  0.00     0.101 C 
BRANCH   2   3
HETATM    3  C           1     -22.131  -4.406  -7.655  0.00  0.00     0.028 A 
HETATM    4  N           1     -23.487  -4.212  -7.695  0.00  0.00    -0.355 N 
HETATM    5  C           1     -23.748  -3.841  -8.928  0.00  0.00     0.180 A 
ATOM      6  HN          1     -24.152  -4.329  -6.930  1.00  0.00     0.166 HD
HETATM    7  N           1     -22.612  -3.790  -9.685  0.00  0.00    -0.360 N 
HETATM    8  H           1     -22.553  -3.522 -10.698  0.00  0.00     0.166 HD
HETATM    9  C           1     -21.566  -4.150  -8.881  0.00  0.00     0.114 A 
ENDBRANCH   2   3
ENDBRANCH   1   2
BRANCH   1  10
HETATM   10  C           1     -20.583  -7.099  -5.801  0.00  0.00     0.249 C 
HETATM   11  O           1     -19.618  -6.992  -6.520  0.00  0.00    -0.271 OA
HETATM   12  N           1     -20.569  -7.997  -4.767  0.00  0.00    -0.345 N 
HETATM   13  H           1     -21.379  -8.086  -4.165  0.00  0.00     0.163 HD
BRANCH  12  14
HETATM   14  C           1     -19.397  -8.817  -4.534  0.00  0.00     0.185 C 
BRANCH  14  15
HETATM   15  C           1     -19.190  -8.993  -3.035  0.00  0.00     0.039 C 
BRANCH  15  16
HETATM   16 Se           1     -20.612  -8.071  -2.071  0.00  0.00     0.000 Se
HETATM   17  H           1     -19.691  -7.282  -1.236  0.00  0.00     0.000 HD
ENDBRANCH  15  16
ENDBRANCH  14  15
BRANCH  14  18
HETATM   18  C           1     -19.593 -10.168  -5.176  0.00  0.00     0.196 C 
HETATM   19  O           1     -19.110 -10.400  -6.305  0.00  0.00    -0.646 OA
HETATM   20  O           1     -20.240 -11.056  -4.579  0.00  0.00    -0.646 OA
ENDBRANCH  14  18
ENDBRANCH  12  14
ENDBRANCH   1  10
BRANCH   1  21
HETATM   21  N           1     -22.624  -6.179  -4.790  0.00  0.00    -0.066 N 
HETATM   22  H           1     -22.269  -5.406  -4.183  0.00  0.00     0.275 HD
HETATM   23  H           1     -22.550  -7.088  -4.278  0.00  0.00     0.275 HD
HETATM   24  H           1     -23.623  -5.999  -5.036  0.00  0.00     0.275 HD
ENDBRANCH   1  21
TORSDOF 8
ENDMDL
MODEL 8
REMARK VINA RESULT:      -4.8     15.661     17.152
REMARK  8 active torsions:
REMARK  status: ('A' for Active; 'I' for Inactive)
REMARK    1  A    between atoms: C_1  and  C_2 
REMARK    2  A    between atoms: C_1  and  C_20 
REMARK    3  A    between atoms: C_1  and  N_17 
REMARK    4  A    between atoms: C_2  and  Se_3 
REMARK       I    between atoms: N_17  and  C_21 
REMARK    5  A    between atoms: C_18  and  C_23 
REMARK    6  A    between atoms: C_18  and  C_19 
REMARK    7  A    between atoms: C_21  and  C_23 
REMARK    8  A    between atoms: N_22  and  C_23 
ROOT
HETATM    1  C           1     -20.613  -8.606  -4.620  0.00  0.00     0.280 C 
ENDROOT
BRANCH   1   2
HETATM    2  C           1     -21.533  -7.741  -5.472  0.00  0.00     0.101 C 
BRANCH   2   3
HETATM    3  C           1     -20.787  -6.531  -5.944  0.00  0.00     0.028 A 
HETATM    4  N           1     -20.102  -6.452  -7.128  0.00  0.00    -0.355 N 
HETATM    5  C           1     -19.598  -5.239  -7.156  0.00  0.00     0.180 A 
ATOM      6  HN          1     -20.003  -7.179  -7.836  1.00  0.00     0.166 HD
HETATM    7  N           1     -19.932  -4.533  -6.036  0.00  0.00    -0.360 N 
HETATM    8  H           1     -19.654  -3.544  -5.819  0.00  0.00     0.166 HD
HETATM    9  C           1     -20.695  -5.350  -5.248  0.00  0.00     0.114 A 
ENDBRANCH   2   3
ENDBRANCH   1   2
BRANCH   1  10
HETATM   10  C           1     -21.370  -9.116  -3.419  0.00  0.00     0.249 C 
HETATM   11  O           1     -22.080 -10.087  -3.521  0.00  0.00    -0.271 OA
HETATM   12  N           1     -21.254  -8.476  -2.214  0.00  0.00    -0.345 N 
HETATM   13  H           1     -20.659  -7.661  -2.129  0.00  0.00     0.163 HD
BRANCH  12  14
HETATM   14  C           1     -21.982  -8.965  -1.060  0.00  0.00     0.185 C 
BRANCH  14  15
HETATM   15  C           1     -21.012  -9.627  -0.091  0.00  0.00     0.039 C 
BRANCH  15  16
HETATM   16 Se           1     -21.602 -11.449   0.277  0.00  0.00     0.000 Se
HETATM   17  H           1     -20.602 -12.074  -0.604  0.00  0.00     0.000 HD
ENDBRANCH  15  16
ENDBRANCH  14  15
BRANCH  14  18
HETATM   18  C           1     -22.669  -7.811  -0.373  0.00  0.00     0.196 C 
HETATM   19  O           1     -23.270  -7.994   0.708  0.00  0.00    -0.646 OA
HETATM   20  O           1     -22.638  -6.671  -0.885  0.00  0.00    -0.646 OA
ENDBRANCH  14  18
ENDBRANCH  12  14
ENDBRANCH   1  10
BRANCH   1  21
HETATM   21  N           1     -20.125  -9.768  -5.434  0.00  0.00    -0.066 N 
HETATM   22  H           1     -19.106  -9.650  -5.633  0.00  0.00     0.275 HD
HETATM   23  H           1     -20.656  -9.810  -6.333  0.00  0.00     0.275 HD
HETATM   24  H           1     -20.276 -10.654  -4.900  0.00  0.00     0.275 HD
ENDBRANCH   1  21
TORSDOF 8
ENDMDL
MODEL 9
REMARK VINA RESULT:      -4.7     19.341     20.084
REMARK  8 active torsions:
REMARK  status: ('A' for Active; 'I' for Inactive)
REMARK    1  A    between atoms: C_1  and  C_2 
REMARK    2  A    between atoms: C_1  and  C_20 
REMARK    3  A    between atoms: C_1  and  N_17 
REMARK    4  A    between atoms: C_2  and  Se_3 
REMARK       I    between atoms: N_17  and  C_21 
REMARK    5  A    between atoms: C_18  and  C_23 
REMARK    6  A    between atoms: C_18  and  C_19 
REMARK    7  A    between atoms: C_21  and  C_23 
REMARK    8  A    between atoms: N_22  and  C_23 
ROOT
HETATM    1  C           1     -10.483   5.886 -19.806  0.00  0.00     0.280 C 
ENDROOT
BRANCH   1   2
HETATM    2  C           1     -11.765   5.103 -19.550  0.00  0.00     0.101 C 
BRANCH   2   3
HETATM    3  C           1     -12.235   4.481 -20.828  0.00  0.00     0.028 A 
HETATM    4  N           1     -11.681   4.716 -22.058  0.00  0.00    -0.355 N 
HETATM    5  C           1     -12.377   3.986 -22.898  0.00  0.00     0.180 A 
ATOM      6  HN          1     -10.894   5.329 -22.276  1.00  0.00     0.166 HD
HETATM    7  N           1     -13.361   3.288 -22.257  0.00  0.00    -0.360 N 
HETATM    8  H           1     -14.051   2.634 -22.703  0.00  0.00     0.166 HD
HETATM    9  C           1     -13.281   3.596 -20.926  0.00  0.00     0.114 A 
ENDBRANCH   2   3
ENDBRANCH   1   2
BRANCH   1  10
HETATM   10  C           1     -10.741   7.357 -19.593  0.00  0.00     0.249 C 
HETATM   11  O           1     -10.108   7.967 -18.765  0.00  0.00    -0.271 OA
HETATM   12  N           1     -11.693   8.001 -20.338  0.00  0.00    -0.345 N 
HETATM   13  H           1     -12.223   7.488 -21.032  0.00  0.00     0.163 HD
BRANCH  12  14
HETATM   14  C           1     -11.940   9.415 -20.134  0.00  0.00     0.185 C 
BRANCH  14  15
HETATM   15  C           1     -12.090  10.104 -21.483  0.00  0.00     0.039 C 
BRANCH  15  16
HETATM   16 Se           1     -10.668   9.510 -22.678  0.00  0.00     0.000 Se
HETATM   17  H           1     -11.066   8.093 -22.635  0.00  0.00     0.000 HD
ENDBRANCH  15  16
ENDBRANCH  14  15
BRANCH  14  18
HETATM   18  C           1     -13.208   9.592 -19.335  0.00  0.00     0.196 C 
HETATM   19  O           1     -13.978  10.543 -19.588  0.00  0.00    -0.646 OA
HETATM   20  O           1     -13.489   8.787 -18.421  0.00  0.00    -0.646 OA
ENDBRANCH  14  18
ENDBRANCH  12  14
ENDBRANCH   1  10
BRANCH   1  21
HETATM   21  N           1      -9.417   5.423 -18.857  0.00  0.00    -0.066 N 
HETATM   22  H           1      -9.776   4.616 -18.298  0.00  0.00     0.275 HD
HETATM   23  H           1      -9.159   6.206 -18.216  0.00  0.00     0.275 HD
HETATM   24  H           1      -8.575   5.125 -19.399  0.00  0.00     0.275 HD
ENDBRANCH   1  21
TORSDOF 8
ENDMDL
