MODEL 1
REMARK VINA RESULT:      -8.2      0.000      0.000
REMARK  7 active torsions:
REMARK  status: ('A' for Active; 'I' for Inactive)
REMARK       I    between atoms: C_6  and  N_11 
REMARK    1  A    between atoms: C_6  and  C_7 
REMARK    2  A    between atoms: C_7  and  C_20 
REMARK    3  A    between atoms: C_7  and  N_24 
REMARK    4  A    between atoms: N_11  and  C_21 
REMARK    5  A    between atoms: C_14  and  C_21 
REMARK    6  A    between atoms: C_15  and  C_21 
REMARK    7  A    between atoms: C_18  and  C_20 
ROOT
HETATM    1  C           1     -20.827  -5.376  -6.208  0.00  0.00     0.278 C 
ENDROOT
BRANCH   1   2
HETATM    2  C           1     -21.316  -4.420  -7.269  0.00  0.00     0.249 C 
HETATM    3  O           1     -21.348  -3.234  -7.045  0.00  0.00    -0.271 OA
HETATM    4  N           1     -21.724  -4.898  -8.485  0.00  0.00    -0.344 N 
HETATM    5  H           1     -21.698  -5.893  -8.673  0.00  0.00     0.163 HD
BRANCH   4   6
HETATM    6  C           1     -22.194  -3.981  -9.504  0.00  0.00     0.189 C 
BRANCH   6   7
HETATM    7  C           1     -21.410  -4.207 -10.791  0.00  0.00     0.010 C 
HETATM    8  C           1     -20.035  -4.770 -10.457  0.00  0.00     0.012 C 
HETATM    9  C           1     -21.251  -2.883 -11.527  0.00  0.00     0.012 C 
ENDBRANCH   6   7
BRANCH   6  10
HETATM   10  C           1     -23.660  -4.222  -9.761  0.00  0.00     0.197 C 
HETATM   11  O           1     -24.512  -3.413  -9.333  0.00  0.00    -0.646 OA
HETATM   12  O           1     -24.025  -5.232 -10.402  0.00  0.00    -0.646 OA
ENDBRANCH   6  10
ENDBRANCH   4   6
ENDBRANCH   1   2
BRANCH   1  13
HETATM   13  C           1     -22.020  -6.055  -5.547  0.00  0.00     0.083 C 
BRANCH  13  14
HETATM   14  C           1     -21.535  -7.148  -4.646  0.00  0.00    -0.028 A 
HETATM   15  C           1     -21.676  -7.192  -3.231  0.00  0.00    -0.002 A 
HETATM   16  C           1     -21.086  -8.379  -2.796  0.00  0.00     0.042 A 
HETATM   17  C           1     -22.251  -6.330  -2.276  0.00  0.00     0.014 A 
HETATM   18  N           1     -20.607  -9.026  -3.913  0.00  0.00    -0.365 N 
HETATM   19  C           1     -21.042  -8.750  -1.446  0.00  0.00     0.030 A 
HETATM   20  C           1     -20.874  -8.290  -5.037  0.00  0.00     0.096 A 
HETATM   21  H           1     -20.110  -9.950  -3.904  0.00  0.00     0.165 HD
HETATM   22  C           1     -21.620  -7.879  -0.517  0.00  0.00     0.002 A 
HETATM   23  C           1     -22.216  -6.687  -0.923  0.00  0.00     0.001 A 
ENDBRANCH  13  14
ENDBRANCH   1  13
BRANCH   1  24
HETATM   24  N           1     -20.048  -4.618  -5.175  0.00  0.00    -0.066 N 
HETATM   25  H           1     -19.044  -4.571  -5.459  0.00  0.00     0.275 HD
HETATM   26  H           1     -20.128  -5.105  -4.253  0.00  0.00     0.275 HD
HETATM   27  H           1     -20.432  -3.650  -5.089  0.00  0.00     0.275 HD
ENDBRANCH   1  24
TORSDOF 7
ENDMDL
MODEL 2
REMARK VINA RESULT:      -7.8      3.124      7.678
REMARK  7 active torsions:
REMARK  status: ('A' for Active; 'I' for Inactive)
REMARK       I    between atoms: C_6  and  N_11 
REMARK    1  A    between atoms: C_6  and  C_7 
REMARK    2  A    between atoms: C_7  and  C_20 
REMARK    3  A    between atoms: C_7  and  N_24 
REMARK    4  A    between atoms: N_11  and  C_21 
REMARK    5  A    between atoms: C_14  and  C_21 
REMARK    6  A    between atoms: C_15  and  C_21 
REMARK    7  A    between atoms: C_18  and  C_20 
ROOT
HETATM    1  C           1     -21.484  -6.333  -5.492  0.00  0.00     0.278 C 
ENDROOT
BRANCH   1   2
HETATM    2  C           1     -20.430  -7.414  -5.495  0.00  0.00     0.249 C 
HETATM    3  O           1     -19.568  -7.414  -6.340  0.00  0.00    -0.271 OA
HETATM    4  N           1     -20.451  -8.393  -4.539  0.00  0.00    -0.344 N 
HETATM    5  H           1     -21.174  -8.393  -3.830  0.00  0.00     0.163 HD
BRANCH   4   6
HETATM    6  C           1     -19.438  -9.430  -4.540  0.00  0.00     0.189 C 
BRANCH   6   7
HETATM    7  C           1     -18.982  -9.698  -3.112  0.00  0.00     0.010 C 
HETATM    8  C           1     -19.729  -8.773  -2.158  0.00  0.00     0.012 C 
HETATM    9  C           1     -17.486  -9.439  -3.000  0.00  0.00     0.012 C 
ENDBRANCH   6   7
BRANCH   6  10
HETATM   10  C           1     -20.015 -10.694  -5.128  0.00  0.00     0.197 C 
HETATM   11  O           1     -20.075 -10.836  -6.369  0.00  0.00    -0.646 OA
HETATM   12  O           1     -20.432 -11.600  -4.375  0.00  0.00    -0.646 OA
ENDBRANCH   6  10
ENDBRANCH   4   6
ENDBRANCH   1   2
BRANCH   1  13
HETATM   13  C           1     -20.936  -5.087  -6.175  0.00  0.00     0.083 C 
BRANCH  13  14
HETATM   14  C           1     -21.865  -4.669  -7.272  0.00  0.00    -0.028 A 
HETATM   15  C           1     -21.514  -4.463  -8.635  0.00  0.00    -0.002 A 
HETATM   16  C           1     -22.677  -4.084  -9.306  0.00  0.00     0.042 A 
HETATM   17  C           1     -20.313  -4.563  -9.363  0.00  0.00     0.014 A 
HETATM   18  N           1     -23.692  -4.064  -8.376  0.00  0.00    -0.365 N 
HETATM   19  C           1     -22.700  -3.799 -10.676  0.00  0.00     0.030 A 
HETATM   20  C           1     -23.212  -4.416  -7.142  0.00  0.00     0.096 A 
HETATM   21  H           1     -24.691  -3.815  -8.582  0.00  0.00     0.165 HD
HETATM   22  C           1     -21.495  -3.905 -11.378  0.00  0.00     0.002 A 
HETATM   23  C           1     -20.318  -4.281 -10.734  0.00  0.00     0.001 A 
ENDBRANCH  13  14
ENDBRANCH   1  13
BRANCH   1  24
HETATM   24  N           1     -21.858  -6.004  -4.078  0.00  0.00    -0.066 N 
HETATM   25  H           1     -22.414  -6.790  -3.671  0.00  0.00     0.275 HD
HETATM   26  H           1     -22.428  -5.129  -4.063  0.00  0.00     0.275 HD
HETATM   27  H           1     -20.991  -5.863  -3.511  0.00  0.00     0.275 HD
ENDBRANCH   1  24
TORSDOF 7
ENDMDL
MODEL 3
REMARK VINA RESULT:      -7.3      2.494      7.658
REMARK  7 active torsions:
REMARK  status: ('A' for Active; 'I' for Inactive)
REMARK       I    between atoms: C_6  and  N_11 
REMARK    1  A    between atoms: C_6  and  C_7 
REMARK    2  A    between atoms: C_7  and  C_20 
REMARK    3  A    between atoms: C_7  and  N_24 
REMARK    4  A    between atoms: N_11  and  C_21 
REMARK    5  A    between atoms: C_14  and  C_21 
REMARK    6  A    between atoms: C_15  and  C_21 
REMARK    7  A    between atoms: C_18  and  C_20 
ROOT
HETATM    1  C           1     -20.635  -5.867  -5.906  0.00  0.00     0.278 C 
ENDROOT
BRANCH   1   2
HETATM    2  C           1     -21.559  -6.428  -4.853  0.00  0.00     0.249 C 
HETATM    3  O           1     -22.756  -6.336  -4.988  0.00  0.00    -0.271 OA
HETATM    4  N           1     -21.041  -7.043  -3.745  0.00  0.00    -0.344 N 
HETATM    5  H           1     -20.038  -7.120  -3.631  0.00  0.00     0.163 HD
BRANCH   4   6
HETATM    6  C           1     -21.927  -7.582  -2.733  0.00  0.00     0.189 C 
BRANCH   6   7
HETATM    7  C           1     -21.282  -8.803  -2.090  0.00  0.00     0.010 C 
HETATM    8  C           1     -19.772  -8.744  -2.291  0.00  0.00     0.012 C 
HETATM    9  C           1     -21.831 -10.067  -2.738  0.00  0.00     0.012 C 
ENDBRANCH   6   7
BRANCH   6  10
HETATM   10  C           1     -22.182  -6.535  -1.678  0.00  0.00     0.197 C 
HETATM   11  O           1     -21.896  -5.339  -1.901  0.00  0.00    -0.646 OA
HETATM   12  O           1     -22.680  -6.864  -0.579  0.00  0.00    -0.646 OA
ENDBRANCH   6  10
ENDBRANCH   4   6
ENDBRANCH   1   2
BRANCH   1  13
HETATM   13  C           1     -21.000  -4.414  -6.180  0.00  0.00     0.083 C 
BRANCH  13  14
HETATM   14  C           1     -21.910  -4.343  -7.367  0.00  0.00    -0.028 A 
HETATM   15  C           1     -21.507  -4.234  -8.727  0.00  0.00    -0.002 A 
HETATM   16  C           1     -22.669  -4.199  -9.498  0.00  0.00     0.042 A 
HETATM   17  C           1     -20.260  -4.161  -9.376  0.00  0.00     0.014 A 
HETATM   18  N           1     -23.734  -4.284  -8.629  0.00  0.00    -0.365 N 
HETATM   19  C           1     -22.647  -4.095 -10.894  0.00  0.00     0.030 A 
HETATM   20  C           1     -23.286  -4.372  -7.338  0.00  0.00     0.096 A 
HETATM   21  H           1     -24.744  -4.283  -8.915  0.00  0.00     0.165 HD
HETATM   22  C           1     -21.396  -4.024 -11.517  0.00  0.00     0.002 A 
HETATM   23  C           1     -20.219  -4.057 -10.772  0.00  0.00     0.001 A 
ENDBRANCH  13  14
ENDBRANCH   1  13
BRANCH   1  24
HETATM   24  N           1     -20.775  -6.664  -7.169  0.00  0.00    -0.066 N 
HETATM   25  H           1     -20.286  -7.580  -7.060  0.00  0.00     0.275 HD
HETATM   26  H           1     -20.351  -6.134  -7.963  0.00  0.00     0.275 HD
HETATM   27  H           1     -21.788  -6.831  -7.365  0.00  0.00     0.275 HD
ENDBRANCH   1  24
TORSDOF 7
ENDMDL
MODEL 4
REMARK VINA RESULT:      -7.0      3.495      7.867
REMARK  7 active torsions:
REMARK  status: ('A' for Active; 'I' for Inactive)
REMARK       I    between atoms: C_6  and  N_11 
REMARK    1  A    between atoms: C_6  and  C_7 
REMARK    2  A    between atoms: C_7  and  C_20 
REMARK    3  A    between atoms: C_7  and  N_24 
REMARK    4  A    between atoms: N_11  and  C_21 
REMARK    5  A    between atoms: C_14  and  C_21 
REMARK    6  A    between atoms: C_15  and  C_21 
REMARK    7  A    between atoms: C_18  and  C_20 
ROOT
HETATM    1  C           1     -20.338  -7.678  -5.067  0.00  0.00     0.278 C 
ENDROOT
BRANCH   1   2
HETATM    2  C           1     -20.299  -8.263  -3.676  0.00  0.00     0.249 C 
HETATM    3  O           1     -19.259  -8.682  -3.226  0.00  0.00    -0.271 OA
HETATM    4  N           1     -21.441  -8.317  -2.924  0.00  0.00    -0.344 N 
HETATM    5  H           1     -22.313  -7.966  -3.300  0.00  0.00     0.163 HD
BRANCH   4   6
HETATM    6  C           1     -21.404  -8.878  -1.587  0.00  0.00     0.189 C 
BRANCH   6   7
HETATM    7  C           1     -22.316  -8.071  -0.672  0.00  0.00     0.010 C 
HETATM    8  C           1     -22.326  -6.615  -1.120  0.00  0.00     0.012 C 
HETATM    9  C           1     -21.803  -8.158   0.759  0.00  0.00     0.012 C 
ENDBRANCH   6   7
BRANCH   6  10
HETATM   10  C           1     -21.876 -10.310  -1.630  0.00  0.00     0.197 C 
HETATM   11  O           1     -21.293 -11.181  -0.948  0.00  0.00    -0.646 OA
HETATM   12  O           1     -22.849 -10.627  -2.348  0.00  0.00    -0.646 OA
ENDBRANCH   6  10
ENDBRANCH   4   6
ENDBRANCH   1   2
BRANCH   1  13
HETATM   13  C           1     -20.847  -6.244  -5.001  0.00  0.00     0.083 C 
BRANCH  13  14
HETATM   14  C           1     -20.557  -5.552  -6.296  0.00  0.00    -0.028 A 
HETATM   15  C           1     -21.517  -4.960  -7.164  0.00  0.00    -0.002 A 
HETATM   16  C           1     -20.818  -4.431  -8.249  0.00  0.00     0.042 A 
HETATM   17  C           1     -22.918  -4.826  -7.129  0.00  0.00     0.014 A 
HETATM   18  N           1     -19.484  -4.695  -8.039  0.00  0.00    -0.365 N 
HETATM   19  C           1     -21.454  -3.769  -9.307  0.00  0.00     0.030 A 
HETATM   20  C           1     -19.315  -5.373  -6.860  0.00  0.00     0.096 A 
HETATM   21  H           1     -18.707  -4.417  -8.688  0.00  0.00     0.165 HD
HETATM   22  C           1     -22.846  -3.648  -9.249  0.00  0.00     0.002 A 
HETATM   23  C           1     -23.570  -4.167  -8.178  0.00  0.00     0.001 A 
ENDBRANCH  13  14
ENDBRANCH   1  13
BRANCH   1  24
HETATM   24  N           1     -21.256  -8.495  -5.925  0.00  0.00    -0.066 N 
HETATM   25  H           1     -22.100  -8.768  -5.374  0.00  0.00     0.275 HD
HETATM   26  H           1     -20.757  -9.355  -6.248  0.00  0.00     0.275 HD
HETATM   27  H           1     -21.550  -7.933  -6.756  0.00  0.00     0.275 HD
ENDBRANCH   1  24
TORSDOF 7
ENDMDL
MODEL 5
REMARK VINA RESULT:      -7.0      3.060      8.033
REMARK  7 active torsions:
REMARK  status: ('A' for Active; 'I' for Inactive)
REMARK       I    between atoms: C_6  and  N_11 
REMARK    1  A    between atoms: C_6  and  C_7 
REMARK    2  A    between atoms: C_7  and  C_20 
REMARK    3  A    between atoms: C_7  and  N_24 
REMARK    4  A    between atoms: N_11  and  C_21 
REMARK    5  A    between atoms: C_14  and  C_21 
REMARK    6  A    between atoms: C_15  and  C_21 
REMARK    7  A    between atoms: C_18  and  C_20 
ROOT
HETATM    1  C           1     -21.059  -6.873  -5.190  0.00  0.00     0.278 C 
ENDROOT
BRANCH   1   2
HETATM    2  C           1     -21.662  -7.160  -3.836  0.00  0.00     0.249 C 
HETATM    3  O           1     -22.313  -6.312  -3.273  0.00  0.00    -0.271 OA
HETATM    4  N           1     -21.471  -8.381  -3.247  0.00  0.00    -0.344 N 
HETATM    5  H           1     -20.926  -9.091  -3.719  0.00  0.00     0.163 HD
BRANCH   4   6
HETATM    6  C           1     -22.050  -8.657  -1.947  0.00  0.00     0.189 C 
BRANCH   6   7
HETATM    7  C           1     -22.211 -10.162  -1.772  0.00  0.00     0.010 C 
HETATM    8  C           1     -22.524 -10.800  -3.120  0.00  0.00     0.012 C 
HETATM    9  C           1     -23.351 -10.441  -0.802  0.00  0.00     0.012 C 
ENDBRANCH   6   7
BRANCH   6  10
HETATM   10  C           1     -21.143  -8.121  -0.868  0.00  0.00     0.197 C 
HETATM   11  O           1     -21.625  -7.730   0.217  0.00  0.00    -0.646 OA
HETATM   12  O           1     -19.909  -8.066  -1.059  0.00  0.00    -0.646 OA
ENDBRANCH   6  10
ENDBRANCH   4   6
ENDBRANCH   1   2
BRANCH   1  13
HETATM   13  C           1     -21.819  -5.730  -5.852  0.00  0.00     0.083 C 
BRANCH  13  14
HETATM   14  C           1     -20.975  -5.130  -6.933  0.00  0.00    -0.028 A 
HETATM   15  C           1     -21.421  -4.745  -8.228  0.00  0.00    -0.002 A 
HETATM   16  C           1     -20.314  -4.236  -8.908  0.00  0.00     0.042 A 
HETATM   17  C           1     -22.665  -4.782  -8.887  0.00  0.00     0.014 A 
HETATM   18  N           1     -19.241  -4.313  -8.050  0.00  0.00    -0.365 N 
HETATM   19  C           1     -20.390  -3.758 -10.223  0.00  0.00     0.030 A 
HETATM   20  C           1     -19.629  -4.852  -6.852  0.00  0.00     0.096 A 
HETATM   21  H           1     -18.265  -4.003  -8.280  0.00  0.00     0.165 HD
HETATM   22  C           1     -21.636  -3.805 -10.856  0.00  0.00     0.002 A 
HETATM   23  C           1     -22.757  -4.308 -10.201  0.00  0.00     0.001 A 
ENDBRANCH  13  14
ENDBRANCH   1  13
BRANCH   1  24
HETATM   24  N           1     -21.153  -8.098  -6.048  0.00  0.00    -0.066 N 
HETATM   25  H           1     -20.275  -8.656  -5.957  0.00  0.00     0.275 HD
HETATM   26  H           1     -21.286  -7.815  -7.045  0.00  0.00     0.275 HD
HETATM   27  H           1     -21.967  -8.678  -5.741  0.00  0.00     0.275 HD
ENDBRANCH   1  24
TORSDOF 7
ENDMDL
MODEL 6
REMARK VINA RESULT:      -7.0      3.448      7.516
REMARK  7 active torsions:
REMARK  status: ('A' for Active; 'I' for Inactive)
REMARK       I    between atoms: C_6  and  N_11 
REMARK    1  A    between atoms: C_6  and  C_7 
REMARK    2  A    between atoms: C_7  and  C_20 
REMARK    3  A    between atoms: C_7  and  N_24 
REMARK    4  A    between atoms: N_11  and  C_21 
REMARK    5  A    between atoms: C_14  and  C_21 
REMARK    6  A    between atoms: C_15  and  C_21 
REMARK    7  A    between atoms: C_18  and  C_20 
ROOT
HETATM    1  C           1     -21.737  -6.853  -5.154  0.00  0.00     0.278 C 
ENDROOT
BRANCH   1   2
HETATM    2  C           1     -20.886  -8.020  -4.716  0.00  0.00     0.249 C 
HETATM    3  O           1     -20.611  -8.163  -3.549  0.00  0.00    -0.271 OA
HETATM    4  N           1     -20.425  -8.917  -5.642  0.00  0.00    -0.344 N 
HETATM    5  H           1     -20.655  -8.797  -6.621  0.00  0.00     0.163 HD
BRANCH   4   6
HETATM    6  C           1     -19.608 -10.038  -5.222  0.00  0.00     0.189 C 
BRANCH   6   7
HETATM    7  C           1     -19.937 -11.255  -6.077  0.00  0.00     0.010 C 
HETATM    8  C           1     -21.448 -11.372  -6.234  0.00  0.00     0.012 C 
HETATM    9  C           1     -19.398 -12.509  -5.402  0.00  0.00     0.012 C 
ENDBRANCH   6   7
BRANCH   6  10
HETATM   10  C           1     -18.150  -9.688  -5.388  0.00  0.00     0.197 C 
HETATM   11  O           1     -17.711  -9.348  -6.508  0.00  0.00    -0.646 OA
HETATM   12  O           1     -17.380  -9.737  -4.404  0.00  0.00    -0.646 OA
ENDBRANCH   6  10
ENDBRANCH   4   6
ENDBRANCH   1   2
BRANCH   1  13
HETATM   13  C           1     -20.891  -5.885  -5.971  0.00  0.00     0.083 C 
BRANCH  13  14
HETATM   14  C           1     -21.760  -5.177  -6.963  0.00  0.00    -0.028 A 
HETATM   15  C           1     -21.391  -4.805  -8.286  0.00  0.00    -0.002 A 
HETATM   16  C           1     -22.494  -4.172  -8.857  0.00  0.00     0.042 A 
HETATM   17  C           1     -20.218  -4.948  -9.052  0.00  0.00     0.014 A 
HETATM   18  N           1     -23.492  -4.165  -7.909  0.00  0.00    -0.365 N 
HETATM   19  C           1     -22.485  -3.671 -10.165  0.00  0.00     0.030 A 
HETATM   20  C           1     -23.059  -4.770  -6.760  0.00  0.00     0.096 A 
HETATM   21  H           1     -24.448  -3.754  -8.047  0.00  0.00     0.165 HD
HETATM   22  C           1     -21.309  -3.825 -10.907  0.00  0.00     0.002 A 
HETATM   23  C           1     -20.191  -4.453 -10.362  0.00  0.00     0.001 A 
ENDBRANCH  13  14
ENDBRANCH   1  13
BRANCH   1  24
HETATM   24  N           1     -22.276  -6.148  -3.946  0.00  0.00    -0.066 N 
HETATM   25  H           1     -21.503  -5.985  -3.262  0.00  0.00     0.275 HD
HETATM   26  H           1     -23.017  -6.736  -3.502  0.00  0.00     0.275 HD
HETATM   27  H           1     -22.687  -5.230  -4.232  0.00  0.00     0.275 HD
ENDBRANCH   1  24
TORSDOF 7
ENDMDL
MODEL 7
REMARK VINA RESULT:      -6.9      1.862      2.866
REMARK  7 active torsions:
REMARK  status: ('A' for Active; 'I' for Inactive)
REMARK       I    between atoms: C_6  and  N_11 
REMARK    1  A    between atoms: C_6  and  C_7 
REMARK    2  A    between atoms: C_7  and  C_20 
REMARK    3  A    between atoms: C_7  and  N_24 
REMARK    4  A    between atoms: N_11  and  C_21 
REMARK    5  A    between atoms: C_14  and  C_21 
REMARK    6  A    between atoms: C_15  and  C_21 
REMARK    7  A    between atoms: C_18  and  C_20 
ROOT
HETATM    1  C           1     -21.168  -7.761  -4.800  0.00  0.00     0.278 C 
ENDROOT
BRANCH   1   2
HETATM    2  C           1     -21.169  -6.302  -5.186  0.00  0.00     0.249 C 
HETATM    3  O           1     -21.186  -5.451  -4.330  0.00  0.00    -0.271 OA
HETATM    4  N           1     -21.151  -5.944  -6.507  0.00  0.00    -0.344 N 
HETATM    5  H           1     -21.137  -6.657  -7.225  0.00  0.00     0.163 HD
BRANCH   4   6
HETATM    6  C           1     -21.151  -4.542  -6.879  0.00  0.00     0.189 C 
BRANCH   6   7
HETATM    7  C           1     -20.025  -4.280  -7.871  0.00  0.00     0.010 C 
HETATM    8  C           1     -20.087  -5.307  -8.994  0.00  0.00     0.012 C 
HETATM    9  C           1     -18.685  -4.389  -7.157  0.00  0.00     0.012 C 
ENDBRANCH   6   7
BRANCH   6  10
HETATM   10  C           1     -22.473  -4.191  -7.515  0.00  0.00     0.197 C 
HETATM   11  O           1     -23.539  -4.609  -7.014  0.00  0.00    -0.646 OA
HETATM   12  O           1     -22.502  -3.482  -8.545  0.00  0.00    -0.646 OA
ENDBRANCH   6  10
ENDBRANCH   4   6
ENDBRANCH   1   2
BRANCH   1  13
HETATM   13  C           1     -19.876  -8.091  -4.064  0.00  0.00     0.083 C 
BRANCH  13  14
HETATM   14  C           1     -20.194  -8.851  -2.815  0.00  0.00    -0.028 A 
HETATM   15  C           1     -21.030  -8.407  -1.753  0.00  0.00    -0.002 A 
HETATM   16  C           1     -21.050  -9.421  -0.794  0.00  0.00     0.042 A 
HETATM   17  C           1     -21.774  -7.235  -1.517  0.00  0.00     0.014 A 
HETATM   18  N           1     -20.252 -10.439  -1.265  0.00  0.00    -0.365 N 
HETATM   19  C           1     -21.781  -9.320   0.396  0.00  0.00     0.030 A 
HETATM   20  C           1     -19.729 -10.105  -2.486  0.00  0.00     0.096 A 
HETATM   21  H           1     -20.071 -11.341  -0.761  0.00  0.00     0.165 HD
HETATM   22  C           1     -22.512  -8.147   0.608  0.00  0.00     0.002 A 
HETATM   23  C           1     -22.511  -7.119  -0.332  0.00  0.00     0.001 A 
ENDBRANCH  13  14
ENDBRANCH   1  13
BRANCH   1  24
HETATM   24  N           1     -21.269  -8.605  -6.036  0.00  0.00    -0.066 N 
HETATM   25  H           1     -20.331  -9.007  -6.261  0.00  0.00     0.275 HD
HETATM   26  H           1     -21.596  -8.015  -6.834  0.00  0.00     0.275 HD
HETATM   27  H           1     -21.951  -9.380  -5.875  0.00  0.00     0.275 HD
ENDBRANCH   1  24
TORSDOF 7
ENDMDL
MODEL 8
REMARK VINA RESULT:      -6.8      1.648      2.655
REMARK  7 active torsions:
REMARK  status: ('A' for Active; 'I' for Inactive)
REMARK       I    between atoms: C_6  and  N_11 
REMARK    1  A    between atoms: C_6  and  C_7 
REMARK    2  A    between atoms: C_7  and  C_20 
REMARK    3  A    between atoms: C_7  and  N_24 
REMARK    4  A    between atoms: N_11  and  C_21 
REMARK    5  A    between atoms: C_14  and  C_21 
REMARK    6  A    between atoms: C_15  and  C_21 
REMARK    7  A    between atoms: C_18  and  C_20 
ROOT
HETATM    1  C           1     -21.500  -7.203  -5.180  0.00  0.00     0.278 C 
ENDROOT
BRANCH   1   2
HETATM    2  C           1     -21.324  -5.917  -5.949  0.00  0.00     0.249 C 
HETATM    3  O           1     -20.889  -4.936  -5.394  0.00  0.00    -0.271 OA
HETATM    4  N           1     -21.657  -5.861  -7.275  0.00  0.00    -0.344 N 
HETATM    5  H           1     -22.022  -6.683  -7.741  0.00  0.00     0.163 HD
BRANCH   4   6
HETATM    6  C           1     -21.488  -4.626  -8.015  0.00  0.00     0.189 C 
BRANCH   6   7
HETATM    7  C           1     -20.235  -4.717  -8.876  0.00  0.00     0.010 C 
HETATM    8  C           1     -19.050  -4.137  -8.113  0.00  0.00     0.012 C 
HETATM    9  C           1     -20.445  -3.929 -10.162  0.00  0.00     0.012 C 
ENDBRANCH   6   7
BRANCH   6  10
HETATM   10  C           1     -22.689  -4.401  -8.899  0.00  0.00     0.197 C 
HETATM   11  O           1     -23.061  -5.295  -9.690  0.00  0.00    -0.646 OA
HETATM   12  O           1     -23.313  -3.319  -8.841  0.00  0.00    -0.646 OA
ENDBRANCH   6  10
ENDBRANCH   4   6
ENDBRANCH   1   2
BRANCH   1  13
HETATM   13  C           1     -20.475  -7.266  -4.054  0.00  0.00     0.083 C 
BRANCH  13  14
HETATM   14  C           1     -21.181  -7.232  -2.734  0.00  0.00    -0.028 A 
HETATM   15  C           1     -21.114  -8.229  -1.722  0.00  0.00    -0.002 A 
HETATM   16  C           1     -21.919  -7.798  -0.667  0.00  0.00     0.042 A 
HETATM   17  C           1     -20.442  -9.461  -1.603  0.00  0.00     0.014 A 
HETATM   18  N           1     -22.451  -6.583  -1.035  0.00  0.00    -0.365 N 
HETATM   19  C           1     -22.087  -8.541   0.508  0.00  0.00     0.030 A 
HETATM   20  C           1     -22.012  -6.231  -2.283  0.00  0.00     0.096 A 
HETATM   21  H           1     -23.101  -6.008  -0.443  0.00  0.00     0.165 HD
HETATM   22  C           1     -21.409  -9.761   0.603  0.00  0.00     0.002 A 
HETATM   23  C           1     -20.599 -10.217  -0.435  0.00  0.00     0.001 A 
ENDBRANCH  13  14
ENDBRANCH   1  13
BRANCH   1  24
HETATM   24  N           1     -21.300  -8.368  -6.102  0.00  0.00    -0.066 N 
HETATM   25  H           1     -22.077  -8.399  -6.800  0.00  0.00     0.275 HD
HETATM   26  H           1     -21.292  -9.254  -5.548  0.00  0.00     0.275 HD
HETATM   27  H           1     -20.388  -8.264  -6.602  0.00  0.00     0.275 HD
ENDBRANCH   1  24
TORSDOF 7
ENDMDL
MODEL 9
REMARK VINA RESULT:      -6.8      4.802      7.041
REMARK  7 active torsions:
REMARK  status: ('A' for Active; 'I' for Inactive)
REMARK       I    between atoms: C_6  and  N_11 
REMARK    1  A    between atoms: C_6  and  C_7 
REMARK    2  A    between atoms: C_7  and  C_20 
REMARK    3  A    between atoms: C_7  and  N_24 
REMARK    4  A    between atoms: N_11  and  C_21 
REMARK    5  A    between atoms: C_14  and  C_21 
REMARK    6  A    between atoms: C_15  and  C_21 
REMARK    7  A    between atoms: C_18  and  C_20 
ROOT
HETATM    1  C           1     -19.924  -7.893  -5.003  0.00  0.00     0.278 C 
ENDROOT
BRANCH   1   2
HETATM    2  C           1     -19.134  -9.178  -5.058  0.00  0.00     0.249 C 
HETATM    3  O           1     -19.158  -9.859  -6.055  0.00  0.00    -0.271 OA
HETATM    4  N           1     -18.389  -9.570  -3.978  0.00  0.00    -0.344 N 
HETATM    5  H           1     -18.369  -8.999  -3.142  0.00  0.00     0.163 HD
BRANCH   4   6
HETATM    6  C           1     -17.630 -10.803  -4.030  0.00  0.00     0.189 C 
BRANCH   6   7
HETATM    7  C           1     -16.145 -10.492  -3.886  0.00  0.00     0.010 C 
HETATM    8  C           1     -15.951  -9.428  -2.813  0.00  0.00     0.012 C 
HETATM    9  C           1     -15.603  -9.979  -5.213  0.00  0.00     0.012 C 
ENDBRANCH   6   7
BRANCH   6  10
HETATM   10  C           1     -18.064 -11.710  -2.906  0.00  0.00     0.197 C 
HETATM   11  O           1     -18.763 -11.258  -1.973  0.00  0.00    -0.646 OA
HETATM   12  O           1     -17.725 -12.913  -2.907  0.00  0.00    -0.646 OA
ENDBRANCH   6  10
ENDBRANCH   4   6
ENDBRANCH   1   2
BRANCH   1  13
HETATM   13  C           1     -21.370  -8.202  -4.635  0.00  0.00     0.083 C 
BRANCH  13  14
HETATM   14  C           1     -21.723  -7.495  -3.363  0.00  0.00    -0.028 A 
HETATM   15  C           1     -21.847  -8.094  -2.079  0.00  0.00    -0.002 A 
HETATM   16  C           1     -22.187  -7.079  -1.184  0.00  0.00     0.042 A 
HETATM   17  C           1     -21.702  -9.407  -1.592  0.00  0.00     0.014 A 
HETATM   18  N           1     -22.265  -5.911  -1.907  0.00  0.00    -0.365 N 
HETATM   19  C           1     -22.391  -7.313   0.182  0.00  0.00     0.030 A 
HETATM   20  C           1     -21.986  -6.151  -3.227  0.00  0.00     0.096 A 
HETATM   21  H           1     -22.503  -4.971  -1.506  0.00  0.00     0.165 HD
HETATM   22  C           1     -22.241  -8.625   0.642  0.00  0.00     0.002 A 
HETATM   23  C           1     -21.902  -9.658  -0.229  0.00  0.00     0.001 A 
ENDBRANCH  13  14
ENDBRANCH   1  13
BRANCH   1  24
HETATM   24  N           1     -19.882  -7.223  -6.343  0.00  0.00    -0.066 N 
HETATM   25  H           1     -19.836  -6.188  -6.215  0.00  0.00     0.275 HD
HETATM   26  H           1     -20.743  -7.470  -6.883  0.00  0.00     0.275 HD
HETATM   27  H           1     -19.039  -7.547  -6.869  0.00  0.00     0.275 HD
ENDBRANCH   1  24
TORSDOF 7
ENDMDL
