MODEL 1
REMARK VINA RESULT:      -7.7      0.000      0.000
REMARK  9 active torsions:
REMARK  status: ('A' for Active; 'I' for Inactive)
REMARK    1  A    between atoms: N_3  and  C_26 
REMARK       I    between atoms: N_3  and  C_23 
REMARK    2  A    between atoms: C_4  and  C_16 
REMARK    3  A    between atoms: O_5  and  C_18 
REMARK    4  A    between atoms: C_7  and  C_13 
REMARK    5  A    between atoms: N_10  and  C_17 
REMARK    6  A    between atoms: C_13  and  C_26 
REMARK    7  A    between atoms: C_16  and  C_17 
REMARK    8  A    between atoms: C_17  and  C_23 
REMARK    9  A    between atoms: C_25  and  C_26 
ROOT
HETATM    1  C           1     -22.131  -5.294  -6.707  0.00  0.00     0.260 C 
ENDROOT
BRANCH   1   2
HETATM    2  N           1     -23.521  -5.042  -6.204  0.00  0.00    -0.067 N 
HETATM    3  H           1     -23.626  -5.450  -5.248  0.00  0.00     0.275 HD
HETATM    4  H           1     -23.696  -4.012  -6.164  0.00  0.00     0.275 HD
HETATM    5  H           1     -24.211  -5.488  -6.852  0.00  0.00     0.275 HD
ENDBRANCH   1   2
BRANCH   1   6
HETATM    6  C           1     -21.525  -3.986  -7.200  0.00  0.00     0.079 C 
BRANCH   6   7
HETATM    7  C           1     -21.564  -3.949  -8.696  0.00  0.00    -0.056 A 
HETATM    8  C           1     -20.410  -4.220  -9.430  0.00  0.00     0.010 A 
HETATM    9  C           1     -20.447  -4.186 -10.825  0.00  0.00     0.037 A 
HETATM   10  C           1     -21.637  -3.881 -11.484  0.00  0.00     0.065 A 
HETATM   11  C           1     -22.792  -3.609 -10.749  0.00  0.00     0.037 A 
HETATM   12  C           1     -22.754  -3.643  -9.355  0.00  0.00     0.010 A 
BRANCH  10  13
HETATM   13  O           1     -21.673  -3.846 -12.838  0.00  0.00    -0.361 OA
HETATM   14  H           1     -22.593  -3.981 -13.118  0.00  0.00     0.217 HD
ENDBRANCH  10  13
ENDBRANCH   6   7
ENDBRANCH   1   6
BRANCH   1  15
HETATM   15  C           1     -21.285  -5.851  -5.589  0.00  0.00     0.130 C 
HETATM   16  N           1     -21.314  -7.191  -5.311  0.00  0.00    -0.359 N 
HETATM   17  H           1     -21.903  -7.809  -5.856  0.00  0.00     0.162 HD
HETATM   18  O           1     -20.583  -5.114  -4.938  0.00  0.00    -0.397 OA
BRANCH  16  19
HETATM   19  C           1     -20.501  -7.727  -4.236  0.00  0.00     0.184 C 
BRANCH  19  20
HETATM   20  C           1     -21.405  -8.229  -3.118  0.00  0.00     0.040 C 
BRANCH  20  21
HETATM   21  C           1     -21.208  -7.367  -1.878  0.00  0.00    -0.018 C 
HETATM   22  C           1     -21.441  -8.208  -0.630  0.00  0.00     0.289 C 
HETATM   23  C           1     -22.199  -6.211  -1.902  0.00  0.00     0.009 C 
ENDBRANCH  20  21
ENDBRANCH  19  20
BRANCH  19  24
HETATM   24  C           1     -19.667  -8.870  -4.759  0.00  0.00     0.196 C 
HETATM   25  O           1     -20.067  -9.542  -5.734  0.00  0.00    -0.646 OA
HETATM   26  O           1     -18.576  -9.146  -4.216  0.00  0.00    -0.646 OA
ENDBRANCH  19  24
ENDBRANCH  16  19
ENDBRANCH   1  15
TORSDOF 9
ENDMDL
MODEL 2
REMARK VINA RESULT:      -7.1      0.975      1.378
REMARK  9 active torsions:
REMARK  status: ('A' for Active; 'I' for Inactive)
REMARK    1  A    between atoms: N_3  and  C_26 
REMARK       I    between atoms: N_3  and  C_23 
REMARK    2  A    between atoms: C_4  and  C_16 
REMARK    3  A    between atoms: O_5  and  C_18 
REMARK    4  A    between atoms: C_7  and  C_13 
REMARK    5  A    between atoms: N_10  and  C_17 
REMARK    6  A    between atoms: C_13  and  C_26 
REMARK    7  A    between atoms: C_16  and  C_17 
REMARK    8  A    between atoms: C_17  and  C_23 
REMARK    9  A    between atoms: C_25  and  C_26 
ROOT
HETATM    1  C           1     -21.855  -5.743  -6.765  0.00  0.00     0.260 C 
ENDROOT
BRANCH   1   2
HETATM    2  N           1     -22.929  -5.481  -5.751  0.00  0.00    -0.067 N 
HETATM    3  H           1     -23.866  -5.566  -6.206  0.00  0.00     0.275 HD
HETATM    4  H           1     -22.854  -6.178  -4.976  0.00  0.00     0.275 HD
HETATM    5  H           1     -22.815  -4.516  -5.365  0.00  0.00     0.275 HD
ENDBRANCH   1   2
BRANCH   1   6
HETATM    6  C           1     -21.214  -4.424  -7.176  0.00  0.00     0.079 C 
BRANCH   6   7
HETATM    7  C           1     -21.342  -4.245  -8.656  0.00  0.00    -0.056 A 
HETATM    8  C           1     -20.248  -4.490  -9.486  0.00  0.00     0.010 A 
HETATM    9  C           1     -20.369  -4.323 -10.866  0.00  0.00     0.037 A 
HETATM   10  C           1     -21.582  -3.912 -11.416  0.00  0.00     0.065 A 
HETATM   11  C           1     -22.677  -3.665 -10.586  0.00  0.00     0.037 A 
HETATM   12  C           1     -22.556  -3.832  -9.206  0.00  0.00     0.010 A 
BRANCH  10  13
HETATM   13  O           1     -21.699  -3.749 -12.755  0.00  0.00    -0.361 OA
HETATM   14  H           1     -21.042  -4.320 -13.186  0.00  0.00     0.217 HD
ENDBRANCH  10  13
ENDBRANCH   6   7
ENDBRANCH   1   6
BRANCH   1  15
HETATM   15  C           1     -20.807  -6.647  -6.165  0.00  0.00     0.130 C 
HETATM   16  N           1     -21.109  -7.413  -5.071  0.00  0.00    -0.359 N 
HETATM   17  H           1     -22.035  -7.372  -4.664  0.00  0.00     0.162 HD
HETATM   18  O           1     -19.702  -6.695  -6.649  0.00  0.00    -0.397 OA
BRANCH  16  19
HETATM   19  C           1     -20.102  -8.282  -4.494  0.00  0.00     0.184 C 
BRANCH  19  20
HETATM   20  C           1     -20.145  -8.172  -2.975  0.00  0.00     0.040 C 
BRANCH  20  21
HETATM   21  C           1     -21.592  -8.067  -2.514  0.00  0.00    -0.018 C 
HETATM   22  C           1     -21.831  -6.697  -1.894  0.00  0.00     0.289 C 
HETATM   23  C           1     -21.873  -9.148  -1.478  0.00  0.00     0.009 C 
ENDBRANCH  20  21
ENDBRANCH  19  20
BRANCH  19  24
HETATM   24  C           1     -20.376  -9.709  -4.902  0.00  0.00     0.196 C 
HETATM   25  O           1     -19.933 -10.653  -4.213  0.00  0.00    -0.646 OA
HETATM   26  O           1     -21.045  -9.946  -5.930  0.00  0.00    -0.646 OA
ENDBRANCH  19  24
ENDBRANCH  16  19
ENDBRANCH   1  15
TORSDOF 9
ENDMDL
MODEL 3
REMARK VINA RESULT:      -7.1     13.720     14.974
REMARK  9 active torsions:
REMARK  status: ('A' for Active; 'I' for Inactive)
REMARK    1  A    between atoms: N_3  and  C_26 
REMARK       I    between atoms: N_3  and  C_23 
REMARK    2  A    between atoms: C_4  and  C_16 
REMARK    3  A    between atoms: O_5  and  C_18 
REMARK    4  A    between atoms: C_7  and  C_13 
REMARK    5  A    between atoms: N_10  and  C_17 
REMARK    6  A    between atoms: C_13  and  C_26 
REMARK    7  A    between atoms: C_16  and  C_17 
REMARK    8  A    between atoms: C_17  and  C_23 
REMARK    9  A    between atoms: C_25  and  C_26 
ROOT
HETATM    1  C           1     -32.841  -4.506 -16.711  0.00  0.00     0.260 C 
ENDROOT
BRANCH   1   2
HETATM    2  N           1     -33.032  -3.327 -17.620  0.00  0.00    -0.067 N 
HETATM    3  H           1     -33.980  -3.371 -18.055  0.00  0.00     0.275 HD
HETATM    4  H           1     -32.942  -2.444 -17.068  0.00  0.00     0.275 HD
HETATM    5  H           1     -32.303  -3.345 -18.369  0.00  0.00     0.275 HD
ENDBRANCH   1   2
BRANCH   1   6
HETATM    6  C           1     -31.411  -4.517 -16.188  0.00  0.00     0.079 C 
BRANCH   6   7
HETATM    7  C           1     -30.555  -5.346 -17.092  0.00  0.00    -0.056 A 
HETATM    8  C           1     -30.876  -6.684 -17.322  0.00  0.00     0.010 A 
HETATM    9  C           1     -30.077  -7.458 -18.165  0.00  0.00     0.037 A 
HETATM   10  C           1     -28.957  -6.894 -18.777  0.00  0.00     0.065 A 
HETATM   11  C           1     -28.635  -5.556 -18.545  0.00  0.00     0.037 A 
HETATM   12  C           1     -29.434  -4.783 -17.702  0.00  0.00     0.010 A 
BRANCH  10  13
HETATM   13  O           1     -28.181  -7.645 -19.594  0.00  0.00    -0.361 OA
HETATM   14  H           1     -28.034  -7.144 -20.413  0.00  0.00     0.217 HD
ENDBRANCH  10  13
ENDBRANCH   6   7
ENDBRANCH   1   6
BRANCH   1  15
HETATM   15  C           1     -33.802  -4.407 -15.552  0.00  0.00     0.130 C 
HETATM   16  N           1     -33.343  -4.051 -14.312  0.00  0.00    -0.359 N 
HETATM   17  H           1     -32.360  -3.853 -14.173  0.00  0.00     0.162 HD
HETATM   18  O           1     -34.974  -4.644 -15.717  0.00  0.00    -0.397 OA
BRANCH  16  19
HETATM   19  C           1     -34.266  -3.956 -13.197  0.00  0.00     0.184 C 
BRANCH  19  20
HETATM   20  C           1     -33.651  -4.620 -11.971  0.00  0.00     0.040 C 
BRANCH  20  21
HETATM   21  C           1     -34.636  -5.626 -11.390  0.00  0.00    -0.018 C 
HETATM   22  C           1     -35.658  -4.897 -10.527  0.00  0.00     0.289 C 
HETATM   23  C           1     -33.883  -6.638 -10.537  0.00  0.00     0.009 C 
ENDBRANCH  20  21
ENDBRANCH  19  20
BRANCH  19  24
HETATM   24  C           1     -34.543  -2.504 -12.896  0.00  0.00     0.196 C 
HETATM   25  O           1     -35.106  -1.784 -13.748  0.00  0.00    -0.646 OA
HETATM   26  O           1     -34.207  -2.020 -11.793  0.00  0.00    -0.646 OA
ENDBRANCH  19  24
ENDBRANCH  16  19
ENDBRANCH   1  15
TORSDOF 9
ENDMDL
MODEL 4
REMARK VINA RESULT:      -6.9      2.196      7.834
REMARK  9 active torsions:
REMARK  status: ('A' for Active; 'I' for Inactive)
REMARK    1  A    between atoms: N_3  and  C_26 
REMARK       I    between atoms: N_3  and  C_23 
REMARK    2  A    between atoms: C_4  and  C_16 
REMARK    3  A    between atoms: O_5  and  C_18 
REMARK    4  A    between atoms: C_7  and  C_13 
REMARK    5  A    between atoms: N_10  and  C_17 
REMARK    6  A    between atoms: C_13  and  C_26 
REMARK    7  A    between atoms: C_16  and  C_17 
REMARK    8  A    between atoms: C_17  and  C_23 
REMARK    9  A    between atoms: C_25  and  C_26 
ROOT
HETATM    1  C           1     -21.226  -5.784  -6.548  0.00  0.00     0.260 C 
ENDROOT
BRANCH   1   2
HETATM    2  N           1     -20.094  -6.377  -7.334  0.00  0.00    -0.067 N 
HETATM    3  H           1     -19.590  -7.077  -6.745  0.00  0.00     0.275 HD
HETATM    4  H           1     -20.471  -6.846  -8.188  0.00  0.00     0.275 HD
HETATM    5  H           1     -19.432  -5.618  -7.617  0.00  0.00     0.275 HD
ENDBRANCH   1   2
BRANCH   1   6
HETATM    6  C           1     -20.721  -5.353  -5.178  0.00  0.00     0.079 C 
BRANCH   6   7
HETATM    7  C           1     -21.098  -6.383  -4.160  0.00  0.00    -0.056 A 
HETATM    8  C           1     -21.473  -5.989  -2.875  0.00  0.00     0.010 A 
HETATM    9  C           1     -21.824  -6.950  -1.926  0.00  0.00     0.037 A 
HETATM   10  C           1     -21.799  -8.304  -2.261  0.00  0.00     0.065 A 
HETATM   11  C           1     -21.423  -8.697  -3.546  0.00  0.00     0.037 A 
HETATM   12  C           1     -21.072  -7.737  -4.495  0.00  0.00     0.010 A 
BRANCH  10  13
HETATM   13  O           1     -22.139  -9.236  -1.340  0.00  0.00    -0.361 OA
HETATM   14  H           1     -22.773  -8.833  -0.723  0.00  0.00     0.217 HD
ENDBRANCH  10  13
ENDBRANCH   6   7
ENDBRANCH   1   6
BRANCH   1  15
HETATM   15  C           1     -21.775  -4.586  -7.283  0.00  0.00     0.130 C 
HETATM   16  N           1     -22.615  -4.763  -8.350  0.00  0.00    -0.359 N 
HETATM   17  H           1     -22.867  -5.698  -8.646  0.00  0.00     0.162 HD
HETATM   18  O           1     -21.473  -3.471  -6.931  0.00  0.00    -0.397 OA
BRANCH  16  19
HETATM   19  C           1     -23.143  -3.612  -9.056  0.00  0.00     0.184 C 
BRANCH  19  20
HETATM   20  C           1     -22.169  -3.198 -10.152  0.00  0.00     0.040 C 
BRANCH  20  21
HETATM   21  C           1     -21.632  -4.440 -10.852  0.00  0.00    -0.018 C 
HETATM   22  C           1     -20.115  -4.478 -10.727  0.00  0.00     0.289 C 
HETATM   23  C           1     -22.018  -4.398 -12.325  0.00  0.00     0.009 C 
ENDBRANCH  20  21
ENDBRANCH  19  20
BRANCH  19  24
HETATM   24  C           1     -24.472  -3.967  -9.674  0.00  0.00     0.196 C 
HETATM   25  O           1     -25.225  -3.066 -10.101  0.00  0.00    -0.646 OA
HETATM   26  O           1     -24.821  -5.164  -9.758  0.00  0.00    -0.646 OA
ENDBRANCH  19  24
ENDBRANCH  16  19
ENDBRANCH   1  15
TORSDOF 9
ENDMDL
MODEL 5
REMARK VINA RESULT:      -6.8      1.836      2.752
REMARK  9 active torsions:
REMARK  status: ('A' for Active; 'I' for Inactive)
REMARK    1  A    between atoms: N_3  and  C_26 
REMARK       I    between atoms: N_3  and  C_23 
REMARK    2  A    between atoms: C_4  and  C_16 
REMARK    3  A    between atoms: O_5  and  C_18 
REMARK    4  A    between atoms: C_7  and  C_13 
REMARK    5  A    between atoms: N_10  and  C_17 
REMARK    6  A    between atoms: C_13  and  C_26 
REMARK    7  A    between atoms: C_16  and  C_17 
REMARK    8  A    between atoms: C_17  and  C_23 
REMARK    9  A    between atoms: C_25  and  C_26 
ROOT
HETATM    1  C           1     -20.395  -5.171  -6.475  0.00  0.00     0.260 C 
ENDROOT
BRANCH   1   2
HETATM    2  N           1     -20.042  -6.041  -7.645  0.00  0.00    -0.067 N 
HETATM    3  H           1     -20.877  -6.149  -8.264  0.00  0.00     0.275 HD
HETATM    4  H           1     -19.264  -5.599  -8.185  0.00  0.00     0.275 HD
HETATM    5  H           1     -19.738  -6.980  -7.301  0.00  0.00     0.275 HD
ENDBRANCH   1   2
BRANCH   1   6
HETATM    6  C           1     -21.113  -3.922  -6.970  0.00  0.00     0.079 C 
BRANCH   6   7
HETATM    7  C           1     -21.413  -4.063  -8.429  0.00  0.00    -0.056 A 
HETATM    8  C           1     -20.397  -3.889  -9.370  0.00  0.00     0.010 A 
HETATM    9  C           1     -20.677  -4.021 -10.730  0.00  0.00     0.037 A 
HETATM   10  C           1     -21.972  -4.325 -11.151  0.00  0.00     0.065 A 
HETATM   11  C           1     -22.988  -4.498 -10.210  0.00  0.00     0.037 A 
HETATM   12  C           1     -22.707  -4.367  -8.849  0.00  0.00     0.010 A 
BRANCH  10  13
HETATM   13  O           1     -22.243  -4.452 -12.471  0.00  0.00    -0.361 OA
HETATM   14  H           1     -23.096  -4.909 -12.560  0.00  0.00     0.217 HD
ENDBRANCH  10  13
ENDBRANCH   6   7
ENDBRANCH   1   6
BRANCH   1  15
HETATM   15  C           1     -21.299  -5.933  -5.537  0.00  0.00     0.130 C 
HETATM   16  N           1     -20.765  -6.823  -4.645  0.00  0.00    -0.359 N 
HETATM   17  H           1     -19.764  -6.971  -4.614  0.00  0.00     0.162 HD
HETATM   18  O           1     -22.493  -5.758  -5.575  0.00  0.00    -0.397 OA
BRANCH  16  19
HETATM   19  C           1     -21.633  -7.556  -3.744  0.00  0.00     0.184 C 
BRANCH  19  20
HETATM   20  C           1     -21.130  -8.987  -3.605  0.00  0.00     0.040 C 
BRANCH  20  21
HETATM   21  C           1     -19.773  -9.117  -4.284  0.00  0.00    -0.018 C 
HETATM   22  C           1     -19.807 -10.277  -5.271  0.00  0.00     0.289 C 
HETATM   23  C           1     -18.703  -9.379  -3.232  0.00  0.00     0.009 C 
ENDBRANCH  20  21
ENDBRANCH  19  20
BRANCH  19  24
HETATM   24  C           1     -21.630  -6.889  -2.390  0.00  0.00     0.196 C 
HETATM   25  O           1     -20.988  -7.395  -1.445  0.00  0.00    -0.646 OA
HETATM   26  O           1     -22.271  -5.831  -2.214  0.00  0.00    -0.646 OA
ENDBRANCH  19  24
ENDBRANCH  16  19
ENDBRANCH   1  15
TORSDOF 9
ENDMDL
MODEL 6
REMARK VINA RESULT:      -6.7     13.604     15.991
REMARK  9 active torsions:
REMARK  status: ('A' for Active; 'I' for Inactive)
REMARK    1  A    between atoms: N_3  and  C_26 
REMARK       I    between atoms: N_3  and  C_23 
REMARK    2  A    between atoms: C_4  and  C_16 
REMARK    3  A    between atoms: O_5  and  C_18 
REMARK    4  A    between atoms: C_7  and  C_13 
REMARK    5  A    between atoms: N_10  and  C_17 
REMARK    6  A    between atoms: C_13  and  C_26 
REMARK    7  A    between atoms: C_16  and  C_17 
REMARK    8  A    between atoms: C_17  and  C_23 
REMARK    9  A    between atoms: C_25  and  C_26 
ROOT
HETATM    1  C           1     -36.658  -0.913 -10.623  0.00  0.00     0.260 C 
ENDROOT
BRANCH   1   2
HETATM    2  N           1     -36.935  -0.679  -9.167  0.00  0.00    -0.067 N 
HETATM    3  H           1     -37.813  -0.122  -9.065  0.00  0.00     0.275 HD
HETATM    4  H           1     -37.047  -1.597  -8.682  0.00  0.00     0.275 HD
HETATM    5  H           1     -36.137  -0.154  -8.742  0.00  0.00     0.275 HD
ENDBRANCH   1   2
BRANCH   1   6
HETATM    6  C           1     -36.325   0.412 -11.296  0.00  0.00     0.079 C 
BRANCH   6   7
HETATM    7  C           1     -36.328   0.233 -12.781  0.00  0.00    -0.056 A 
HETATM    8  C           1     -37.505  -0.128 -13.438  0.00  0.00     0.010 A 
HETATM    9  C           1     -37.508  -0.295 -14.823  0.00  0.00     0.037 A 
HETATM   10  C           1     -36.334  -0.102 -15.551  0.00  0.00     0.065 A 
HETATM   11  C           1     -35.157   0.258 -14.895  0.00  0.00     0.037 A 
HETATM   12  C           1     -35.155   0.425 -13.510  0.00  0.00     0.010 A 
BRANCH  10  13
HETATM   13  O           1     -36.337  -0.265 -16.896  0.00  0.00    -0.361 OA
HETATM   14  H           1     -37.125   0.178 -17.251  0.00  0.00     0.217 HD
ENDBRANCH  10  13
ENDBRANCH   6   7
ENDBRANCH   1   6
BRANCH   1  15
HETATM   15  C           1     -35.491  -1.859 -10.767  0.00  0.00     0.130 C 
HETATM   16  N           1     -35.647  -3.041 -11.437  0.00  0.00    -0.359 N 
HETATM   17  H           1     -36.545  -3.283 -11.838  0.00  0.00     0.162 HD
HETATM   18  O           1     -34.419  -1.573 -10.288  0.00  0.00    -0.397 OA
BRANCH  16  19
HETATM   19  C           1     -34.525  -3.951 -11.576  0.00  0.00     0.184 C 
BRANCH  19  20
HETATM   20  C           1     -35.015  -5.387 -11.439  0.00  0.00     0.040 C 
BRANCH  20  21
HETATM   21  C           1     -34.235  -6.088 -10.335  0.00  0.00    -0.018 C 
HETATM   22  C           1     -32.951  -6.670 -10.910  0.00  0.00     0.289 C 
HETATM   23  C           1     -35.082  -7.210  -9.749  0.00  0.00     0.009 C 
ENDBRANCH  20  21
ENDBRANCH  19  20
BRANCH  19  24
HETATM   24  C           1     -33.891  -3.764 -12.932  0.00  0.00     0.196 C 
HETATM   25  O           1     -32.727  -4.170 -13.139  0.00  0.00    -0.646 OA
HETATM   26  O           1     -34.529  -3.201 -13.847  0.00  0.00    -0.646 OA
ENDBRANCH  19  24
ENDBRANCH  16  19
ENDBRANCH   1  15
TORSDOF 9
ENDMDL
MODEL 7
REMARK VINA RESULT:      -6.7     13.613     17.389
REMARK  9 active torsions:
REMARK  status: ('A' for Active; 'I' for Inactive)
REMARK    1  A    between atoms: N_3  and  C_26 
REMARK       I    between atoms: N_3  and  C_23 
REMARK    2  A    between atoms: C_4  and  C_16 
REMARK    3  A    between atoms: O_5  and  C_18 
REMARK    4  A    between atoms: C_7  and  C_13 
REMARK    5  A    between atoms: N_10  and  C_17 
REMARK    6  A    between atoms: C_13  and  C_26 
REMARK    7  A    between atoms: C_16  and  C_17 
REMARK    8  A    between atoms: C_17  and  C_23 
REMARK    9  A    between atoms: C_25  and  C_26 
ROOT
HETATM    1  C           1     -35.706  -0.701 -11.261  0.00  0.00     0.260 C 
ENDROOT
BRANCH   1   2
HETATM    2  N           1     -36.379   0.453 -10.580  0.00  0.00    -0.067 N 
HETATM    3  H           1     -37.041   0.094  -9.856  0.00  0.00     0.275 HD
HETATM    4  H           1     -35.658   1.057 -10.124  0.00  0.00     0.275 HD
HETATM    5  H           1     -36.907   1.015 -11.287  0.00  0.00     0.275 HD
ENDBRANCH   1   2
BRANCH   1   6
HETATM    6  C           1     -36.075  -1.996 -10.549  0.00  0.00     0.079 C 
BRANCH   6   7
HETATM    7  C           1     -35.060  -3.048 -10.866  0.00  0.00    -0.056 A 
HETATM    8  C           1     -35.435  -4.392 -10.899  0.00  0.00     0.010 A 
HETATM    9  C           1     -34.487  -5.372 -11.195  0.00  0.00     0.037 A 
HETATM   10  C           1     -33.166  -5.011 -11.458  0.00  0.00     0.065 A 
HETATM   11  C           1     -32.791  -3.667 -11.424  0.00  0.00     0.037 A 
HETATM   12  C           1     -33.739  -2.686 -11.128  0.00  0.00     0.010 A 
BRANCH  10  13
HETATM   13  O           1     -32.247  -5.963 -11.744  0.00  0.00    -0.361 OA
HETATM   14  H           1     -31.613  -5.588 -12.378  0.00  0.00     0.217 HD
ENDBRANCH  10  13
ENDBRANCH   6   7
ENDBRANCH   1   6
BRANCH   1  15
HETATM   15  C           1     -36.159  -0.770 -12.699  0.00  0.00     0.130 C 
HETATM   16  N           1     -35.237  -0.722 -13.709  0.00  0.00    -0.359 N 
HETATM   17  H           1     -34.251  -0.640 -13.493  0.00  0.00     0.162 HD
HETATM   18  O           1     -37.334  -0.867 -12.958  0.00  0.00    -0.397 OA
BRANCH  16  19
HETATM   19  C           1     -35.672  -0.788 -15.092  0.00  0.00     0.184 C 
BRANCH  19  20
HETATM   20  C           1     -35.311   0.512 -15.800  0.00  0.00     0.040 C 
BRANCH  20  21
HETATM   21  C           1     -36.428   1.528 -15.598  0.00  0.00    -0.018 C 
HETATM   22  C           1     -37.771   0.872 -15.886  0.00  0.00     0.289 C 
HETATM   23  C           1     -36.223   2.701 -16.548  0.00  0.00     0.009 C 
ENDBRANCH  20  21
ENDBRANCH  19  20
BRANCH  19  24
HETATM   24  C           1     -34.985  -1.942 -15.780  0.00  0.00     0.196 C 
HETATM   25  O           1     -34.686  -2.968 -15.132  0.00  0.00    -0.646 OA
HETATM   26  O           1     -34.714  -1.871 -16.998  0.00  0.00    -0.646 OA
ENDBRANCH  19  24
ENDBRANCH  16  19
ENDBRANCH   1  15
TORSDOF 9
ENDMDL
MODEL 8
REMARK VINA RESULT:      -6.6      1.643      2.178
REMARK  9 active torsions:
REMARK  status: ('A' for Active; 'I' for Inactive)
REMARK    1  A    between atoms: N_3  and  C_26 
REMARK       I    between atoms: N_3  and  C_23 
REMARK    2  A    between atoms: C_4  and  C_16 
REMARK    3  A    between atoms: O_5  and  C_18 
REMARK    4  A    between atoms: C_7  and  C_13 
REMARK    5  A    between atoms: N_10  and  C_17 
REMARK    6  A    between atoms: C_13  and  C_26 
REMARK    7  A    between atoms: C_16  and  C_17 
REMARK    8  A    between atoms: C_17  and  C_23 
REMARK    9  A    between atoms: C_25  and  C_26 
ROOT
HETATM    1  C           1     -21.764  -5.874  -6.702  0.00  0.00     0.260 C 
ENDROOT
BRANCH   1   2
HETATM    2  N           1     -22.696  -5.438  -5.610  0.00  0.00    -0.067 N 
HETATM    3  H           1     -22.878  -4.412  -5.696  0.00  0.00     0.275 HD
HETATM    4  H           1     -23.598  -5.959  -5.693  0.00  0.00     0.275 HD
HETATM    5  H           1     -22.261  -5.638  -4.681  0.00  0.00     0.275 HD
ENDBRANCH   1   2
BRANCH   1   6
HETATM    6  C           1     -20.914  -4.691  -7.145  0.00  0.00     0.079 C 
BRANCH   6   7
HETATM    7  C           1     -21.119  -4.448  -8.607  0.00  0.00    -0.056 A 
HETATM    8  C           1     -20.068  -4.649  -9.502  0.00  0.00     0.010 A 
HETATM    9  C           1     -20.260  -4.421 -10.865  0.00  0.00     0.037 A 
HETATM   10  C           1     -21.501  -3.993 -11.334  0.00  0.00     0.065 A 
HETATM   11  C           1     -22.553  -3.791 -10.438  0.00  0.00     0.037 A 
HETATM   12  C           1     -22.361  -4.018  -9.075  0.00  0.00     0.010 A 
BRANCH  10  13
HETATM   13  O           1     -21.687  -3.772 -12.657  0.00  0.00    -0.361 OA
HETATM   14  H           1     -22.228  -2.971 -12.755  0.00  0.00     0.217 HD
ENDBRANCH  10  13
ENDBRANCH   6   7
ENDBRANCH   1   6
BRANCH   1  15
HETATM   15  C           1     -20.869  -6.975  -6.189  0.00  0.00     0.130 C 
HETATM   16  N           1     -21.362  -7.907  -5.317  0.00  0.00    -0.359 N 
HETATM   17  H           1     -22.328  -7.860  -5.017  0.00  0.00     0.162 HD
HETATM   18  O           1     -19.717  -7.032  -6.547  0.00  0.00    -0.397 OA
BRANCH  16  19
HETATM   19  C           1     -20.502  -8.966  -4.824  0.00  0.00     0.184 C 
BRANCH  19  20
HETATM   20  C           1     -20.413  -8.882  -3.305  0.00  0.00     0.040 C 
BRANCH  20  21
HETATM   21  C           1     -18.994  -9.212  -2.860  0.00  0.00    -0.018 C 
HETATM   22  C           1     -18.094  -9.338  -4.081  0.00  0.00     0.289 C 
HETATM   23  C           1     -18.998 -10.528  -2.094  0.00  0.00     0.009 C 
ENDBRANCH  20  21
ENDBRANCH  19  20
BRANCH  19  24
HETATM   24  C           1     -21.074 -10.304  -5.220  0.00  0.00     0.196 C 
HETATM   25  O           1     -20.822 -10.783  -6.347  0.00  0.00    -0.646 OA
HETATM   26  O           1     -21.800 -10.934  -4.422  0.00  0.00    -0.646 OA
ENDBRANCH  19  24
ENDBRANCH  16  19
ENDBRANCH   1  15
TORSDOF 9
ENDMDL
MODEL 9
REMARK VINA RESULT:      -6.5      2.150      3.340
REMARK  9 active torsions:
REMARK  status: ('A' for Active; 'I' for Inactive)
REMARK    1  A    between atoms: N_3  and  C_26 
REMARK       I    between atoms: N_3  and  C_23 
REMARK    2  A    between atoms: C_4  and  C_16 
REMARK    3  A    between atoms: O_5  and  C_18 
REMARK    4  A    between atoms: C_7  and  C_13 
REMARK    5  A    between atoms: N_10  and  C_17 
REMARK    6  A    between atoms: C_13  and  C_26 
REMARK    7  A    between atoms: C_16  and  C_17 
REMARK    8  A    between atoms: C_17  and  C_23 
REMARK    9  A    between atoms: C_25  and  C_26 
ROOT
HETATM    1  C           1     -21.686  -6.320  -4.934  0.00  0.00     0.260 C 
ENDROOT
BRANCH   1   2
HETATM    2  N           1     -22.120  -6.093  -3.516  0.00  0.00    -0.067 N 
HETATM    3  H           1     -22.818  -6.822  -3.244  0.00  0.00     0.275 HD
HETATM    4  H           1     -21.290  -6.153  -2.884  0.00  0.00     0.275 HD
HETATM    5  H           1     -22.554  -5.146  -3.432  0.00  0.00     0.275 HD
ENDBRANCH   1   2
BRANCH   1   6
HETATM    6  C           1     -20.698  -5.235  -5.341  0.00  0.00     0.079 C 
BRANCH   6   7
HETATM    7  C           1     -20.949  -4.837  -6.761  0.00  0.00    -0.056 A 
HETATM    8  C           1     -19.897  -4.824  -7.678  0.00  0.00     0.010 A 
HETATM    9  C           1     -20.132  -4.453  -9.002  0.00  0.00     0.037 A 
HETATM   10  C           1     -21.417  -4.095  -9.410  0.00  0.00     0.065 A 
HETATM   11  C           1     -22.468  -4.108  -8.493  0.00  0.00     0.037 A 
HETATM   12  C           1     -22.234  -4.479  -7.168  0.00  0.00     0.010 A 
BRANCH  10  13
HETATM   13  O           1     -21.645  -3.734 -10.695  0.00  0.00    -0.361 OA
HETATM   14  H           1     -21.102  -2.952 -10.889  0.00  0.00     0.217 HD
ENDBRANCH  10  13
ENDBRANCH   6   7
ENDBRANCH   1   6
BRANCH   1  15
HETATM   15  C           1     -21.027  -7.672  -5.048  0.00  0.00     0.130 C 
HETATM   16  N           1     -20.343  -8.192  -3.982  0.00  0.00    -0.359 N 
HETATM   17  H           1     -20.280  -7.670  -3.117  0.00  0.00     0.162 HD
HETATM   18  O           1     -21.100  -8.294  -6.081  0.00  0.00    -0.397 OA
BRANCH  16  19
HETATM   19  C           1     -19.709  -9.492  -4.092  0.00  0.00     0.184 C 
BRANCH  19  20
HETATM   20  C           1     -18.290  -9.412  -3.542  0.00  0.00     0.040 C 
BRANCH  20  21
HETATM   21  C           1     -17.340 -10.146  -4.480  0.00  0.00    -0.018 C 
HETATM   22  C           1     -15.903  -9.761  -4.151  0.00  0.00     0.289 C 
HETATM   23  C           1     -17.651  -9.760  -5.920  0.00  0.00     0.009 C 
ENDBRANCH  20  21
ENDBRANCH  19  20
BRANCH  19  24
HETATM   24  C           1     -20.498 -10.505  -3.300  0.00  0.00     0.196 C 
HETATM   25  O           1     -21.483 -11.074  -3.818  0.00  0.00    -0.646 OA
HETATM   26  O           1     -20.167 -10.774  -2.126  0.00  0.00    -0.646 OA
ENDBRANCH  19  24
ENDBRANCH  16  19
ENDBRANCH   1  15
TORSDOF 9
ENDMDL
