MODEL 1
REMARK VINA RESULT:      -6.2      0.000      0.000
REMARK  8 active torsions:
REMARK  status: ('A' for Active; 'I' for Inactive)
REMARK    1  A    between atoms: C_4  and  S_11 
REMARK    2  A    between atoms: C_4  and  C_5 
REMARK    3  A    between atoms: C_5  and  C_13 
REMARK    4  A    between atoms: C_5  and  N_23 
REMARK    5  A    between atoms: N_8  and  C_22 
REMARK    6  A    between atoms: C_12  and  C_14 
REMARK    7  A    between atoms: C_14  and  C_22 
REMARK    8  A    between atoms: C_22  and  C_24 
REMARK       I    between atoms: N_23  and  C_24 
ROOT
HETATM    1  C           1     -34.126  -4.091 -12.501  0.00  0.00     0.280 C 
ENDROOT
BRANCH   1   2
HETATM    2  N           1     -33.665  -4.185 -13.926  0.00  0.00    -0.066 N 
HETATM    3  H           1     -34.447  -4.539 -14.522  0.00  0.00     0.275 HD
HETATM    4  H           1     -33.374  -3.238 -14.260  0.00  0.00     0.275 HD
HETATM    5  H           1     -32.854  -4.842 -13.987  0.00  0.00     0.275 HD
ENDBRANCH   1   2
BRANCH   1   6
HETATM    6  C           1     -33.119  -4.789 -11.596  0.00  0.00     0.101 C 
BRANCH   6   7
HETATM    7  C           1     -33.793  -5.912 -10.872  0.00  0.00     0.028 A 
HETATM    8  N           1     -33.333  -7.203 -10.833  0.00  0.00    -0.355 N 
HETATM    9  C           1     -34.204  -7.860 -10.102  0.00  0.00     0.180 A 
ATOM     10  HN          1     -32.493  -7.574 -11.277  1.00  0.00     0.166 HD
HETATM   11  N           1     -35.208  -7.043  -9.667  0.00  0.00    -0.360 N 
HETATM   12  C           1     -34.958  -5.790 -10.152  0.00  0.00     0.114 A 
HETATM   13  H           1     -36.023  -7.327  -9.067  0.00  0.00     0.166 HD
ENDBRANCH   6   7
ENDBRANCH   1   6
BRANCH   1  14
HETATM   14  C           1     -34.239  -2.640 -12.104  0.00  0.00     0.249 C 
HETATM   15  O           1     -33.755  -2.258 -11.065  0.00  0.00    -0.271 OA
HETATM   16  N           1     -34.891  -1.755 -12.922  0.00  0.00    -0.344 N 
HETATM   17  H           1     -35.296  -2.075 -13.792  0.00  0.00     0.163 HD
BRANCH  16  18
HETATM   18  C           1     -34.999  -0.360 -12.539  0.00  0.00     0.194 C 
BRANCH  18  19
HETATM   19  C           1     -35.054   0.507 -13.791  0.00  0.00     0.106 C 
BRANCH  19  20
HETATM   20  S           1     -35.609  -0.495 -15.198  0.00  0.00    -0.180 SA
HETATM   21  H           1     -34.566  -0.206 -15.997  0.00  0.00     0.101 HD
ENDBRANCH  19  20
ENDBRANCH  18  19
BRANCH  18  22
HETATM   22  C           1     -36.258  -0.158 -11.733  0.00  0.00     0.197 C 
HETATM   23  O           1     -37.338  -0.655 -12.123  0.00  0.00    -0.646 OA
HETATM   24  O           1     -36.223   0.505 -10.674  0.00  0.00    -0.646 OA
ENDBRANCH  18  22
ENDBRANCH  16  18
ENDBRANCH   1  14
TORSDOF 8
ENDMDL
MODEL 2
REMARK VINA RESULT:      -5.8      2.362      3.199
REMARK  8 active torsions:
REMARK  status: ('A' for Active; 'I' for Inactive)
REMARK    1  A    between atoms: C_4  and  S_11 
REMARK    2  A    between atoms: C_4  and  C_5 
REMARK    3  A    between atoms: C_5  and  C_13 
REMARK    4  A    between atoms: C_5  and  N_23 
REMARK    5  A    between atoms: N_8  and  C_22 
REMARK    6  A    between atoms: C_12  and  C_14 
REMARK    7  A    between atoms: C_14  and  C_22 
REMARK    8  A    between atoms: C_22  and  C_24 
REMARK       I    between atoms: N_23  and  C_24 
ROOT
HETATM    1  C           1     -34.519  -2.378 -11.849  0.00  0.00     0.280 C 
ENDROOT
BRANCH   1   2
HETATM    2  N           1     -33.882  -1.384 -10.923  0.00  0.00    -0.066 N 
HETATM    3  H           1     -34.157  -0.417 -11.207  0.00  0.00     0.275 HD
HETATM    4  H           1     -34.203  -1.565  -9.945  0.00  0.00     0.275 HD
HETATM    5  H           1     -32.842  -1.480 -10.972  0.00  0.00     0.275 HD
ENDBRANCH   1   2
BRANCH   1   6
HETATM    6  C           1     -35.315  -3.390 -11.036  0.00  0.00     0.101 C 
BRANCH   6   7
HETATM    7  C           1     -34.573  -4.690 -10.993  0.00  0.00     0.028 A 
HETATM    8  N           1     -35.026  -5.827 -10.374  0.00  0.00    -0.355 N 
HETATM    9  C           1     -34.088  -6.725 -10.570  0.00  0.00     0.180 A 
ATOM     10  HN          1     -35.904  -5.949  -9.870  1.00  0.00     0.166 HD
HETATM   11  N           1     -33.048  -6.212 -11.291  0.00  0.00    -0.360 N 
HETATM   12  C           1     -33.345  -4.907 -11.571  0.00  0.00     0.114 A 
HETATM   13  H           1     -32.179  -6.728 -11.580  0.00  0.00     0.166 HD
ENDBRANCH   6   7
ENDBRANCH   1   6
BRANCH   1  14
HETATM   14  C           1     -35.444  -1.657 -12.799  0.00  0.00     0.249 C 
HETATM   15  O           1     -36.590  -1.444 -12.482  0.00  0.00    -0.271 OA
HETATM   16  N           1     -34.984  -1.245 -14.022  0.00  0.00    -0.344 N 
HETATM   17  H           1     -34.024  -1.425 -14.287  0.00  0.00     0.163 HD
BRANCH  16  18
HETATM   18  C           1     -35.873  -0.553 -14.935  0.00  0.00     0.194 C 
BRANCH  18  19
HETATM   19  C           1     -35.454   0.907 -15.043  0.00  0.00     0.106 C 
BRANCH  19  20
HETATM   20  S           1     -34.488   1.370 -13.578  0.00  0.00    -0.180 SA
HETATM   21  H           1     -33.392   1.763 -14.252  0.00  0.00     0.101 HD
ENDBRANCH  19  20
ENDBRANCH  18  19
BRANCH  18  22
HETATM   22  C           1     -35.796  -1.200 -16.296  0.00  0.00     0.197 C 
HETATM   23  O           1     -35.017  -2.159 -16.490  0.00  0.00    -0.646 OA
HETATM   24  O           1     -36.511  -0.778 -17.230  0.00  0.00    -0.646 OA
ENDBRANCH  18  22
ENDBRANCH  16  18
ENDBRANCH   1  14
TORSDOF 8
ENDMDL
MODEL 3
REMARK VINA RESULT:      -5.7      3.070      6.486
REMARK  8 active torsions:
REMARK  status: ('A' for Active; 'I' for Inactive)
REMARK    1  A    between atoms: C_4  and  S_11 
REMARK    2  A    between atoms: C_4  and  C_5 
REMARK    3  A    between atoms: C_5  and  C_13 
REMARK    4  A    between atoms: C_5  and  N_23 
REMARK    5  A    between atoms: N_8  and  C_22 
REMARK    6  A    between atoms: C_12  and  C_14 
REMARK    7  A    between atoms: C_14  and  C_22 
REMARK    8  A    between atoms: C_22  and  C_24 
REMARK       I    between atoms: N_23  and  C_24 
ROOT
HETATM    1  C           1     -35.975  -0.444 -11.686  0.00  0.00     0.280 C 
ENDROOT
BRANCH   1   2
HETATM    2  N           1     -36.257   0.402 -10.480  0.00  0.00    -0.066 N 
HETATM    3  H           1     -36.229   1.412 -10.749  0.00  0.00     0.275 HD
HETATM    4  H           1     -37.204   0.168 -10.106  0.00  0.00     0.275 HD
HETATM    5  H           1     -35.535   0.216  -9.747  0.00  0.00     0.275 HD
ENDBRANCH   1   2
BRANCH   1   6
HETATM    6  C           1     -35.275   0.399 -12.744  0.00  0.00     0.101 C 
BRANCH   6   7
HETATM    7  C           1     -36.057   0.349 -14.020  0.00  0.00     0.028 A 
HETATM    8  N           1     -37.419   0.206 -14.095  0.00  0.00    -0.355 N 
HETATM    9  C           1     -37.698   0.210 -15.378  0.00  0.00     0.180 A 
ATOM     10  HN          1     -38.075   0.116 -13.319  1.00  0.00     0.166 HD
HETATM   11  N           1     -36.570   0.350 -16.134  0.00  0.00    -0.360 N 
HETATM   12  C           1     -35.509   0.441 -15.277  0.00  0.00     0.114 A 
HETATM   13  H           1     -36.525   0.383 -17.184  0.00  0.00     0.166 HD
ENDBRANCH   6   7
ENDBRANCH   1   6
BRANCH   1  14
HETATM   14  C           1     -35.086  -1.598 -11.293  0.00  0.00     0.249 C 
HETATM   15  O           1     -34.235  -1.445 -10.450  0.00  0.00    -0.271 OA
HETATM   16  N           1     -35.243  -2.820 -11.892  0.00  0.00    -0.344 N 
HETATM   17  H           1     -35.957  -2.948 -12.599  0.00  0.00     0.163 HD
BRANCH  16  18
HETATM   18  C           1     -34.388  -3.928 -11.514  0.00  0.00     0.194 C 
BRANCH  18  19
HETATM   19  C           1     -35.211  -5.209 -11.460  0.00  0.00     0.106 C 
BRANCH  19  20
HETATM   20  S           1     -34.357  -6.434 -10.429  0.00  0.00    -0.180 SA
HETATM   21  H           1     -33.936  -7.205 -11.447  0.00  0.00     0.101 HD
ENDBRANCH  19  20
ENDBRANCH  18  19
BRANCH  18  22
HETATM   22  C           1     -33.287  -4.081 -12.533  0.00  0.00     0.197 C 
HETATM   23  O           1     -32.129  -4.377 -12.164  0.00  0.00    -0.646 OA
HETATM   24  O           1     -33.531  -3.914 -13.748  0.00  0.00    -0.646 OA
ENDBRANCH  18  22
ENDBRANCH  16  18
ENDBRANCH   1  14
TORSDOF 8
ENDMDL
MODEL 4
REMARK VINA RESULT:      -5.7     12.566     13.860
REMARK  8 active torsions:
REMARK  status: ('A' for Active; 'I' for Inactive)
REMARK    1  A    between atoms: C_4  and  S_11 
REMARK    2  A    between atoms: C_4  and  C_5 
REMARK    3  A    between atoms: C_5  and  C_13 
REMARK    4  A    between atoms: C_5  and  N_23 
REMARK    5  A    between atoms: N_8  and  C_22 
REMARK    6  A    between atoms: C_12  and  C_14 
REMARK    7  A    between atoms: C_14  and  C_22 
REMARK    8  A    between atoms: C_22  and  C_24 
REMARK       I    between atoms: N_23  and  C_24 
ROOT
HETATM    1  C           1     -21.212  -5.909  -7.155  0.00  0.00     0.280 C 
ENDROOT
BRANCH   1   2
HETATM    2  N           1     -19.728  -5.927  -7.373  0.00  0.00    -0.066 N 
HETATM    3  H           1     -19.420  -6.900  -7.597  0.00  0.00     0.275 HD
HETATM    4  H           1     -19.485  -5.293  -8.167  0.00  0.00     0.275 HD
HETATM    5  H           1     -19.245  -5.600  -6.505  0.00  0.00     0.275 HD
ENDBRANCH   1   2
BRANCH   1   6
HETATM    6  C           1     -21.505  -5.852  -5.662  0.00  0.00     0.101 C 
BRANCH   6   7
HETATM    7  C           1     -21.335  -7.215  -5.067  0.00  0.00     0.028 A 
HETATM    8  N           1     -21.257  -8.377  -5.790  0.00  0.00    -0.355 N 
HETATM    9  C           1     -21.111  -9.331  -4.899  0.00  0.00     0.180 A 
ATOM     10  HN          1     -21.302  -8.480  -6.804  1.00  0.00     0.166 HD
HETATM   11  N           1     -21.091  -8.829  -3.629  0.00  0.00    -0.360 N 
HETATM   12  C           1     -21.233  -7.472  -3.721  0.00  0.00     0.114 A 
HETATM   13  H           1     -20.985  -9.385  -2.743  0.00  0.00     0.166 HD
ENDBRANCH   6   7
ENDBRANCH   1   6
BRANCH   1  14
HETATM   14  C           1     -21.804  -4.697  -7.832  0.00  0.00     0.249 C 
HETATM   15  O           1     -21.864  -3.645  -7.242  0.00  0.00    -0.271 OA
HETATM   16  N           1     -22.274  -4.791  -9.115  0.00  0.00    -0.344 N 
HETATM   17  H           1     -22.225  -5.673  -9.609  0.00  0.00     0.163 HD
BRANCH  16  18
HETATM   18  C           1     -22.844  -3.626  -9.765  0.00  0.00     0.194 C 
BRANCH  18  19
HETATM   19  C           1     -22.034  -3.293 -11.011  0.00  0.00     0.106 C 
BRANCH  19  20
HETATM   20  S           1     -20.449  -4.173 -10.956  0.00  0.00    -0.180 SA
HETATM   21  H           1     -19.922  -3.450  -9.951  0.00  0.00     0.101 HD
ENDBRANCH  19  20
ENDBRANCH  18  19
BRANCH  18  22
HETATM   22  C           1     -24.271  -3.919 -10.156  0.00  0.00     0.197 C 
HETATM   23  O           1     -24.906  -3.106 -10.864  0.00  0.00    -0.646 OA
HETATM   24  O           1     -24.821  -4.975  -9.773  0.00  0.00    -0.646 OA
ENDBRANCH  18  22
ENDBRANCH  16  18
ENDBRANCH   1  14
TORSDOF 8
ENDMDL
MODEL 5
REMARK VINA RESULT:      -5.6     13.517     15.470
REMARK  8 active torsions:
REMARK  status: ('A' for Active; 'I' for Inactive)
REMARK    1  A    between atoms: C_4  and  S_11 
REMARK    2  A    between atoms: C_4  and  C_5 
REMARK    3  A    between atoms: C_5  and  C_13 
REMARK    4  A    between atoms: C_5  and  N_23 
REMARK    5  A    between atoms: N_8  and  C_22 
REMARK    6  A    between atoms: C_12  and  C_14 
REMARK    7  A    between atoms: C_14  and  C_22 
REMARK    8  A    between atoms: C_22  and  C_24 
REMARK       I    between atoms: N_23  and  C_24 
ROOT
HETATM    1  C           1     -21.301  -4.726  -6.701  0.00  0.00     0.280 C 
ENDROOT
BRANCH   1   2
HETATM    2  N           1     -19.846  -4.524  -6.398  0.00  0.00    -0.066 N 
HETATM    3  H           1     -19.477  -3.734  -6.973  0.00  0.00     0.275 HD
HETATM    4  H           1     -19.729  -4.301  -5.384  0.00  0.00     0.275 HD
HETATM    5  H           1     -19.318  -5.398  -6.627  0.00  0.00     0.275 HD
ENDBRANCH   1   2
BRANCH   1   6
HETATM    6  C           1     -21.455  -5.258  -8.119  0.00  0.00     0.101 C 
BRANCH   6   7
HETATM    7  C           1     -22.520  -4.482  -8.830  0.00  0.00     0.028 A 
HETATM    8  N           1     -23.698  -4.071  -8.260  0.00  0.00    -0.355 N 
HETATM    9  C           1     -24.339  -3.432  -9.211  0.00  0.00     0.180 A 
ATOM     10  HN          1     -24.010  -4.229  -7.302  1.00  0.00     0.166 HD
HETATM   11  N           1     -23.620  -3.413 -10.373  0.00  0.00    -0.360 N 
HETATM   12  C           1     -22.451  -4.083 -10.144  0.00  0.00     0.114 A 
HETATM   13  H           1     -23.913  -2.965 -11.277  0.00  0.00     0.166 HD
ENDBRANCH   6   7
ENDBRANCH   1   6
BRANCH   1  14
HETATM   14  C           1     -21.884  -5.719  -5.725  0.00  0.00     0.249 C 
HETATM   15  O           1     -23.082  -5.820  -5.609  0.00  0.00    -0.271 OA
HETATM   16  N           1     -21.055  -6.505  -4.970  0.00  0.00    -0.344 N 
HETATM   17  H           1     -20.051  -6.419  -5.067  0.00  0.00     0.163 HD
BRANCH  16  18
HETATM   18  C           1     -21.615  -7.458  -4.032  0.00  0.00     0.194 C 
BRANCH  18  19
HETATM   19  C           1     -20.800  -8.745  -4.068  0.00  0.00     0.106 C 
BRANCH  19  20
HETATM   20  S           1     -21.884 -10.157  -3.716  0.00  0.00    -0.180 SA
HETATM   21  H           1     -20.897 -11.016  -3.401  0.00  0.00     0.101 HD
ENDBRANCH  19  20
ENDBRANCH  18  19
BRANCH  18  22
HETATM   22  C           1     -21.574  -6.876  -2.641  0.00  0.00     0.197 C 
HETATM   23  O           1     -22.378  -5.976  -2.315  0.00  0.00    -0.646 OA
HETATM   24  O           1     -20.736  -7.294  -1.813  0.00  0.00    -0.646 OA
ENDBRANCH  18  22
ENDBRANCH  16  18
ENDBRANCH   1  14
TORSDOF 8
ENDMDL
MODEL 6
REMARK VINA RESULT:      -5.1     14.151     15.863
REMARK  8 active torsions:
REMARK  status: ('A' for Active; 'I' for Inactive)
REMARK    1  A    between atoms: C_4  and  S_11 
REMARK    2  A    between atoms: C_4  and  C_5 
REMARK    3  A    between atoms: C_5  and  C_13 
REMARK    4  A    between atoms: C_5  and  N_23 
REMARK    5  A    between atoms: N_8  and  C_22 
REMARK    6  A    between atoms: C_12  and  C_14 
REMARK    7  A    between atoms: C_14  and  C_22 
REMARK    8  A    between atoms: C_22  and  C_24 
REMARK       I    between atoms: N_23  and  C_24 
ROOT
HETATM    1  C           1     -22.174  -4.975  -6.981  0.00  0.00     0.280 C 
ENDROOT
BRANCH   1   2
HETATM    2  N           1     -23.588  -4.585  -6.666  0.00  0.00    -0.066 N 
HETATM    3  H           1     -23.588  -3.825  -5.948  0.00  0.00     0.275 HD
HETATM    4  H           1     -24.056  -4.243  -7.535  0.00  0.00     0.275 HD
HETATM    5  H           1     -24.104  -5.415  -6.295  0.00  0.00     0.275 HD
ENDBRANCH   1   2
BRANCH   1   6
HETATM    6  C           1     -21.449  -3.792  -7.608  0.00  0.00     0.101 C 
BRANCH   6   7
HETATM    7  C           1     -21.391  -3.973  -9.093  0.00  0.00     0.028 A 
HETATM    8  N           1     -22.438  -3.743  -9.949  0.00  0.00    -0.355 N 
HETATM    9  C           1     -21.974  -4.017 -11.146  0.00  0.00     0.180 A 
ATOM     10  HN          1     -23.377  -3.427  -9.707  1.00  0.00     0.166 HD
HETATM   11  N           1     -20.668  -4.414 -11.097  0.00  0.00    -0.360 N 
HETATM   12  C           1     -20.280  -4.390  -9.786  0.00  0.00     0.114 A 
HETATM   13  H           1     -20.070  -4.687 -11.918  0.00  0.00     0.166 HD
ENDBRANCH   6   7
ENDBRANCH   1   6
BRANCH   1  14
HETATM   14  C           1     -21.469  -5.381  -5.709  0.00  0.00     0.249 C 
HETATM   15  O           1     -20.373  -4.941  -5.460  0.00  0.00    -0.271 OA
HETATM   16  N           1     -22.074  -6.248  -4.839  0.00  0.00    -0.344 N 
HETATM   17  H           1     -22.993  -6.617  -5.049  0.00  0.00     0.163 HD
BRANCH  16  18
HETATM   18  C           1     -21.396  -6.638  -3.617  0.00  0.00     0.194 C 
BRANCH  18  19
HETATM   19  C           1     -22.311  -6.385  -2.426  0.00  0.00     0.106 C 
BRANCH  19  20
HETATM   20  S           1     -21.800  -7.435  -1.037  0.00  0.00    -0.180 SA
HETATM   21  H           1     -22.286  -6.635  -0.070  0.00  0.00     0.101 HD
ENDBRANCH  19  20
ENDBRANCH  18  19
BRANCH  18  22
HETATM   22  C           1     -21.050  -8.105  -3.683  0.00  0.00     0.197 C 
HETATM   23  O           1     -19.898  -8.491  -3.383  0.00  0.00    -0.646 OA
HETATM   24  O           1     -21.915  -8.936  -4.036  0.00  0.00    -0.646 OA
ENDBRANCH  18  22
ENDBRANCH  16  18
ENDBRANCH   1  14
TORSDOF 8
ENDMDL
MODEL 7
REMARK VINA RESULT:      -5.1     14.247     16.337
REMARK  8 active torsions:
REMARK  status: ('A' for Active; 'I' for Inactive)
REMARK    1  A    between atoms: C_4  and  S_11 
REMARK    2  A    between atoms: C_4  and  C_5 
REMARK    3  A    between atoms: C_5  and  C_13 
REMARK    4  A    between atoms: C_5  and  N_23 
REMARK    5  A    between atoms: N_8  and  C_22 
REMARK    6  A    between atoms: C_12  and  C_14 
REMARK    7  A    between atoms: C_14  and  C_22 
REMARK    8  A    between atoms: C_22  and  C_24 
REMARK       I    between atoms: N_23  and  C_24 
ROOT
HETATM    1  C           1     -20.838  -5.558  -6.139  0.00  0.00     0.280 C 
ENDROOT
BRANCH   1   2
HETATM    2  N           1     -20.114  -4.505  -5.353  0.00  0.00    -0.066 N 
HETATM    3  H           1     -20.143  -3.600  -5.874  0.00  0.00     0.275 HD
HETATM    4  H           1     -20.575  -4.387  -4.423  0.00  0.00     0.275 HD
HETATM    5  H           1     -19.119  -4.796  -5.216  0.00  0.00     0.275 HD
ENDBRANCH   1   2
BRANCH   1   6
HETATM    6  C           1     -20.660  -5.292  -7.628  0.00  0.00     0.101 C 
BRANCH   6   7
HETATM    7  C           1     -21.905  -4.667  -8.176  0.00  0.00     0.028 A 
HETATM    8  N           1     -22.061  -4.243  -9.470  0.00  0.00    -0.355 N 
HETATM    9  C           1     -23.282  -3.765  -9.534  0.00  0.00     0.180 A 
ATOM     10  HN          1     -21.374  -4.290 -10.223  1.00  0.00     0.166 HD
HETATM   11  N           1     -23.921  -3.864  -8.332  0.00  0.00    -0.360 N 
HETATM   12  C           1     -23.051  -4.442  -7.450  0.00  0.00     0.114 A 
HETATM   13  H           1     -24.903  -3.554  -8.123  0.00  0.00     0.166 HD
ENDBRANCH   6   7
ENDBRANCH   1   6
BRANCH   1  14
HETATM   14  C           1     -20.273  -6.916  -5.799  0.00  0.00     0.249 C 
HETATM   15  O           1     -19.410  -7.401  -6.490  0.00  0.00    -0.271 OA
HETATM   16  N           1     -20.741  -7.599  -4.708  0.00  0.00    -0.344 N 
HETATM   17  H           1     -21.466  -7.192  -4.130  0.00  0.00     0.163 HD
BRANCH  16  18
HETATM   18  C           1     -20.199  -8.903  -4.382  0.00  0.00     0.194 C 
BRANCH  18  19
HETATM   19  C           1     -20.059  -9.032  -2.870  0.00  0.00     0.106 C 
BRANCH  19  20
HETATM   20  S           1     -20.945  -7.671  -2.062  0.00  0.00    -0.180 SA
HETATM   21  H           1     -20.947  -6.852  -3.129  0.00  0.00     0.101 HD
ENDBRANCH  19  20
ENDBRANCH  18  19
BRANCH  18  22
HETATM   22  C           1     -21.129  -9.975  -4.894  0.00  0.00     0.197 C 
HETATM   23  O           1     -21.030 -10.379  -6.073  0.00  0.00    -0.646 OA
HETATM   24  O           1     -22.000 -10.460  -4.139  0.00  0.00    -0.646 OA
ENDBRANCH  18  22
ENDBRANCH  16  18
ENDBRANCH   1  14
TORSDOF 8
ENDMDL
MODEL 8
REMARK VINA RESULT:      -4.9     16.363     17.586
REMARK  8 active torsions:
REMARK  status: ('A' for Active; 'I' for Inactive)
REMARK    1  A    between atoms: C_4  and  S_11 
REMARK    2  A    between atoms: C_4  and  C_5 
REMARK    3  A    between atoms: C_5  and  C_13 
REMARK    4  A    between atoms: C_5  and  N_23 
REMARK    5  A    between atoms: N_8  and  C_22 
REMARK    6  A    between atoms: C_12  and  C_14 
REMARK    7  A    between atoms: C_14  and  C_22 
REMARK    8  A    between atoms: C_22  and  C_24 
REMARK       I    between atoms: N_23  and  C_24 
ROOT
HETATM    1  C           1     -20.529  -8.567  -4.617  0.00  0.00     0.280 C 
ENDROOT
BRANCH   1   2
HETATM    2  N           1     -19.938  -9.711  -5.388  0.00  0.00    -0.066 N 
HETATM    3  H           1     -19.644 -10.463  -4.725  0.00  0.00     0.275 HD
HETATM    4  H           1     -20.653 -10.090  -6.049  0.00  0.00     0.275 HD
HETATM    5  H           1     -19.107  -9.375  -5.926  0.00  0.00     0.275 HD
ENDBRANCH   1   2
BRANCH   1   6
HETATM    6  C           1     -21.463  -7.775  -5.522  0.00  0.00     0.101 C 
BRANCH   6   7
HETATM    7  C           1     -20.764  -6.544  -6.008  0.00  0.00     0.028 A 
HETATM    8  N           1     -20.125  -6.436  -7.217  0.00  0.00    -0.355 N 
HETATM    9  C           1     -19.652  -5.211  -7.250  0.00  0.00     0.180 A 
ATOM     10  HN          1     -20.037  -7.153  -7.936  1.00  0.00     0.166 HD
HETATM   11  N           1     -19.961  -4.525  -6.111  0.00  0.00    -0.360 N 
HETATM   12  C           1     -20.674  -5.367  -5.304  0.00  0.00     0.114 A 
HETATM   13  H           1     -19.698  -3.531  -5.894  0.00  0.00     0.166 HD
ENDBRANCH   6   7
ENDBRANCH   1   6
BRANCH   1  14
HETATM   14  C           1     -21.303  -9.103  -3.438  0.00  0.00     0.249 C 
HETATM   15  O           1     -21.996 -10.083  -3.566  0.00  0.00    -0.271 OA
HETATM   16  N           1     -21.221  -8.477  -2.223  0.00  0.00    -0.344 N 
HETATM   17  H           1     -20.640  -7.654  -2.116  0.00  0.00     0.163 HD
BRANCH  16  18
HETATM   18  C           1     -21.966  -8.991  -1.090  0.00  0.00     0.194 C 
BRANCH  18  19
HETATM   19  C           1     -21.017  -9.717  -0.145  0.00  0.00     0.106 C 
BRANCH  19  20
HETATM   20  S           1     -21.698 -11.347   0.264  0.00  0.00    -0.180 SA
HETATM   21  H           1     -20.514 -11.940   0.498  0.00  0.00     0.101 HD
ENDBRANCH  19  20
ENDBRANCH  18  19
BRANCH  18  22
HETATM   22  C           1     -22.624  -7.846  -0.361  0.00  0.00     0.197 C 
HETATM   23  O           1     -23.113  -8.026   0.776  0.00  0.00    -0.646 OA
HETATM   24  O           1     -22.679  -6.716  -0.892  0.00  0.00    -0.646 OA
ENDBRANCH  18  22
ENDBRANCH  16  18
ENDBRANCH   1  14
TORSDOF 8
ENDMDL
MODEL 9
REMARK VINA RESULT:      -4.9     14.583     16.707
REMARK  8 active torsions:
REMARK  status: ('A' for Active; 'I' for Inactive)
REMARK    1  A    between atoms: C_4  and  S_11 
REMARK    2  A    between atoms: C_4  and  C_5 
REMARK    3  A    between atoms: C_5  and  C_13 
REMARK    4  A    between atoms: C_5  and  N_23 
REMARK    5  A    between atoms: N_8  and  C_22 
REMARK    6  A    between atoms: C_12  and  C_14 
REMARK    7  A    between atoms: C_14  and  C_22 
REMARK    8  A    between atoms: C_22  and  C_24 
REMARK       I    between atoms: N_23  and  C_24 
ROOT
HETATM    1  C           1     -21.055  -5.547  -5.788  0.00  0.00     0.280 C 
ENDROOT
BRANCH   1   2
HETATM    2  N           1     -20.031  -4.516  -5.415  0.00  0.00    -0.066 N 
HETATM    3  H           1     -20.425  -3.883  -4.682  0.00  0.00     0.275 HD
HETATM    4  H           1     -19.179  -4.992  -5.042  0.00  0.00     0.275 HD
HETATM    5  H           1     -19.778  -3.955  -6.260  0.00  0.00     0.275 HD
ENDBRANCH   1   2
BRANCH   1   6
HETATM    6  C           1     -20.991  -5.805  -7.287  0.00  0.00     0.101 C 
BRANCH   6   7
HETATM    7  C           1     -22.007  -4.955  -7.984  0.00  0.00     0.028 A 
HETATM    8  N           1     -21.921  -4.552  -9.292  0.00  0.00    -0.355 N 
HETATM    9  C           1     -23.000  -3.834  -9.505  0.00  0.00     0.180 A 
ATOM     10  HN          1     -21.179  -4.765  -9.958  1.00  0.00     0.166 HD
HETATM   11  N           1     -23.778  -3.758  -8.386  0.00  0.00    -0.360 N 
HETATM   12  C           1     -23.155  -4.473  -7.401  0.00  0.00     0.114 A 
HETATM   13  H           1     -24.691  -3.244  -8.297  0.00  0.00     0.166 HD
ENDBRANCH   6   7
ENDBRANCH   1   6
BRANCH   1  14
HETATM   14  C           1     -20.772  -6.828  -5.043  0.00  0.00     0.249 C 
HETATM   15  O           1     -21.091  -6.936  -3.883  0.00  0.00    -0.271 OA
HETATM   16  N           1     -20.153  -7.870  -5.683  0.00  0.00    -0.344 N 
HETATM   17  H           1     -19.886  -7.778  -6.655  0.00  0.00     0.163 HD
BRANCH  16  18
HETATM   18  C           1     -19.880  -9.101  -4.966  0.00  0.00     0.194 C 
BRANCH  18  19
HETATM   19  C           1     -20.921 -10.148  -5.342  0.00  0.00     0.106 C 
BRANCH  19  20
HETATM   20  S           1     -21.816 -10.673  -3.854  0.00  0.00    -0.180 SA
HETATM   21  H           1     -22.970 -10.964  -4.480  0.00  0.00     0.101 HD
ENDBRANCH  19  20
ENDBRANCH  18  19
BRANCH  18  22
HETATM   22  C           1     -18.506  -9.602  -5.336  0.00  0.00     0.197 C 
HETATM   23  O           1     -17.871 -10.331  -4.543  0.00  0.00    -0.646 OA
HETATM   24  O           1     -18.002  -9.288  -6.437  0.00  0.00    -0.646 OA
ENDBRANCH  18  22
ENDBRANCH  16  18
ENDBRANCH   1  14
TORSDOF 8
ENDMDL
