MODEL 1
REMARK VINA RESULT:      -6.5      0.000      0.000
REMARK  8 active torsions:
REMARK  status: ('A' for Active; 'I' for Inactive)
REMARK    1  A    between atoms: N_2  and  C_12 
REMARK       I    between atoms: N_2  and  C_3 
REMARK    2  A    between atoms: C_3  and  C_4 
REMARK    3  A    between atoms: C_4  and  C_5 
REMARK    4  A    between atoms: C_4  and  N_15 
REMARK    5  A    between atoms: C_5  and  C_6 
REMARK       I    between atoms: C_6  and  N_7 
REMARK    6  A    between atoms: C_9  and  C_11 
REMARK    7  A    between atoms: C_11  and  C_12 
REMARK    8  A    between atoms: C_12  and  C_13 
ROOT
HETATM    1  N           1     -35.061  -1.144 -12.310  0.00  0.00    -0.344 N 
HETATM    2  C           1     -34.399  -2.340 -12.387  0.00  0.00     0.249 C 
HETATM    3  O           1     -34.492  -3.018 -13.383  0.00  0.00    -0.271 OA
HETATM    4  H           1     -34.983  -0.576 -11.476  0.00  0.00     0.163 HD
ENDROOT
BRANCH   2   5
HETATM    5  C           1     -33.553  -2.811 -11.230  0.00  0.00     0.283 C 
BRANCH   5   6
HETATM    6  C           1     -34.131  -4.104 -10.670  0.00  0.00     0.145 C 
BRANCH   6   7
HETATM    7  C           1     -33.363  -5.279 -11.223  0.00  0.00     0.217 C 
HETATM    8  N           1     -32.323  -5.070 -12.088  0.00  0.00    -0.370 N 
HETATM    9  H           1     -31.807  -5.859 -12.458  0.00  0.00     0.159 HD
HETATM   10  H           1     -32.069  -4.129 -12.357  0.00  0.00     0.159 HD
HETATM   11  O           1     -33.665  -6.403 -10.902  0.00  0.00    -0.274 OA
ENDBRANCH   6   7
ENDBRANCH   5   6
BRANCH   5  12
HETATM   12  N           1     -33.546  -1.762 -10.158  0.00  0.00    -0.066 N 
HETATM   13  H           1     -33.297  -0.837 -10.576  0.00  0.00     0.275 HD
HETATM   14  H           1     -34.494  -1.703  -9.722  0.00  0.00     0.275 HD
HETATM   15  H           1     -32.843  -2.015  -9.427  0.00  0.00     0.275 HD
ENDBRANCH   5  12
ENDBRANCH   2   5
BRANCH   1  16
HETATM   16  C           1     -35.874  -0.692 -13.422  0.00  0.00     0.195 C 
BRANCH  16  17
HETATM   17  C           1     -37.122  -0.000 -12.889  0.00  0.00     0.149 C 
BRANCH  17  18
HETATM   18  C           1     -37.186  -0.159 -11.390  0.00  0.00     0.175 C 
HETATM   19  O           1     -36.522   0.601 -10.653  0.00  0.00    -0.648 OA
HETATM   20  O           1     -37.902  -1.051 -10.886  0.00  0.00    -0.648 OA
ENDBRANCH  17  18
ENDBRANCH  16  17
BRANCH  16  21
HETATM   21  C           1     -35.080   0.278 -14.262  0.00  0.00     0.197 C 
HETATM   22  O           1     -34.746   1.386 -13.789  0.00  0.00    -0.646 OA
HETATM   23  O           1     -34.756  -0.025 -15.430  0.00  0.00    -0.646 OA
ENDBRANCH  16  21
ENDBRANCH   1  16
TORSDOF 8
ENDMDL
MODEL 2
REMARK VINA RESULT:      -6.5     10.426     12.228
REMARK  8 active torsions:
REMARK  status: ('A' for Active; 'I' for Inactive)
REMARK    1  A    between atoms: N_2  and  C_12 
REMARK       I    between atoms: N_2  and  C_3 
REMARK    2  A    between atoms: C_3  and  C_4 
REMARK    3  A    between atoms: C_4  and  C_5 
REMARK    4  A    between atoms: C_4  and  N_15 
REMARK    5  A    between atoms: C_5  and  C_6 
REMARK       I    between atoms: C_6  and  N_7 
REMARK    6  A    between atoms: C_9  and  C_11 
REMARK    7  A    between atoms: C_11  and  C_12 
REMARK    8  A    between atoms: C_12  and  C_13 
ROOT
HETATM    1  N           1     -27.575  -6.669 -18.600  0.00  0.00    -0.344 N 
HETATM    2  C           1     -26.992  -6.543 -19.832  0.00  0.00     0.249 C 
HETATM    3  O           1     -27.226  -5.573 -20.514  0.00  0.00    -0.271 OA
HETATM    4  H           1     -27.379  -7.481 -18.029  0.00  0.00     0.163 HD
ENDROOT
BRANCH   2   5
HETATM    5  C           1     -26.056  -7.613 -20.338  0.00  0.00     0.283 C 
BRANCH   5   6
HETATM    6  C           1     -24.947  -6.971 -21.161  0.00  0.00     0.145 C 
BRANCH   6   7
HETATM    7  C           1     -24.070  -8.047 -21.750  0.00  0.00     0.217 C 
HETATM    8  N           1     -23.104  -8.639 -20.981  0.00  0.00    -0.370 N 
HETATM    9  H           1     -22.515  -9.362 -21.375  0.00  0.00     0.159 HD
HETATM   10  H           1     -22.979  -8.355 -20.018  0.00  0.00     0.159 HD
HETATM   11  O           1     -24.218  -8.388 -22.899  0.00  0.00    -0.274 OA
ENDBRANCH   6   7
ENDBRANCH   5   6
BRANCH   5  12
HETATM   12  N           1     -26.819  -8.578 -21.196  0.00  0.00    -0.066 N 
HETATM   13  H           1     -26.862  -8.217 -22.175  0.00  0.00     0.275 HD
HETATM   14  H           1     -26.337  -9.506 -21.189  0.00  0.00     0.275 HD
HETATM   15  H           1     -27.788  -8.687 -20.821  0.00  0.00     0.275 HD
ENDBRANCH   5  12
ENDBRANCH   2   5
BRANCH   1  16
HETATM   16  C           1     -28.474  -5.641 -18.113  0.00  0.00     0.195 C 
BRANCH  16  17
HETATM   17  C           1     -29.887  -6.203 -18.027  0.00  0.00     0.149 C 
BRANCH  17  18
HETATM   18  C           1     -29.833  -7.710 -18.043  0.00  0.00     0.175 C 
HETATM   19  O           1     -29.458  -8.333 -17.026  0.00  0.00    -0.648 OA
HETATM   20  O           1     -30.161  -8.337 -19.073  0.00  0.00    -0.648 OA
ENDBRANCH  17  18
ENDBRANCH  16  17
BRANCH  16  21
HETATM   21  C           1     -28.026  -5.190 -16.745  0.00  0.00     0.197 C 
HETATM   22  O           1     -26.823  -4.920 -16.539  0.00  0.00    -0.646 OA
HETATM   23  O           1     -28.857  -5.087 -15.817  0.00  0.00    -0.646 OA
ENDBRANCH  16  21
ENDBRANCH   1  16
TORSDOF 8
ENDMDL
MODEL 3
REMARK VINA RESULT:      -6.2      1.570      3.005
REMARK  8 active torsions:
REMARK  status: ('A' for Active; 'I' for Inactive)
REMARK    1  A    between atoms: N_2  and  C_12 
REMARK       I    between atoms: N_2  and  C_3 
REMARK    2  A    between atoms: C_3  and  C_4 
REMARK    3  A    between atoms: C_4  and  C_5 
REMARK    4  A    between atoms: C_4  and  N_15 
REMARK    5  A    between atoms: C_5  and  C_6 
REMARK       I    between atoms: C_6  and  N_7 
REMARK    6  A    between atoms: C_9  and  C_11 
REMARK    7  A    between atoms: C_11  and  C_12 
REMARK    8  A    between atoms: C_12  and  C_13 
ROOT
HETATM    1  N           1     -34.986  -1.855 -12.232  0.00  0.00    -0.344 N 
HETATM    2  C           1     -34.019  -2.543 -11.548  0.00  0.00     0.249 C 
HETATM    3  O           1     -33.343  -1.975 -10.724  0.00  0.00    -0.271 OA
HETATM    4  H           1     -35.553  -2.330 -12.922  0.00  0.00     0.163 HD
ENDROOT
BRANCH   2   5
HETATM    5  C           1     -33.800  -4.010 -11.825  0.00  0.00     0.283 C 
BRANCH   5   6
HETATM    6  C           1     -34.141  -4.818 -10.580  0.00  0.00     0.145 C 
BRANCH   6   7
HETATM    7  C           1     -34.520  -6.223 -10.980  0.00  0.00     0.217 C 
HETATM    8  N           1     -34.975  -6.474 -12.246  0.00  0.00    -0.370 N 
HETATM    9  H           1     -35.229  -7.417 -12.515  0.00  0.00     0.159 HD
HETATM   10  H           1     -35.058  -5.718 -12.913  0.00  0.00     0.159 HD
HETATM   11  O           1     -34.421  -7.126 -10.184  0.00  0.00    -0.274 OA
ENDBRANCH   6   7
ENDBRANCH   5   6
BRANCH   5  12
HETATM   12  N           1     -32.363  -4.240 -12.190  0.00  0.00    -0.066 N 
HETATM   13  H           1     -32.248  -4.151 -13.224  0.00  0.00     0.275 HD
HETATM   14  H           1     -31.765  -3.530 -11.711  0.00  0.00     0.275 HD
HETATM   15  H           1     -32.075  -5.198 -11.887  0.00  0.00     0.275 HD
ENDBRANCH   5  12
ENDBRANCH   2   5
BRANCH   1  16
HETATM   16  C           1     -35.198  -0.445 -11.967  0.00  0.00     0.195 C 
BRANCH  16  17
HETATM   17  C           1     -35.468   0.282 -13.277  0.00  0.00     0.149 C 
BRANCH  17  18
HETATM   18  C           1     -36.010  -0.693 -14.292  0.00  0.00     0.175 C 
HETATM   19  O           1     -35.228  -1.301 -15.055  0.00  0.00    -0.648 OA
HETATM   20  O           1     -37.241  -0.893 -14.371  0.00  0.00    -0.648 OA
ENDBRANCH  17  18
ENDBRANCH  16  17
BRANCH  16  21
HETATM   21  C           1     -36.381  -0.280 -11.045  0.00  0.00     0.197 C 
HETATM   22  O           1     -37.308  -1.119 -11.064  0.00  0.00    -0.646 OA
HETATM   23  O           1     -36.435   0.694 -10.264  0.00  0.00    -0.646 OA
ENDBRANCH  16  21
ENDBRANCH   1  16
TORSDOF 8
ENDMDL
MODEL 4
REMARK VINA RESULT:      -6.2     10.411     12.367
REMARK  8 active torsions:
REMARK  status: ('A' for Active; 'I' for Inactive)
REMARK    1  A    between atoms: N_2  and  C_12 
REMARK       I    between atoms: N_2  and  C_3 
REMARK    2  A    between atoms: C_3  and  C_4 
REMARK    3  A    between atoms: C_4  and  C_5 
REMARK    4  A    between atoms: C_4  and  N_15 
REMARK    5  A    between atoms: C_5  and  C_6 
REMARK       I    between atoms: C_6  and  N_7 
REMARK    6  A    between atoms: C_9  and  C_11 
REMARK    7  A    between atoms: C_11  and  C_12 
REMARK    8  A    between atoms: C_12  and  C_13 
ROOT
HETATM    1  N           1     -26.969  -6.596 -18.100  0.00  0.00    -0.344 N 
HETATM    2  C           1     -25.821  -6.839 -18.806  0.00  0.00     0.249 C 
HETATM    3  O           1     -24.756  -6.474 -18.369  0.00  0.00    -0.271 OA
HETATM    4  H           1     -27.862  -6.902 -18.466  0.00  0.00     0.163 HD
ENDROOT
BRANCH   2   5
HETATM    5  C           1     -25.887  -7.563 -20.128  0.00  0.00     0.283 C 
BRANCH   5   6
HETATM    6  C           1     -24.901  -6.933 -21.102  0.00  0.00     0.145 C 
BRANCH   6   7
HETATM    7  C           1     -24.062  -8.013 -21.739  0.00  0.00     0.217 C 
HETATM    8  N           1     -23.105  -8.659 -21.003  0.00  0.00    -0.370 N 
HETATM    9  H           1     -22.542  -9.385 -21.430  0.00  0.00     0.159 HD
HETATM   10  H           1     -22.961  -8.413 -20.033  0.00  0.00     0.159 HD
HETATM   11  O           1     -24.233  -8.308 -22.897  0.00  0.00    -0.274 OA
ENDBRANCH   6   7
ENDBRANCH   5   6
BRANCH   5  12
HETATM   12  N           1     -27.275  -7.460 -20.686  0.00  0.00    -0.066 N 
HETATM   13  H           1     -27.231  -7.438 -21.730  0.00  0.00     0.275 HD
HETATM   14  H           1     -27.836  -8.286 -20.379  0.00  0.00     0.275 HD
HETATM   15  H           1     -27.726  -6.584 -20.337  0.00  0.00     0.275 HD
ENDBRANCH   5  12
ENDBRANCH   2   5
BRANCH   1  16
HETATM   16  C           1     -26.907  -5.900 -16.830  0.00  0.00     0.195 C 
BRANCH  16  17
HETATM   17  C           1     -28.171  -5.072 -16.642  0.00  0.00     0.149 C 
BRANCH  17  18
HETATM   18  C           1     -29.148  -5.386 -17.749  0.00  0.00     0.175 C 
HETATM   19  O           1     -29.266  -4.606 -18.718  0.00  0.00    -0.648 OA
HETATM   20  O           1     -29.839  -6.426 -17.695  0.00  0.00    -0.648 OA
ENDBRANCH  17  18
ENDBRANCH  16  17
BRANCH  16  21
HETATM   21  C           1     -26.793  -6.907 -15.712  0.00  0.00     0.197 C 
HETATM   22  O           1     -25.672  -7.349 -15.382  0.00  0.00    -0.646 OA
HETATM   23  O           1     -27.819  -7.299 -15.116  0.00  0.00    -0.646 OA
ENDBRANCH  16  21
ENDBRANCH   1  16
TORSDOF 8
ENDMDL
MODEL 5
REMARK VINA RESULT:      -6.1     11.956     13.799
REMARK  8 active torsions:
REMARK  status: ('A' for Active; 'I' for Inactive)
REMARK    1  A    between atoms: N_2  and  C_12 
REMARK       I    between atoms: N_2  and  C_3 
REMARK    2  A    between atoms: C_3  and  C_4 
REMARK    3  A    between atoms: C_4  and  C_5 
REMARK    4  A    between atoms: C_4  and  N_15 
REMARK    5  A    between atoms: C_5  and  C_6 
REMARK       I    between atoms: C_6  and  N_7 
REMARK    6  A    between atoms: C_9  and  C_11 
REMARK    7  A    between atoms: C_11  and  C_12 
REMARK    8  A    between atoms: C_12  and  C_13 
ROOT
HETATM    1  N           1     -22.224  -4.191  -9.275  0.00  0.00    -0.344 N 
HETATM    2  C           1     -21.418  -4.657  -8.270  0.00  0.00     0.249 C 
HETATM    3  O           1     -20.492  -5.388  -8.529  0.00  0.00    -0.271 OA
HETATM    4  H           1     -22.999  -3.578  -9.058  0.00  0.00     0.163 HD
ENDROOT
BRANCH   2   5
HETATM    5  C           1     -21.687  -4.256  -6.840  0.00  0.00     0.283 C 
BRANCH   5   6
HETATM    6  C           1     -20.689  -4.949  -5.922  0.00  0.00     0.145 C 
BRANCH   6   7
HETATM    7  C           1     -21.310  -6.204  -5.361  0.00  0.00     0.217 C 
HETATM    8  N           1     -21.118  -7.404  -5.993  0.00  0.00    -0.370 N 
HETATM    9  H           1     -21.534  -8.246  -5.617  0.00  0.00     0.159 HD
HETATM   10  H           1     -20.561  -7.448  -6.836  0.00  0.00     0.159 HD
HETATM   11  O           1     -21.975  -6.152  -4.355  0.00  0.00    -0.274 OA
ENDBRANCH   6   7
ENDBRANCH   5   6
BRANCH   5  12
HETATM   12  N           1     -23.080  -4.662  -6.461  0.00  0.00    -0.066 N 
HETATM   13  H           1     -23.741  -4.398  -7.226  0.00  0.00     0.275 HD
HETATM   14  H           1     -23.113  -5.696  -6.314  0.00  0.00     0.275 HD
HETATM   15  H           1     -23.356  -4.176  -5.578  0.00  0.00     0.275 HD
ENDBRANCH   5  12
ENDBRANCH   2   5
BRANCH   1  16
HETATM   16  C           1     -21.966  -4.576 -10.649  0.00  0.00     0.195 C 
BRANCH  16  17
HETATM   17  C           1     -23.287  -4.710 -11.394  0.00  0.00     0.149 C 
BRANCH  17  18
HETATM   18  C           1     -24.402  -4.144 -10.550  0.00  0.00     0.175 C 
HETATM   19  O           1     -24.969  -4.864  -9.699  0.00  0.00    -0.648 OA
HETATM   20  O           1     -24.759  -2.956 -10.701  0.00  0.00    -0.648 OA
ENDBRANCH  17  18
ENDBRANCH  16  17
BRANCH  16  21
HETATM   21  C           1     -21.116  -3.521 -11.314  0.00  0.00     0.197 C 
HETATM   22  O           1     -21.639  -2.457 -11.712  0.00  0.00    -0.646 OA
HETATM   23  O           1     -19.891  -3.711 -11.469  0.00  0.00    -0.646 OA
ENDBRANCH  16  21
ENDBRANCH   1  16
TORSDOF 8
ENDMDL
MODEL 6
REMARK VINA RESULT:      -6.0     12.304     14.379
REMARK  8 active torsions:
REMARK  status: ('A' for Active; 'I' for Inactive)
REMARK    1  A    between atoms: N_2  and  C_12 
REMARK       I    between atoms: N_2  and  C_3 
REMARK    2  A    between atoms: C_3  and  C_4 
REMARK    3  A    between atoms: C_4  and  C_5 
REMARK    4  A    between atoms: C_4  and  N_15 
REMARK    5  A    between atoms: C_5  and  C_6 
REMARK       I    between atoms: C_6  and  N_7 
REMARK    6  A    between atoms: C_9  and  C_11 
REMARK    7  A    between atoms: C_11  and  C_12 
REMARK    8  A    between atoms: C_12  and  C_13 
ROOT
HETATM    1  N           1     -22.308  -4.906  -8.818  0.00  0.00    -0.344 N 
HETATM    2  C           1     -21.701  -4.663  -7.615  0.00  0.00     0.249 C 
HETATM    3  O           1     -21.560  -3.527  -7.228  0.00  0.00    -0.271 OA
HETATM    4  H           1     -22.427  -5.857  -9.142  0.00  0.00     0.163 HD
ENDROOT
BRANCH   2   5
HETATM    5  C           1     -21.210  -5.814  -6.771  0.00  0.00     0.283 C 
BRANCH   5   6
HETATM    6  C           1     -21.029  -5.348  -5.333  0.00  0.00     0.145 C 
BRANCH   6   7
HETATM    7  C           1     -21.520  -6.420  -4.391  0.00  0.00     0.217 C 
HETATM    8  N           1     -21.969  -6.081  -3.143  0.00  0.00    -0.370 N 
HETATM    9  H           1     -22.299  -6.800  -2.511  0.00  0.00     0.159 HD
HETATM   10  H           1     -21.971  -5.112  -2.852  0.00  0.00     0.159 HD
HETATM   11  O           1     -21.518  -7.577  -4.738  0.00  0.00    -0.274 OA
ENDBRANCH   6   7
ENDBRANCH   5   6
BRANCH   5  12
HETATM   12  N           1     -19.897  -6.301  -7.307  0.00  0.00    -0.066 N 
HETATM   13  H           1     -20.067  -7.009  -8.057  0.00  0.00     0.275 HD
HETATM   14  H           1     -19.363  -5.495  -7.704  0.00  0.00     0.275 HD
HETATM   15  H           1     -19.346  -6.737  -6.534  0.00  0.00     0.275 HD
ENDBRANCH   5  12
ENDBRANCH   2   5
BRANCH   1  16
HETATM   16  C           1     -22.780  -3.800  -9.629  0.00  0.00     0.195 C 
BRANCH  16  17
HETATM   17  C           1     -22.222  -3.931 -11.040  0.00  0.00     0.149 C 
BRANCH  17  18
HETATM   18  C           1     -20.723  -3.762 -11.007  0.00  0.00     0.175 C 
HETATM   19  O           1     -20.214  -2.651 -11.274  0.00  0.00    -0.648 OA
HETATM   20  O           1     -19.991  -4.730 -10.714  0.00  0.00    -0.648 OA
ENDBRANCH  17  18
ENDBRANCH  16  17
BRANCH  16  21
HETATM   21  C           1     -24.288  -3.823  -9.679  0.00  0.00     0.197 C 
HETATM   22  O           1     -24.934  -2.764  -9.521  0.00  0.00    -0.646 OA
HETATM   23  O           1     -24.891  -4.899  -9.877  0.00  0.00    -0.646 OA
ENDBRANCH  16  21
ENDBRANCH   1  16
TORSDOF 8
ENDMDL
MODEL 7
REMARK VINA RESULT:      -5.9      2.612      5.416
REMARK  8 active torsions:
REMARK  status: ('A' for Active; 'I' for Inactive)
REMARK    1  A    between atoms: N_2  and  C_12 
REMARK       I    between atoms: N_2  and  C_3 
REMARK    2  A    between atoms: C_3  and  C_4 
REMARK    3  A    between atoms: C_4  and  C_5 
REMARK    4  A    between atoms: C_4  and  N_15 
REMARK    5  A    between atoms: C_5  and  C_6 
REMARK       I    between atoms: C_6  and  N_7 
REMARK    6  A    between atoms: C_9  and  C_11 
REMARK    7  A    between atoms: C_11  and  C_12 
REMARK    8  A    between atoms: C_12  and  C_13 
ROOT
HETATM    1  N           1     -35.992  -0.352 -11.837  0.00  0.00    -0.344 N 
HETATM    2  C           1     -36.587  -0.223 -13.063  0.00  0.00     0.249 C 
HETATM    3  O           1     -37.672  -0.716 -13.262  0.00  0.00    -0.271 OA
HETATM    4  H           1     -35.083   0.061 -11.670  0.00  0.00     0.163 HD
ENDROOT
BRANCH   2   5
HETATM    5  C           1     -35.889   0.535 -14.166  0.00  0.00     0.283 C 
BRANCH   5   6
HETATM    6  C           1     -35.559  -0.418 -15.307  0.00  0.00     0.145 C 
BRANCH   6   7
HETATM    7  C           1     -36.639  -0.339 -16.357  0.00  0.00     0.217 C 
HETATM    8  N           1     -37.735   0.456 -16.153  0.00  0.00    -0.370 N 
HETATM    9  H           1     -38.460   0.510 -16.857  0.00  0.00     0.159 HD
HETATM   10  H           1     -37.820   0.989 -15.298  0.00  0.00     0.159 HD
HETATM   11  O           1     -36.537  -0.975 -17.379  0.00  0.00    -0.274 OA
ENDBRANCH   6   7
ENDBRANCH   5   6
BRANCH   5  12
HETATM   12  N           1     -34.621   1.135 -13.634  0.00  0.00    -0.066 N 
HETATM   13  H           1     -34.071   0.401 -13.134  0.00  0.00     0.275 HD
HETATM   14  H           1     -34.056   1.513 -14.427  0.00  0.00     0.275 HD
HETATM   15  H           1     -34.853   1.908 -12.971  0.00  0.00     0.275 HD
ENDBRANCH   5  12
ENDBRANCH   2   5
BRANCH   1  16
HETATM   16  C           1     -36.662  -1.080 -10.777  0.00  0.00     0.195 C 
BRANCH  16  17
HETATM   17  C           1     -35.864  -2.331 -10.438  0.00  0.00     0.149 C 
BRANCH  17  18
HETATM   18  C           1     -34.456  -2.188 -10.961  0.00  0.00     0.175 C 
HETATM   19  O           1     -34.167  -2.609 -12.102  0.00  0.00    -0.648 OA
HETATM   20  O           1     -33.578  -1.649 -10.254  0.00  0.00    -0.648 OA
ENDBRANCH  17  18
ENDBRANCH  16  17
BRANCH  16  21
HETATM   21  C           1     -36.767  -0.202  -9.555  0.00  0.00     0.197 C 
HETATM   22  O           1     -36.335   0.971  -9.589  0.00  0.00    -0.646 OA
HETATM   23  O           1     -37.285  -0.646  -8.508  0.00  0.00    -0.646 OA
ENDBRANCH  16  21
ENDBRANCH   1  16
TORSDOF 8
ENDMDL
MODEL 8
REMARK VINA RESULT:      -5.8      8.696     11.206
REMARK  8 active torsions:
REMARK  status: ('A' for Active; 'I' for Inactive)
REMARK    1  A    between atoms: N_2  and  C_12 
REMARK       I    between atoms: N_2  and  C_3 
REMARK    2  A    between atoms: C_3  and  C_4 
REMARK    3  A    between atoms: C_4  and  C_5 
REMARK    4  A    between atoms: C_4  and  N_15 
REMARK    5  A    between atoms: C_5  and  C_6 
REMARK       I    between atoms: C_6  and  N_7 
REMARK    6  A    between atoms: C_9  and  C_11 
REMARK    7  A    between atoms: C_11  and  C_12 
REMARK    8  A    between atoms: C_12  and  C_13 
ROOT
HETATM    1  N           1     -27.590  -6.017 -17.577  0.00  0.00    -0.344 N 
HETATM    2  C           1     -28.822  -6.528 -17.270  0.00  0.00     0.249 C 
HETATM    3  O           1     -28.927  -7.679 -16.917  0.00  0.00    -0.271 OA
HETATM    4  H           1     -27.502  -5.053 -17.873  0.00  0.00     0.163 HD
ENDROOT
BRANCH   2   5
HETATM    5  C           1     -30.049  -5.655 -17.370  0.00  0.00     0.283 C 
BRANCH   5   6
HETATM    6  C           1     -29.731  -4.428 -18.214  0.00  0.00     0.145 C 
BRANCH   6   7
HETATM    7  C           1     -30.498  -3.241 -17.686  0.00  0.00     0.217 C 
HETATM    8  N           1     -29.828  -2.109 -17.305  0.00  0.00    -0.370 N 
HETATM    9  H           1     -30.343  -1.312 -16.950  0.00  0.00     0.159 HD
HETATM   10  H           1     -28.821  -2.068 -17.377  0.00  0.00     0.159 HD
HETATM   11  O           1     -31.701  -3.289 -17.598  0.00  0.00    -0.274 OA
ENDBRANCH   6   7
ENDBRANCH   5   6
BRANCH   5  12
HETATM   12  N           1     -30.466  -5.221 -15.996  0.00  0.00    -0.066 N 
HETATM   13  H           1     -31.466  -4.917 -16.015  0.00  0.00     0.275 HD
HETATM   14  H           1     -30.358  -6.020 -15.331  0.00  0.00     0.275 HD
HETATM   15  H           1     -29.866  -4.425 -15.685  0.00  0.00     0.275 HD
ENDBRANCH   5  12
ENDBRANCH   2   5
BRANCH   1  16
HETATM   16  C           1     -26.411  -6.856 -17.481  0.00  0.00     0.195 C 
BRANCH  16  17
HETATM   17  C           1     -25.433  -6.485 -18.588  0.00  0.00     0.149 C 
BRANCH  17  18
HETATM   18  C           1     -26.029  -6.842 -19.928  0.00  0.00     0.175 C 
HETATM   19  O           1     -25.527  -7.762 -20.609  0.00  0.00    -0.648 OA
HETATM   20  O           1     -27.023  -6.218 -20.355  0.00  0.00    -0.648 OA
ENDBRANCH  17  18
ENDBRANCH  16  17
BRANCH  16  21
HETATM   21  C           1     -25.756  -6.647 -16.138  0.00  0.00     0.197 C 
HETATM   22  O           1     -25.870  -7.516 -15.246  0.00  0.00    -0.646 OA
HETATM   23  O           1     -25.100  -5.607 -15.917  0.00  0.00    -0.646 OA
ENDBRANCH  16  21
ENDBRANCH   1  16
TORSDOF 8
ENDMDL
MODEL 9
REMARK VINA RESULT:      -5.5      1.815      2.455
REMARK  8 active torsions:
REMARK  status: ('A' for Active; 'I' for Inactive)
REMARK    1  A    between atoms: N_2  and  C_12 
REMARK       I    between atoms: N_2  and  C_3 
REMARK    2  A    between atoms: C_3  and  C_4 
REMARK    3  A    between atoms: C_4  and  C_5 
REMARK    4  A    between atoms: C_4  and  N_15 
REMARK    5  A    between atoms: C_5  and  C_6 
REMARK       I    between atoms: C_6  and  N_7 
REMARK    6  A    between atoms: C_9  and  C_11 
REMARK    7  A    between atoms: C_11  and  C_12 
REMARK    8  A    between atoms: C_12  and  C_13 
ROOT
HETATM    1  N           1     -35.410  -0.891 -12.729  0.00  0.00    -0.344 N 
HETATM    2  C           1     -34.829  -2.125 -12.614  0.00  0.00     0.249 C 
HETATM    3  O           1     -34.618  -2.787 -13.603  0.00  0.00    -0.271 OA
HETATM    4  H           1     -35.586  -0.336 -11.901  0.00  0.00     0.163 HD
ENDROOT
BRANCH   2   5
HETATM    5  C           1     -34.450  -2.659 -11.254  0.00  0.00     0.283 C 
BRANCH   5   6
HETATM    6  C           1     -35.256  -3.917 -10.960  0.00  0.00     0.145 C 
BRANCH   6   7
HETATM    7  C           1     -34.342  -5.117 -10.989  0.00  0.00     0.217 C 
HETATM    8  N           1     -33.415  -5.247 -11.987  0.00  0.00    -0.370 N 
HETATM    9  H           1     -32.801  -6.052 -12.007  0.00  0.00     0.159 HD
HETATM   10  H           1     -33.342  -4.538 -12.705  0.00  0.00     0.159 HD
HETATM   11  O           1     -34.429  -5.964 -10.132  0.00  0.00    -0.274 OA
ENDBRANCH   6   7
ENDBRANCH   5   6
BRANCH   5  12
HETATM   12  N           1     -34.745  -1.622 -10.212  0.00  0.00    -0.066 N 
HETATM   13  H           1     -34.705  -0.671 -10.644  0.00  0.00     0.275 HD
HETATM   14  H           1     -35.699  -1.785  -9.818  0.00  0.00     0.275 HD
HETATM   15  H           1     -34.037  -1.686  -9.446  0.00  0.00     0.275 HD
ENDBRANCH   5  12
ENDBRANCH   2   5
BRANCH   1  16
HETATM   16  C           1     -35.773  -0.378 -14.035  0.00  0.00     0.195 C 
BRANCH  16  17
HETATM   17  C           1     -37.277  -0.143 -14.087  0.00  0.00     0.149 C 
BRANCH  17  18
HETATM   18  C           1     -37.750  -0.219 -15.518  0.00  0.00     0.175 C 
HETATM   19  O           1     -37.821  -1.326 -16.094  0.00  0.00    -0.648 OA
HETATM   20  O           1     -38.072   0.824 -16.126  0.00  0.00    -0.648 OA
ENDBRANCH  17  18
ENDBRANCH  16  17
BRANCH  16  21
HETATM   21  C           1     -35.051   0.923 -14.282  0.00  0.00     0.197 C 
HETATM   22  O           1     -35.316   1.602 -15.298  0.00  0.00    -0.646 OA
HETATM   23  O           1     -34.186   1.322 -13.473  0.00  0.00    -0.646 OA
ENDBRANCH  16  21
ENDBRANCH   1  16
TORSDOF 8
ENDMDL
