MODEL 1
REMARK VINA RESULT:      -6.4      0.000      0.000
REMARK  6 active torsions:
REMARK  status: ('A' for Active; 'I' for Inactive)
REMARK    1  A    between atoms: C_1  and  C_15 
REMARK    2  A    between atoms: N_6  and  C_13 
REMARK    3  A    between atoms: N_7  and  C_15 
REMARK       I    between atoms: N_7  and  C_17 
REMARK    4  A    between atoms: C_13  and  C_17 
REMARK    5  A    between atoms: C_13  and  C_14 
REMARK    6  A    between atoms: C_14  and  C_16 
ROOT
HETATM    1  C           1     -34.636  -1.720 -11.944  0.00  0.00     0.275 C 
ENDROOT
BRANCH   1   2
HETATM    2  N           1     -35.117  -1.289 -10.590  0.00  0.00    -0.066 N 
HETATM    3  H           1     -34.468  -1.654  -9.857  0.00  0.00     0.275 HD
HETATM    4  H           1     -35.141  -0.245 -10.545  0.00  0.00     0.275 HD
HETATM    5  H           1     -36.077  -1.668 -10.425  0.00  0.00     0.275 HD
ENDBRANCH   1   2
BRANCH   1   6
HETATM    6  C           1     -35.504  -1.093 -13.008  0.00  0.00     0.248 C 
HETATM    7  O           1     -36.705  -1.088 -12.882  0.00  0.00    -0.271 OA
HETATM    8  N           1     -34.929  -0.529 -14.115  0.00  0.00    -0.349 N 
HETATM    9  H           1     -33.923  -0.533 -14.221  0.00  0.00     0.163 HD
BRANCH   8  10
HETATM   10  C           1     -35.763   0.074 -15.137  0.00  0.00     0.235 C 
BRANCH  10  11
HETATM   11  C           1     -35.831  -0.841 -16.336  0.00  0.00     0.191 C 
HETATM   12  O           1     -36.821  -0.802 -17.097  0.00  0.00    -0.647 OA
HETATM   13  O           1     -34.896  -1.638 -16.567  0.00  0.00    -0.647 OA
ENDBRANCH  10  11
ENDBRANCH   8  10
ENDBRANCH   1   6
BRANCH   1  14
HETATM   14  C           1     -34.716  -3.237 -12.051  0.00  0.00     0.046 C 
BRANCH  14  15
HETATM   15  C           1     -33.652  -3.866 -11.162  0.00  0.00    -0.020 C 
HETATM   16  C           1     -32.464  -4.290 -12.015  0.00  0.00     0.009 C 
HETATM   17  C           1     -34.233  -5.087 -10.460  0.00  0.00     0.009 C 
ENDBRANCH  14  15
ENDBRANCH   1  14
TORSDOF 6
ENDMDL
MODEL 2
REMARK VINA RESULT:      -5.9      8.664     10.438
REMARK  6 active torsions:
REMARK  status: ('A' for Active; 'I' for Inactive)
REMARK    1  A    between atoms: C_1  and  C_15 
REMARK    2  A    between atoms: N_6  and  C_13 
REMARK    3  A    between atoms: N_7  and  C_15 
REMARK       I    between atoms: N_7  and  C_17 
REMARK    4  A    between atoms: C_13  and  C_17 
REMARK    5  A    between atoms: C_13  and  C_14 
REMARK    6  A    between atoms: C_14  and  C_16 
ROOT
HETATM    1  C           1     -29.297  -6.838 -17.722  0.00  0.00     0.275 C 
ENDROOT
BRANCH   1   2
HETATM    2  N           1     -29.525  -8.194 -18.321  0.00  0.00    -0.066 N 
HETATM    3  H           1     -30.019  -8.092 -19.237  0.00  0.00     0.275 HD
HETATM    4  H           1     -28.607  -8.668 -18.473  0.00  0.00     0.275 HD
HETATM    5  H           1     -30.112  -8.767 -17.672  0.00  0.00     0.275 HD
ENDBRANCH   1   2
BRANCH   1   6
HETATM    6  C           1     -28.169  -6.915 -16.721  0.00  0.00     0.248 C 
HETATM    7  O           1     -28.369  -7.374 -15.621  0.00  0.00    -0.271 OA
HETATM    8  N           1     -26.922  -6.466 -17.059  0.00  0.00    -0.349 N 
HETATM    9  H           1     -26.754  -6.082 -17.981  0.00  0.00     0.163 HD
BRANCH   8  10
HETATM   10  C           1     -25.839  -6.540 -16.097  0.00  0.00     0.235 C 
BRANCH  10  11
HETATM   11  C           1     -24.665  -7.260 -16.716  0.00  0.00     0.191 C 
HETATM   12  O           1     -24.140  -6.818 -17.760  0.00  0.00    -0.647 OA
HETATM   13  O           1     -24.217  -8.297 -16.182  0.00  0.00    -0.647 OA
ENDBRANCH  10  11
ENDBRANCH   8  10
ENDBRANCH   1   6
BRANCH   1  14
HETATM   14  C           1     -30.567  -6.371 -17.023  0.00  0.00     0.046 C 
BRANCH  14  15
HETATM   15  C           1     -30.562  -4.852 -16.923  0.00  0.00    -0.020 C 
HETATM   16  C           1     -31.997  -4.341 -16.901  0.00  0.00     0.009 C 
HETATM   17  C           1     -29.835  -4.265 -18.126  0.00  0.00     0.009 C 
ENDBRANCH  14  15
ENDBRANCH   1  14
TORSDOF 6
ENDMDL
MODEL 3
REMARK VINA RESULT:      -5.9      3.313      5.051
REMARK  6 active torsions:
REMARK  status: ('A' for Active; 'I' for Inactive)
REMARK    1  A    between atoms: C_1  and  C_15 
REMARK    2  A    between atoms: N_6  and  C_13 
REMARK    3  A    between atoms: N_7  and  C_15 
REMARK       I    between atoms: N_7  and  C_17 
REMARK    4  A    between atoms: C_13  and  C_17 
REMARK    5  A    between atoms: C_13  and  C_14 
REMARK    6  A    between atoms: C_14  and  C_16 
ROOT
HETATM    1  C           1     -34.768  -1.683 -11.771  0.00  0.00     0.275 C 
ENDROOT
BRANCH   1   2
HETATM    2  N           1     -34.407  -0.322 -12.288  0.00  0.00    -0.066 N 
HETATM    3  H           1     -33.606  -0.404 -12.955  0.00  0.00     0.275 HD
HETATM    4  H           1     -35.228   0.093 -12.781  0.00  0.00     0.275 HD
HETATM    5  H           1     -34.131   0.292 -11.488  0.00  0.00     0.275 HD
ENDBRANCH   1   2
BRANCH   1   6
HETATM    6  C           1     -35.976  -1.574 -10.872  0.00  0.00     0.248 C 
HETATM    7  O           1     -36.613  -2.562 -10.594  0.00  0.00    -0.271 OA
HETATM    8  N           1     -36.350  -0.356 -10.373  0.00  0.00    -0.349 N 
HETATM    9  H           1     -35.817   0.473 -10.606  0.00  0.00     0.163 HD
BRANCH   8  10
HETATM   10  C           1     -37.511  -0.251  -9.510  0.00  0.00     0.235 C 
BRANCH  10  11
HETATM   11  C           1     -37.070   0.128  -8.117  0.00  0.00     0.191 C 
HETATM   12  O           1     -35.886   0.470  -7.907  0.00  0.00    -0.647 OA
HETATM   13  O           1     -37.889   0.099  -7.174  0.00  0.00    -0.647 OA
ENDBRANCH  10  11
ENDBRANCH   8  10
ENDBRANCH   1   6
BRANCH   1  14
HETATM   14  C           1     -33.597  -2.254 -10.982  0.00  0.00     0.046 C 
BRANCH  14  15
HETATM   15  C           1     -33.274  -3.652 -11.493  0.00  0.00    -0.020 C 
HETATM   16  C           1     -33.846  -3.825 -12.894  0.00  0.00     0.009 C 
HETATM   17  C           1     -33.890  -4.688 -10.562  0.00  0.00     0.009 C 
ENDBRANCH  14  15
ENDBRANCH   1  14
TORSDOF 6
ENDMDL
MODEL 4
REMARK VINA RESULT:      -5.6      9.656     11.116
REMARK  6 active torsions:
REMARK  status: ('A' for Active; 'I' for Inactive)
REMARK    1  A    between atoms: C_1  and  C_15 
REMARK    2  A    between atoms: N_6  and  C_13 
REMARK    3  A    between atoms: N_7  and  C_15 
REMARK       I    between atoms: N_7  and  C_17 
REMARK    4  A    between atoms: C_13  and  C_17 
REMARK    5  A    between atoms: C_13  and  C_14 
REMARK    6  A    between atoms: C_14  and  C_16 
ROOT
HETATM    1  C           1     -28.391  -6.185 -17.885  0.00  0.00     0.275 C 
ENDROOT
BRANCH   1   2
HETATM    2  N           1     -28.736  -7.345 -16.998  0.00  0.00    -0.066 N 
HETATM    3  H           1     -27.864  -7.868 -16.754  0.00  0.00     0.275 HD
HETATM    4  H           1     -29.186  -6.993 -16.124  0.00  0.00     0.275 HD
HETATM    5  H           1     -29.395  -7.982 -17.500  0.00  0.00     0.275 HD
ENDBRANCH   1   2
BRANCH   1   6
HETATM    6  C           1     -26.997  -6.370 -18.434  0.00  0.00     0.248 C 
HETATM    7  O           1     -26.039  -6.219 -17.714  0.00  0.00    -0.271 OA
HETATM    8  N           1     -26.819  -6.709 -19.748  0.00  0.00    -0.349 N 
HETATM    9  H           1     -27.621  -6.836 -20.352  0.00  0.00     0.163 HD
BRANCH   8  10
HETATM   10  C           1     -25.479  -6.887 -20.276  0.00  0.00     0.235 C 
BRANCH  10  11
HETATM   11  C           1     -25.489  -7.978 -21.319  0.00  0.00     0.191 C 
HETATM   12  O           1     -24.488  -8.158 -22.044  0.00  0.00    -0.647 OA
HETATM   13  O           1     -26.499  -8.701 -21.456  0.00  0.00    -0.647 OA
ENDBRANCH  10  11
ENDBRANCH   8  10
ENDBRANCH   1   6
BRANCH   1  14
HETATM   14  C           1     -28.454  -4.894 -17.081  0.00  0.00     0.046 C 
BRANCH  14  15
HETATM   15  C           1     -29.482  -3.958 -17.702  0.00  0.00    -0.020 C 
HETATM   16  C           1     -29.189  -2.526 -17.273  0.00  0.00     0.009 C 
HETATM   17  C           1     -30.877  -4.351 -17.234  0.00  0.00     0.009 C 
ENDBRANCH  14  15
ENDBRANCH   1  14
TORSDOF 6
ENDMDL
MODEL 5
REMARK VINA RESULT:      -5.6     12.999     14.562
REMARK  6 active torsions:
REMARK  status: ('A' for Active; 'I' for Inactive)
REMARK    1  A    between atoms: C_1  and  C_15 
REMARK    2  A    between atoms: N_6  and  C_13 
REMARK    3  A    between atoms: N_7  and  C_15 
REMARK       I    between atoms: N_7  and  C_17 
REMARK    4  A    between atoms: C_13  and  C_17 
REMARK    5  A    between atoms: C_13  and  C_14 
REMARK    6  A    between atoms: C_14  and  C_16 
ROOT
HETATM    1  C           1     -21.140  -5.768  -6.905  0.00  0.00     0.275 C 
ENDROOT
BRANCH   1   2
HETATM    2  N           1     -19.841  -6.058  -7.596  0.00  0.00    -0.066 N 
HETATM    3  H           1     -20.015  -6.677  -8.420  0.00  0.00     0.275 HD
HETATM    4  H           1     -19.410  -5.163  -7.918  0.00  0.00     0.275 HD
HETATM    5  H           1     -19.193  -6.538  -6.930  0.00  0.00     0.275 HD
ENDBRANCH   1   2
BRANCH   1   6
HETATM    6  C           1     -21.785  -4.557  -7.536  0.00  0.00     0.248 C 
HETATM    7  O           1     -21.494  -3.449  -7.153  0.00  0.00    -0.271 OA
HETATM    8  N           1     -22.700  -4.715  -8.541  0.00  0.00    -0.349 N 
HETATM    9  H           1     -22.945  -5.643  -8.862  0.00  0.00     0.163 HD
BRANCH   8  10
HETATM   10  C           1     -23.319  -3.552  -9.147  0.00  0.00     0.235 C 
BRANCH  10  11
HETATM   11  C           1     -24.118  -3.979 -10.355  0.00  0.00     0.191 C 
HETATM   12  O           1     -25.001  -3.225 -10.819  0.00  0.00    -0.647 OA
HETATM   13  O           1     -23.897  -5.086 -10.890  0.00  0.00    -0.647 OA
ENDBRANCH  10  11
ENDBRANCH   8  10
ENDBRANCH   1   6
BRANCH   1  14
HETATM   14  C           1     -20.881  -5.495  -5.429  0.00  0.00     0.046 C 
BRANCH  14  15
HETATM   15  C           1     -21.789  -6.377  -4.583  0.00  0.00    -0.020 C 
HETATM   16  C           1     -21.454  -6.183  -3.109  0.00  0.00     0.009 C 
HETATM   17  C           1     -21.577  -7.837  -4.962  0.00  0.00     0.009 C 
ENDBRANCH  14  15
ENDBRANCH   1  14
TORSDOF 6
ENDMDL
MODEL 6
REMARK VINA RESULT:      -5.4      1.660      2.273
REMARK  6 active torsions:
REMARK  status: ('A' for Active; 'I' for Inactive)
REMARK    1  A    between atoms: C_1  and  C_15 
REMARK    2  A    between atoms: N_6  and  C_13 
REMARK    3  A    between atoms: N_7  and  C_15 
REMARK       I    between atoms: N_7  and  C_17 
REMARK    4  A    between atoms: C_13  and  C_17 
REMARK    5  A    between atoms: C_13  and  C_14 
REMARK    6  A    between atoms: C_14  and  C_16 
ROOT
HETATM    1  C           1     -34.034  -2.218 -11.391  0.00  0.00     0.275 C 
ENDROOT
BRANCH   1   2
HETATM    2  N           1     -33.927  -1.703  -9.986  0.00  0.00    -0.066 N 
HETATM    3  H           1     -32.985  -1.272  -9.843  0.00  0.00     0.275 HD
HETATM    4  H           1     -34.667  -0.984  -9.821  0.00  0.00     0.275 HD
HETATM    5  H           1     -34.053  -2.495  -9.315  0.00  0.00     0.275 HD
ENDBRANCH   1   2
BRANCH   1   6
HETATM    6  C           1     -34.622  -1.145 -12.275  0.00  0.00     0.248 C 
HETATM    7  O           1     -34.595   0.010 -11.923  0.00  0.00    -0.271 OA
HETATM    8  N           1     -35.187  -1.482 -13.475  0.00  0.00    -0.349 N 
HETATM    9  H           1     -35.210  -2.449 -13.771  0.00  0.00     0.163 HD
BRANCH   8  10
HETATM   10  C           1     -35.752  -0.451 -14.325  0.00  0.00     0.235 C 
BRANCH  10  11
HETATM   11  C           1     -37.223  -0.300 -14.023  0.00  0.00     0.191 C 
HETATM   12  O           1     -37.591   0.320 -13.002  0.00  0.00    -0.647 OA
HETATM   13  O           1     -38.072  -0.795 -14.794  0.00  0.00    -0.647 OA
ENDBRANCH  10  11
ENDBRANCH   8  10
ENDBRANCH   1   6
BRANCH   1  14
HETATM   14  C           1     -34.933  -3.447 -11.414  0.00  0.00     0.046 C 
BRANCH  14  15
HETATM   15  C           1     -34.086  -4.691 -11.647  0.00  0.00    -0.020 C 
HETATM   16  C           1     -34.243  -5.640 -10.466  0.00  0.00     0.009 C 
HETATM   17  C           1     -32.623  -4.292 -11.785  0.00  0.00     0.009 C 
ENDBRANCH  14  15
ENDBRANCH   1  14
TORSDOF 6
ENDMDL
MODEL 7
REMARK VINA RESULT:      -5.4     15.611     17.814
REMARK  6 active torsions:
REMARK  status: ('A' for Active; 'I' for Inactive)
REMARK    1  A    between atoms: C_1  and  C_15 
REMARK    2  A    between atoms: N_6  and  C_13 
REMARK    3  A    between atoms: N_7  and  C_15 
REMARK       I    between atoms: N_7  and  C_17 
REMARK    4  A    between atoms: C_13  and  C_17 
REMARK    5  A    between atoms: C_13  and  C_14 
REMARK    6  A    between atoms: C_14  and  C_16 
ROOT
HETATM    1  C           1     -20.441  -6.238  -5.284  0.00  0.00     0.275 C 
ENDROOT
BRANCH   1   2
HETATM    2  N           1     -20.854  -7.108  -6.434  0.00  0.00    -0.066 N 
HETATM    3  H           1     -21.635  -7.734  -6.134  0.00  0.00     0.275 HD
HETATM    4  H           1     -21.173  -6.509  -7.228  0.00  0.00     0.275 HD
HETATM    5  H           1     -20.040  -7.690  -6.740  0.00  0.00     0.275 HD
ENDBRANCH   1   2
BRANCH   1   6
HETATM    6  C           1     -21.539  -6.220  -4.249  0.00  0.00     0.248 C 
HETATM    7  O           1     -22.696  -6.186  -4.596  0.00  0.00    -0.271 OA
HETATM    8  N           1     -21.224  -6.241  -2.917  0.00  0.00    -0.349 N 
HETATM    9  H           1     -20.256  -6.269  -2.626  0.00  0.00     0.163 HD
BRANCH   8  10
HETATM   10  C           1     -22.280  -6.223  -1.923  0.00  0.00     0.235 C 
BRANCH  10  11
HETATM   11  C           1     -22.032  -7.310  -0.905  0.00  0.00     0.191 C 
HETATM   12  O           1     -22.910  -7.589  -0.061  0.00  0.00    -0.647 OA
HETATM   13  O           1     -20.947  -7.931  -0.908  0.00  0.00    -0.647 OA
ENDBRANCH  10  11
ENDBRANCH   8  10
ENDBRANCH   1   6
BRANCH   1  14
HETATM   14  C           1     -20.189  -4.822  -5.784  0.00  0.00     0.046 C 
BRANCH  14  15
HETATM   15  C           1     -20.562  -4.730  -7.258  0.00  0.00    -0.020 C 
HETATM   16  C           1     -19.375  -4.195  -8.049  0.00  0.00     0.009 C 
HETATM   17  C           1     -21.747  -3.788  -7.425  0.00  0.00     0.009 C 
ENDBRANCH  14  15
ENDBRANCH   1  14
TORSDOF 6
ENDMDL
MODEL 8
REMARK VINA RESULT:      -5.3     13.998     15.904
REMARK  6 active torsions:
REMARK  status: ('A' for Active; 'I' for Inactive)
REMARK    1  A    between atoms: C_1  and  C_15 
REMARK    2  A    between atoms: N_6  and  C_13 
REMARK    3  A    between atoms: N_7  and  C_15 
REMARK       I    between atoms: N_7  and  C_17 
REMARK    4  A    between atoms: C_13  and  C_17 
REMARK    5  A    between atoms: C_13  and  C_14 
REMARK    6  A    between atoms: C_14  and  C_16 
ROOT
HETATM    1  C           1     -22.481  -4.613  -8.170  0.00  0.00     0.275 C 
ENDROOT
BRANCH   1   2
HETATM    2  N           1     -23.849  -4.151  -7.763  0.00  0.00    -0.066 N 
HETATM    3  H           1     -24.572  -4.723  -8.257  0.00  0.00     0.275 HD
HETATM    4  H           1     -23.963  -4.263  -6.731  0.00  0.00     0.275 HD
HETATM    5  H           1     -23.967  -3.145  -8.021  0.00  0.00     0.275 HD
ENDBRANCH   1   2
BRANCH   1   6
HETATM    6  C           1     -21.599  -4.705  -6.949  0.00  0.00     0.248 C 
HETATM    7  O           1     -20.645  -3.973  -6.837  0.00  0.00    -0.271 OA
HETATM    8  N           1     -21.880  -5.617  -5.968  0.00  0.00    -0.349 N 
HETATM    9  H           1     -22.680  -6.231  -6.061  0.00  0.00     0.163 HD
BRANCH   8  10
HETATM   10  C           1     -21.032  -5.705  -4.795  0.00  0.00     0.235 C 
BRANCH  10  11
HETATM   11  C           1     -21.710  -6.553  -3.746  0.00  0.00     0.191 C 
HETATM   12  O           1     -22.297  -6.009  -2.786  0.00  0.00    -0.647 OA
HETATM   13  O           1     -21.684  -7.798  -3.837  0.00  0.00    -0.647 OA
ENDBRANCH  10  11
ENDBRANCH   8  10
ENDBRANCH   1   6
BRANCH   1  14
HETATM   14  C           1     -21.883  -3.620  -9.157  0.00  0.00     0.046 C 
BRANCH  14  15
HETATM   15  C           1     -21.478  -4.351 -10.430  0.00  0.00    -0.020 C 
HETATM   16  C           1     -20.481  -3.501 -11.207  0.00  0.00     0.009 C 
HETATM   17  C           1     -22.711  -4.598 -11.289  0.00  0.00     0.009 C 
ENDBRANCH  14  15
ENDBRANCH   1  14
TORSDOF 6
ENDMDL
MODEL 9
REMARK VINA RESULT:      -5.2      2.546      5.404
REMARK  6 active torsions:
REMARK  status: ('A' for Active; 'I' for Inactive)
REMARK    1  A    between atoms: C_1  and  C_15 
REMARK    2  A    between atoms: N_6  and  C_13 
REMARK    3  A    between atoms: N_7  and  C_15 
REMARK       I    between atoms: N_7  and  C_17 
REMARK    4  A    between atoms: C_13  and  C_17 
REMARK    5  A    between atoms: C_13  and  C_14 
REMARK    6  A    between atoms: C_14  and  C_16 
ROOT
HETATM    1  C           1     -35.545  -0.943 -12.568  0.00  0.00     0.275 C 
ENDROOT
BRANCH   1   2
HETATM    2  N           1     -35.516  -0.389 -11.174  0.00  0.00    -0.066 N 
HETATM    3  H           1     -35.552  -1.174 -10.486  0.00  0.00     0.275 HD
HETATM    4  H           1     -34.636   0.156 -11.035  0.00  0.00     0.275 HD
HETATM    5  H           1     -36.341   0.237 -11.032  0.00  0.00     0.275 HD
ENDBRANCH   1   2
BRANCH   1   6
HETATM    6  C           1     -34.646  -2.153 -12.646  0.00  0.00     0.248 C 
HETATM    7  O           1     -34.569  -2.783 -13.674  0.00  0.00    -0.271 OA
HETATM    8  N           1     -33.919  -2.537 -11.552  0.00  0.00    -0.349 N 
HETATM    9  H           1     -33.983  -2.009 -10.690  0.00  0.00     0.163 HD
BRANCH   8  10
HETATM   10  C           1     -33.055  -3.700 -11.627  0.00  0.00     0.235 C 
BRANCH  10  11
HETATM   11  C           1     -33.773  -4.898 -11.054  0.00  0.00     0.191 C 
HETATM   12  O           1     -33.242  -6.028 -11.106  0.00  0.00    -0.647 OA
HETATM   13  O           1     -34.897  -4.759 -10.527  0.00  0.00    -0.647 OA
ENDBRANCH  10  11
ENDBRANCH   8  10
ENDBRANCH   1   6
BRANCH   1  14
HETATM   14  C           1     -35.058   0.117 -13.547  0.00  0.00     0.046 C 
BRANCH  14  15
HETATM   15  C           1     -36.132   0.372 -14.595  0.00  0.00    -0.020 C 
HETATM   16  C           1     -37.479  -0.107 -14.069  0.00  0.00     0.009 C 
HETATM   17  C           1     -35.788  -0.385 -15.871  0.00  0.00     0.009 C 
ENDBRANCH  14  15
ENDBRANCH   1  14
TORSDOF 6
ENDMDL
