MODEL 1
REMARK VINA RESULT:      -7.4      0.000      0.000
REMARK  12 active torsions:
REMARK  status: ('A' for Active; 'I' for Inactive)
REMARK    1  A    between atoms: N_2  and  C_15 
REMARK    2  A    between atoms: O_7  and  P_8 
REMARK    3  A    between atoms: P_8  and  O_9 
REMARK    4  A    between atoms: O_9  and  C_10 
REMARK    5  A    between atoms: C_13  and  C_14 
REMARK    6  A    between atoms: C_14  and  C_15 
REMARK    7  A    between atoms: C_15  and  C_16 
REMARK       I    between atoms: C_16  and  N_17 
REMARK    8  A    between atoms: N_17  and  C_21 
REMARK    9  A    between atoms: C_20  and  C_21 
REMARK   10  A    between atoms: C_21  and  C_22 
REMARK   11  A    between atoms: C_22  and  C_23 
REMARK   12  A    between atoms: C_23  and  S_24 
ROOT
HETATM    1  C           1     -33.689  -4.869 -15.477  0.00  0.00     0.278 C 
ENDROOT
BRANCH   1   2
HETATM    2  N           1     -34.842  -5.639 -16.050  0.00  0.00    -0.066 N 
HETATM    3  H           1     -35.404  -5.015 -16.674  0.00  0.00     0.275 HD
HETATM    4  H           1     -34.480  -6.448 -16.604  0.00  0.00     0.275 HD
HETATM    5  H           1     -35.447  -5.990 -15.274  0.00  0.00     0.275 HD
ENDBRANCH   1   2
BRANCH   1   6
HETATM    6  C           1     -33.114  -3.947 -16.544  0.00  0.00     0.081 C 
BRANCH   6   7
HETATM    7  C           1     -31.802  -4.488 -17.018  0.00  0.00    -0.056 A 
HETATM    8  C           1     -31.519  -5.847 -16.886  0.00  0.00     0.010 A 
HETATM    9  C           1     -30.296  -6.351 -17.327  0.00  0.00     0.038 A 
HETATM   10  C           1     -29.355  -5.496 -17.902  0.00  0.00     0.081 A 
HETATM   11  C           1     -29.638  -4.137 -18.033  0.00  0.00     0.038 A 
HETATM   12  C           1     -30.861  -3.632 -17.591  0.00  0.00     0.010 A 
BRANCH  10  13
HETATM   13  O           1     -28.167  -5.986 -18.330  0.00  0.00    -0.247 OA
BRANCH  13  14
HETATM   14  P           1     -26.967  -6.113 -17.258  0.00  0.00     0.411 P 
HETATM   15  O           1     -26.858  -4.852 -16.490  0.00  0.00    -0.624 OA
HETATM   16  O           1     -25.695  -6.371 -17.969  0.00  0.00    -0.624 OA
BRANCH  14  17
HETATM   17  O           1     -27.275  -7.334 -16.246  0.00  0.00    -0.300 OA
HETATM   18  H           1     -26.530  -7.905 -16.320  0.00  0.00     0.223 HD
ENDBRANCH  14  17
ENDBRANCH  13  14
ENDBRANCH  10  13
ENDBRANCH   6   7
ENDBRANCH   1   6
BRANCH   1  19
HETATM   19  C           1     -34.166  -4.049 -14.305  0.00  0.00     0.249 C 
HETATM   20  O           1     -34.606  -2.937 -14.484  0.00  0.00    -0.271 OA
HETATM   21  N           1     -34.102  -4.562 -13.037  0.00  0.00    -0.345 N 
HETATM   22  H           1     -33.734  -5.493 -12.886  0.00  0.00     0.163 HD
BRANCH  21  23
HETATM   23  C           1     -34.560  -3.773 -11.911  0.00  0.00     0.186 C 
BRANCH  23  24
HETATM   24  C           1     -33.416  -2.945 -11.380  0.00  0.00     0.196 C 
HETATM   25  O           1     -33.641  -1.836 -10.846  0.00  0.00    -0.646 OA
HETATM   26  O           1     -32.243  -3.367 -11.474  0.00  0.00    -0.646 OA
ENDBRANCH  23  24
BRANCH  23  27
HETATM   27  C           1     -35.067  -4.699 -10.813  0.00  0.00     0.046 C 
BRANCH  27  28
HETATM   28  C           1     -34.231  -5.972 -10.794  0.00  0.00     0.076 C 
BRANCH  28  29
HETATM   29  S           1     -35.008  -7.192  -9.698  0.00  0.00    -0.173 SA
HETATM   30  C           1     -33.886  -8.561 -10.099  0.00  0.00     0.089 C 
ENDBRANCH  28  29
ENDBRANCH  27  28
ENDBRANCH  23  27
ENDBRANCH  21  23
ENDBRANCH   1  19
TORSDOF 12
ENDMDL
MODEL 2
REMARK VINA RESULT:      -7.2     12.918     14.396
REMARK  12 active torsions:
REMARK  status: ('A' for Active; 'I' for Inactive)
REMARK    1  A    between atoms: N_2  and  C_15 
REMARK    2  A    between atoms: O_7  and  P_8 
REMARK    3  A    between atoms: P_8  and  O_9 
REMARK    4  A    between atoms: O_9  and  C_10 
REMARK    5  A    between atoms: C_13  and  C_14 
REMARK    6  A    between atoms: C_14  and  C_15 
REMARK    7  A    between atoms: C_15  and  C_16 
REMARK       I    between atoms: C_16  and  N_17 
REMARK    8  A    between atoms: N_17  and  C_21 
REMARK    9  A    between atoms: C_20  and  C_21 
REMARK   10  A    between atoms: C_21  and  C_22 
REMARK   11  A    between atoms: C_22  and  C_23 
REMARK   12  A    between atoms: C_23  and  S_24 
ROOT
HETATM    1  C           1     -21.827  -6.578  -4.743  0.00  0.00     0.278 C 
ENDROOT
BRANCH   1   2
HETATM    2  N           1     -22.087  -6.071  -3.356  0.00  0.00    -0.066 N 
HETATM    3  H           1     -21.418  -5.300  -3.134  0.00  0.00     0.275 HD
HETATM    4  H           1     -23.066  -5.711  -3.295  0.00  0.00     0.275 HD
HETATM    5  H           1     -21.960  -6.850  -2.670  0.00  0.00     0.275 HD
ENDBRANCH   1   2
BRANCH   1   6
HETATM    6  C           1     -20.690  -5.781  -5.369  0.00  0.00     0.081 C 
BRANCH   6   7
HETATM    7  C           1     -21.135  -5.226  -6.686  0.00  0.00    -0.056 A 
HETATM    8  C           1     -22.374  -4.594  -6.795  0.00  0.00     0.010 A 
HETATM    9  C           1     -22.789  -4.078  -8.022  0.00  0.00     0.038 A 
HETATM   10  C           1     -21.965  -4.192  -9.142  0.00  0.00     0.081 A 
HETATM   11  C           1     -20.727  -4.825  -9.034  0.00  0.00     0.038 A 
HETATM   12  C           1     -20.311  -5.342  -7.806  0.00  0.00     0.010 A 
BRANCH  10  13
HETATM   13  O           1     -22.368  -3.691 -10.333  0.00  0.00    -0.247 OA
BRANCH  13  14
HETATM   14  P           1     -23.697  -4.312 -11.008  0.00  0.00     0.411 P 
HETATM   15  O           1     -24.806  -3.338 -10.897  0.00  0.00    -0.624 OA
HETATM   16  O           1     -24.066  -5.563 -10.310  0.00  0.00    -0.624 OA
BRANCH  14  17
HETATM   17  O           1     -23.414  -4.629 -12.567  0.00  0.00    -0.300 OA
HETATM   18  H           1     -22.893  -5.413 -12.564  0.00  0.00     0.223 HD
ENDBRANCH  14  17
ENDBRANCH  13  14
ENDBRANCH  10  13
ENDBRANCH   6   7
ENDBRANCH   1   6
BRANCH   1  19
HETATM   19  C           1     -21.445  -8.036  -4.681  0.00  0.00     0.249 C 
HETATM   20  O           1     -21.045  -8.599  -5.673  0.00  0.00    -0.271 OA
HETATM   21  N           1     -21.552  -8.723  -3.501  0.00  0.00    -0.345 N 
HETATM   22  H           1     -21.886  -8.253  -2.671  0.00  0.00     0.163 HD
BRANCH  21  23
HETATM   23  C           1     -21.185 -10.125  -3.443  0.00  0.00     0.186 C 
BRANCH  23  24
HETATM   24  C           1     -22.430 -10.973  -3.518  0.00  0.00     0.196 C 
HETATM   25  O           1     -23.205 -11.035  -2.538  0.00  0.00    -0.646 OA
HETATM   26  O           1     -22.688 -11.614  -4.560  0.00  0.00    -0.646 OA
ENDBRANCH  23  24
BRANCH  23  27
HETATM   27  C           1     -20.458 -10.406  -2.134  0.00  0.00     0.046 C 
BRANCH  27  28
HETATM   28  C           1     -20.491  -9.162  -1.256  0.00  0.00     0.076 C 
BRANCH  28  29
HETATM   29  S           1     -21.351  -9.539   0.297  0.00  0.00    -0.173 SA
HETATM   30  C           1     -22.813  -8.514  -0.032  0.00  0.00     0.089 C 
ENDBRANCH  28  29
ENDBRANCH  27  28
ENDBRANCH  23  27
ENDBRANCH  21  23
ENDBRANCH   1  19
TORSDOF 12
ENDMDL
MODEL 3
REMARK VINA RESULT:      -6.9     13.842     15.217
REMARK  12 active torsions:
REMARK  status: ('A' for Active; 'I' for Inactive)
REMARK    1  A    between atoms: N_2  and  C_15 
REMARK    2  A    between atoms: O_7  and  P_8 
REMARK    3  A    between atoms: P_8  and  O_9 
REMARK    4  A    between atoms: O_9  and  C_10 
REMARK    5  A    between atoms: C_13  and  C_14 
REMARK    6  A    between atoms: C_14  and  C_15 
REMARK    7  A    between atoms: C_15  and  C_16 
REMARK       I    between atoms: C_16  and  N_17 
REMARK    8  A    between atoms: N_17  and  C_21 
REMARK    9  A    between atoms: C_20  and  C_21 
REMARK   10  A    between atoms: C_21  and  C_22 
REMARK   11  A    between atoms: C_22  and  C_23 
REMARK   12  A    between atoms: C_23  and  S_24 
ROOT
HETATM    1  C           1     -21.490  -6.467  -4.871  0.00  0.00     0.278 C 
ENDROOT
BRANCH   1   2
HETATM    2  N           1     -21.857  -5.962  -3.507  0.00  0.00    -0.066 N 
HETATM    3  H           1     -22.752  -6.405  -3.199  0.00  0.00     0.275 HD
HETATM    4  H           1     -21.099  -6.203  -2.830  0.00  0.00     0.275 HD
HETATM    5  H           1     -21.977  -4.924  -3.541  0.00  0.00     0.275 HD
ENDBRANCH   1   2
BRANCH   1   6
HETATM    6  C           1     -20.455  -5.539  -5.494  0.00  0.00     0.081 C 
BRANCH   6   7
HETATM    7  C           1     -20.961  -5.036  -6.809  0.00  0.00    -0.056 A 
HETATM    8  C           1     -20.153  -5.113  -7.943  0.00  0.00     0.010 A 
HETATM    9  C           1     -20.626  -4.644  -9.169  0.00  0.00     0.038 A 
HETATM   10  C           1     -21.906  -4.100  -9.262  0.00  0.00     0.081 A 
HETATM   11  C           1     -22.714  -4.022  -8.127  0.00  0.00     0.038 A 
HETATM   12  C           1     -22.243  -4.491  -6.901  0.00  0.00     0.010 A 
BRANCH  10  13
HETATM   13  O           1     -22.365  -3.645 -10.452  0.00  0.00    -0.247 OA
BRANCH  13  14
HETATM   14  P           1     -23.704  -4.315 -11.056  0.00  0.00     0.411 P 
HETATM   15  O           1     -24.833  -3.367 -10.919  0.00  0.00    -0.624 OA
HETATM   16  O           1     -24.010  -5.559 -10.316  0.00  0.00    -0.624 OA
BRANCH  14  17
HETATM   17  O           1     -23.479  -4.659 -12.618  0.00  0.00    -0.300 OA
HETATM   18  H           1     -24.219  -4.280 -13.060  0.00  0.00     0.223 HD
ENDBRANCH  14  17
ENDBRANCH  13  14
ENDBRANCH  10  13
ENDBRANCH   6   7
ENDBRANCH   1   6
BRANCH   1  19
HETATM   19  C           1     -20.915  -7.856  -4.754  0.00  0.00     0.249 C 
HETATM   20  O           1     -20.876  -8.578  -5.722  0.00  0.00    -0.271 OA
HETATM   21  N           1     -20.438  -8.301  -3.550  0.00  0.00    -0.345 N 
HETATM   22  H           1     -20.471  -7.697  -2.738  0.00  0.00     0.163 HD
BRANCH  21  23
HETATM   23  C           1     -19.886  -9.638  -3.437  0.00  0.00     0.186 C 
BRANCH  23  24
HETATM   24  C           1     -20.352 -10.266  -2.147  0.00  0.00     0.196 C 
HETATM   25  O           1     -20.634 -11.484  -2.111  0.00  0.00    -0.646 OA
HETATM   26  O           1     -20.457  -9.569  -1.115  0.00  0.00    -0.646 OA
ENDBRANCH  23  24
BRANCH  23  27
HETATM   27  C           1     -18.364  -9.561  -3.443  0.00  0.00     0.046 C 
BRANCH  27  28
HETATM   28  C           1     -17.818 -10.387  -4.601  0.00  0.00     0.076 C 
BRANCH  28  29
HETATM   29  S           1     -16.071 -10.773  -4.297  0.00  0.00    -0.173 SA
HETATM   30  C           1     -15.620 -11.030  -6.037  0.00  0.00     0.089 C 
ENDBRANCH  28  29
ENDBRANCH  27  28
ENDBRANCH  23  27
ENDBRANCH  21  23
ENDBRANCH   1  19
TORSDOF 12
ENDMDL
MODEL 4
REMARK VINA RESULT:      -6.9     12.843     14.467
REMARK  12 active torsions:
REMARK  status: ('A' for Active; 'I' for Inactive)
REMARK    1  A    between atoms: N_2  and  C_15 
REMARK    2  A    between atoms: O_7  and  P_8 
REMARK    3  A    between atoms: P_8  and  O_9 
REMARK    4  A    between atoms: O_9  and  C_10 
REMARK    5  A    between atoms: C_13  and  C_14 
REMARK    6  A    between atoms: C_14  and  C_15 
REMARK    7  A    between atoms: C_15  and  C_16 
REMARK       I    between atoms: C_16  and  N_17 
REMARK    8  A    between atoms: N_17  and  C_21 
REMARK    9  A    between atoms: C_20  and  C_21 
REMARK   10  A    between atoms: C_21  and  C_22 
REMARK   11  A    between atoms: C_22  and  C_23 
REMARK   12  A    between atoms: C_23  and  S_24 
ROOT
HETATM    1  C           1     -21.501  -6.670  -4.849  0.00  0.00     0.278 C 
ENDROOT
BRANCH   1   2
HETATM    2  N           1     -21.898  -5.991  -3.572  0.00  0.00    -0.066 N 
HETATM    3  H           1     -22.797  -6.397  -3.224  0.00  0.00     0.275 HD
HETATM    4  H           1     -21.152  -6.134  -2.855  0.00  0.00     0.275 HD
HETATM    5  H           1     -22.023  -4.968  -3.745  0.00  0.00     0.275 HD
ENDBRANCH   1   2
BRANCH   1   6
HETATM    6  C           1     -20.404  -5.864  -5.532  0.00  0.00     0.081 C 
BRANCH   6   7
HETATM    7  C           1     -20.939  -5.260  -6.792  0.00  0.00    -0.056 A 
HETATM    8  C           1     -20.163  -5.263  -7.951  0.00  0.00     0.010 A 
HETATM    9  C           1     -20.661  -4.700  -9.126  0.00  0.00     0.038 A 
HETATM   10  C           1     -21.936  -4.134  -9.142  0.00  0.00     0.081 A 
HETATM   11  C           1     -22.712  -4.130  -7.983  0.00  0.00     0.038 A 
HETATM   12  C           1     -22.214  -4.693  -6.808  0.00  0.00     0.010 A 
BRANCH  10  13
HETATM   13  O           1     -22.420  -3.587 -10.283  0.00  0.00    -0.247 OA
BRANCH  13  14
HETATM   14  P           1     -23.714  -4.272 -10.964  0.00  0.00     0.411 P 
HETATM   15  O           1     -24.862  -3.341 -10.885  0.00  0.00    -0.624 OA
HETATM   16  O           1     -24.043  -5.524 -10.248  0.00  0.00    -0.624 OA
BRANCH  14  17
HETATM   17  O           1     -23.397  -4.604 -12.513  0.00  0.00    -0.300 OA
HETATM   18  H           1     -24.241  -4.704 -12.918  0.00  0.00     0.223 HD
ENDBRANCH  14  17
ENDBRANCH  13  14
ENDBRANCH  10  13
ENDBRANCH   6   7
ENDBRANCH   1   6
BRANCH   1  19
HETATM   19  C           1     -20.992  -8.057  -4.543  0.00  0.00     0.249 C 
HETATM   20  O           1     -19.805  -8.256  -4.441  0.00  0.00    -0.271 OA
HETATM   21  N           1     -21.876  -9.091  -4.381  0.00  0.00    -0.345 N 
HETATM   22  H           1     -22.870  -8.925  -4.467  0.00  0.00     0.163 HD
BRANCH  21  23
HETATM   23  C           1     -21.386 -10.424  -4.088  0.00  0.00     0.186 C 
BRANCH  23  24
HETATM   24  C           1     -21.438 -11.264  -5.340  0.00  0.00     0.196 C 
HETATM   25  O           1     -21.162 -10.755  -6.448  0.00  0.00    -0.646 OA
HETATM   26  O           1     -21.759 -12.471  -5.269  0.00  0.00    -0.646 OA
ENDBRANCH  23  24
BRANCH  23  27
HETATM   27  C           1     -22.257 -11.061  -3.013  0.00  0.00     0.046 C 
BRANCH  27  28
HETATM   28  C           1     -22.113 -10.280  -1.713  0.00  0.00     0.076 C 
BRANCH  28  29
HETATM   29  S           1     -20.372 -10.275  -1.200  0.00  0.00    -0.173 SA
HETATM   30  C           1     -20.684 -10.596   0.560  0.00  0.00     0.089 C 
ENDBRANCH  28  29
ENDBRANCH  27  28
ENDBRANCH  23  27
ENDBRANCH  21  23
ENDBRANCH   1  19
TORSDOF 12
ENDMDL
MODEL 5
REMARK VINA RESULT:      -6.5     13.979     15.493
REMARK  12 active torsions:
REMARK  status: ('A' for Active; 'I' for Inactive)
REMARK    1  A    between atoms: N_2  and  C_15 
REMARK    2  A    between atoms: O_7  and  P_8 
REMARK    3  A    between atoms: P_8  and  O_9 
REMARK    4  A    between atoms: O_9  and  C_10 
REMARK    5  A    between atoms: C_13  and  C_14 
REMARK    6  A    between atoms: C_14  and  C_15 
REMARK    7  A    between atoms: C_15  and  C_16 
REMARK       I    between atoms: C_16  and  N_17 
REMARK    8  A    between atoms: N_17  and  C_21 
REMARK    9  A    between atoms: C_20  and  C_21 
REMARK   10  A    between atoms: C_21  and  C_22 
REMARK   11  A    between atoms: C_22  and  C_23 
REMARK   12  A    between atoms: C_23  and  S_24 
ROOT
HETATM    1  C           1     -21.025  -7.452  -5.230  0.00  0.00     0.278 C 
ENDROOT
BRANCH   1   2
HETATM    2  N           1     -21.472  -7.071  -3.849  0.00  0.00    -0.066 N 
HETATM    3  H           1     -20.892  -7.576  -3.142  0.00  0.00     0.275 HD
HETATM    4  H           1     -21.359  -6.040  -3.719  0.00  0.00     0.275 HD
HETATM    5  H           1     -22.477  -7.330  -3.724  0.00  0.00     0.275 HD
ENDBRANCH   1   2
BRANCH   1   6
HETATM    6  C           1     -20.085  -6.383  -5.772  0.00  0.00     0.081 C 
BRANCH   6   7
HETATM    7  C           1     -20.794  -5.574  -6.811  0.00  0.00    -0.056 A 
HETATM    8  C           1     -22.047  -5.026  -6.534  0.00  0.00     0.010 A 
HETATM    9  C           1     -22.708  -4.271  -7.502  0.00  0.00     0.038 A 
HETATM   10  C           1     -22.117  -4.063  -8.749  0.00  0.00     0.081 A 
HETATM   11  C           1     -20.865  -4.611  -9.026  0.00  0.00     0.038 A 
HETATM   12  C           1     -20.203  -5.367  -8.058  0.00  0.00     0.010 A 
BRANCH  10  13
HETATM   13  O           1     -22.759  -3.330  -9.689  0.00  0.00    -0.247 OA
BRANCH  13  14
HETATM   14  P           1     -23.692  -4.109 -10.753  0.00  0.00     0.411 P 
HETATM   15  O           1     -24.043  -5.443 -10.214  0.00  0.00    -0.624 OA
HETATM   16  O           1     -22.959  -4.268 -12.028  0.00  0.00    -0.624 OA
BRANCH  14  17
HETATM   17  O           1     -25.042  -3.261 -11.010  0.00  0.00    -0.300 OA
HETATM   18  H           1     -25.745  -3.867 -10.848  0.00  0.00     0.223 HD
ENDBRANCH  14  17
ENDBRANCH  13  14
ENDBRANCH  10  13
ENDBRANCH   6   7
ENDBRANCH   1   6
BRANCH   1  19
HETATM   19  C           1     -20.306  -8.776  -5.177  0.00  0.00     0.249 C 
HETATM   20  O           1     -20.814  -9.760  -5.662  0.00  0.00    -0.271 OA
HETATM   21  N           1     -19.077  -8.866  -4.579  0.00  0.00    -0.345 N 
HETATM   22  H           1     -18.651  -8.042  -4.173  0.00  0.00     0.163 HD
BRANCH  21  23
HETATM   23  C           1     -18.387 -10.140  -4.528  0.00  0.00     0.186 C 
BRANCH  23  24
HETATM   24  C           1     -17.640 -10.254  -3.222  0.00  0.00     0.196 C 
HETATM   25  O           1     -17.036  -9.262  -2.758  0.00  0.00    -0.646 OA
HETATM   26  O           1     -17.625 -11.341  -2.603  0.00  0.00    -0.646 OA
ENDBRANCH  23  24
BRANCH  23  27
HETATM   27  C           1     -17.400 -10.230  -5.685  0.00  0.00     0.046 C 
BRANCH  27  28
HETATM   28  C           1     -17.248 -11.684  -6.112  0.00  0.00     0.076 C 
BRANCH  28  29
HETATM   29  S           1     -18.568 -12.112  -7.282  0.00  0.00    -0.173 SA
HETATM   30  C           1     -17.662 -13.440  -8.125  0.00  0.00     0.089 C 
ENDBRANCH  28  29
ENDBRANCH  27  28
ENDBRANCH  23  27
ENDBRANCH  21  23
ENDBRANCH   1  19
TORSDOF 12
ENDMDL
MODEL 6
REMARK VINA RESULT:      -6.3     13.378     15.135
REMARK  12 active torsions:
REMARK  status: ('A' for Active; 'I' for Inactive)
REMARK    1  A    between atoms: N_2  and  C_15 
REMARK    2  A    between atoms: O_7  and  P_8 
REMARK    3  A    between atoms: P_8  and  O_9 
REMARK    4  A    between atoms: O_9  and  C_10 
REMARK    5  A    between atoms: C_13  and  C_14 
REMARK    6  A    between atoms: C_14  and  C_15 
REMARK    7  A    between atoms: C_15  and  C_16 
REMARK       I    between atoms: C_16  and  N_17 
REMARK    8  A    between atoms: N_17  and  C_21 
REMARK    9  A    between atoms: C_20  and  C_21 
REMARK   10  A    between atoms: C_21  and  C_22 
REMARK   11  A    between atoms: C_22  and  C_23 
REMARK   12  A    between atoms: C_23  and  S_24 
ROOT
HETATM    1  C           1     -21.167  -5.614  -6.938  0.00  0.00     0.278 C 
ENDROOT
BRANCH   1   2
HETATM    2  N           1     -19.912  -5.970  -7.679  0.00  0.00    -0.066 N 
HETATM    3  H           1     -19.086  -5.838  -7.051  0.00  0.00     0.275 HD
HETATM    4  H           1     -19.960  -6.967  -7.986  0.00  0.00     0.275 HD
HETATM    5  H           1     -19.814  -5.352  -8.516  0.00  0.00     0.275 HD
ENDBRANCH   1   2
BRANCH   1   6
HETATM    6  C           1     -20.820  -5.237  -5.504  0.00  0.00     0.081 C 
BRANCH   6   7
HETATM    7  C           1     -21.136  -6.384  -4.596  0.00  0.00    -0.056 A 
HETATM    8  C           1     -21.297  -7.666  -5.121  0.00  0.00     0.010 A 
HETATM    9  C           1     -21.591  -8.734  -4.275  0.00  0.00     0.038 A 
HETATM   10  C           1     -21.724  -8.522  -2.902  0.00  0.00     0.081 A 
HETATM   11  C           1     -21.563  -7.240  -2.377  0.00  0.00     0.038 A 
HETATM   12  C           1     -21.269  -6.170  -3.223  0.00  0.00     0.010 A 
BRANCH  10  13
HETATM   13  O           1     -22.009  -9.560  -2.081  0.00  0.00    -0.247 OA
BRANCH  13  14
HETATM   14  P           1     -20.807 -10.188  -1.204  0.00  0.00     0.411 P 
HETATM   15  O           1     -21.000 -11.650  -1.080  0.00  0.00    -0.624 OA
HETATM   16  O           1     -20.806  -9.573   0.142  0.00  0.00    -0.624 OA
BRANCH  14  17
HETATM   17  O           1     -19.396  -9.891  -1.933  0.00  0.00    -0.300 OA
HETATM   18  H           1     -18.969  -9.255  -1.385  0.00  0.00     0.223 HD
ENDBRANCH  14  17
ENDBRANCH  13  14
ENDBRANCH  10  13
ENDBRANCH   6   7
ENDBRANCH   1   6
BRANCH   1  19
HETATM   19  C           1     -21.836  -4.446  -7.618  0.00  0.00     0.249 C 
HETATM   20  O           1     -21.590  -3.317  -7.263  0.00  0.00    -0.271 OA
HETATM   21  N           1     -22.724  -4.663  -8.638  0.00  0.00    -0.345 N 
HETATM   22  H           1     -22.931  -5.608  -8.936  0.00  0.00     0.163 HD
BRANCH  21  23
HETATM   23  C           1     -23.368  -3.540  -9.291  0.00  0.00     0.186 C 
BRANCH  23  24
HETATM   24  C           1     -24.804  -3.891  -9.592  0.00  0.00     0.196 C 
HETATM   25  O           1     -25.644  -2.983  -9.778  0.00  0.00    -0.646 OA
HETATM   26  O           1     -25.154  -5.090  -9.656  0.00  0.00    -0.646 OA
ENDBRANCH  23  24
BRANCH  23  27
HETATM   27  C           1     -22.640  -3.222 -10.591  0.00  0.00     0.046 C 
BRANCH  27  28
HETATM   28  C           1     -22.056  -4.502 -11.173  0.00  0.00     0.076 C 
BRANCH  28  29
HETATM   29  S           1     -20.244  -4.400 -11.164  0.00  0.00    -0.173 SA
HETATM   30  C           1     -20.149  -2.589 -11.075  0.00  0.00     0.089 C 
ENDBRANCH  28  29
ENDBRANCH  27  28
ENDBRANCH  23  27
ENDBRANCH  21  23
ENDBRANCH   1  19
TORSDOF 12
ENDMDL
MODEL 7
REMARK VINA RESULT:      -6.3     13.960     15.341
REMARK  12 active torsions:
REMARK  status: ('A' for Active; 'I' for Inactive)
REMARK    1  A    between atoms: N_2  and  C_15 
REMARK    2  A    between atoms: O_7  and  P_8 
REMARK    3  A    between atoms: P_8  and  O_9 
REMARK    4  A    between atoms: O_9  and  C_10 
REMARK    5  A    between atoms: C_13  and  C_14 
REMARK    6  A    between atoms: C_14  and  C_15 
REMARK    7  A    between atoms: C_15  and  C_16 
REMARK       I    between atoms: C_16  and  N_17 
REMARK    8  A    between atoms: N_17  and  C_21 
REMARK    9  A    between atoms: C_20  and  C_21 
REMARK   10  A    between atoms: C_21  and  C_22 
REMARK   11  A    between atoms: C_22  and  C_23 
REMARK   12  A    between atoms: C_23  and  S_24 
ROOT
HETATM    1  C           1     -21.404  -6.882  -4.489  0.00  0.00     0.278 C 
ENDROOT
BRANCH   1   2
HETATM    2  N           1     -21.133  -5.934  -3.359  0.00  0.00    -0.066 N 
HETATM    3  H           1     -21.803  -5.133  -3.406  0.00  0.00     0.275 HD
HETATM    4  H           1     -21.252  -6.433  -2.448  0.00  0.00     0.275 HD
HETATM    5  H           1     -20.155  -5.573  -3.433  0.00  0.00     0.275 HD
ENDBRANCH   1   2
BRANCH   1   6
HETATM    6  C           1     -20.384  -6.654  -5.597  0.00  0.00     0.081 C 
BRANCH   6   7
HETATM    7  C           1     -20.991  -5.800  -6.666  0.00  0.00    -0.056 A 
HETATM    8  C           1     -22.258  -5.248  -6.482  0.00  0.00     0.010 A 
HETATM    9  C           1     -22.823  -4.452  -7.478  0.00  0.00     0.038 A 
HETATM   10  C           1     -22.121  -4.206  -8.658  0.00  0.00     0.081 A 
HETATM   11  C           1     -20.854  -4.759  -8.842  0.00  0.00     0.038 A 
HETATM   12  C           1     -20.288  -5.556  -7.846  0.00  0.00     0.010 A 
BRANCH  10  13
HETATM   13  O           1     -22.671  -3.433  -9.625  0.00  0.00    -0.247 OA
BRANCH  13  14
HETATM   14  P           1     -23.611  -4.148 -10.726  0.00  0.00     0.411 P 
HETATM   15  O           1     -24.807  -3.311 -10.969  0.00  0.00    -0.624 OA
HETATM   16  O           1     -24.029  -5.477 -10.228  0.00  0.00    -0.624 OA
BRANCH  14  17
HETATM   17  O           1     -22.788  -4.325 -12.105  0.00  0.00    -0.300 OA
HETATM   18  H           1     -23.247  -4.997 -12.577  0.00  0.00     0.223 HD
ENDBRANCH  14  17
ENDBRANCH  13  14
ENDBRANCH  10  13
ENDBRANCH   6   7
ENDBRANCH   1   6
BRANCH   1  19
HETATM   19  C           1     -21.296  -8.301  -3.989  0.00  0.00     0.249 C 
HETATM   20  O           1     -21.556  -9.223  -4.727  0.00  0.00    -0.271 OA
HETATM   21  N           1     -20.904  -8.547  -2.700  0.00  0.00    -0.345 N 
HETATM   22  H           1     -20.686  -7.775  -2.083  0.00  0.00     0.163 HD
BRANCH  21  23
HETATM   23  C           1     -20.802  -9.911  -2.220  0.00  0.00     0.186 C 
BRANCH  23  24
HETATM   24  C           1     -21.528 -10.036  -0.904  0.00  0.00     0.196 C 
HETATM   25  O           1     -22.586 -10.698  -0.833  0.00  0.00    -0.646 OA
HETATM   26  O           1     -21.070  -9.477   0.117  0.00  0.00    -0.646 OA
ENDBRANCH  23  24
BRANCH  23  27
HETATM   27  C           1     -19.334 -10.273  -2.027  0.00  0.00     0.046 C 
BRANCH  27  28
HETATM   28  C           1     -19.199 -11.782  -1.872  0.00  0.00     0.076 C 
BRANCH  28  29
HETATM   29  S           1     -17.631 -12.328  -2.605  0.00  0.00    -0.173 SA
HETATM   30  C           1     -16.565 -11.217  -1.643  0.00  0.00     0.089 C 
ENDBRANCH  28  29
ENDBRANCH  27  28
ENDBRANCH  23  27
ENDBRANCH  21  23
ENDBRANCH   1  19
TORSDOF 12
ENDMDL
MODEL 8
REMARK VINA RESULT:      -6.2     13.498     15.113
REMARK  12 active torsions:
REMARK  status: ('A' for Active; 'I' for Inactive)
REMARK    1  A    between atoms: N_2  and  C_15 
REMARK    2  A    between atoms: O_7  and  P_8 
REMARK    3  A    between atoms: P_8  and  O_9 
REMARK    4  A    between atoms: O_9  and  C_10 
REMARK    5  A    between atoms: C_13  and  C_14 
REMARK    6  A    between atoms: C_14  and  C_15 
REMARK    7  A    between atoms: C_15  and  C_16 
REMARK       I    between atoms: C_16  and  N_17 
REMARK    8  A    between atoms: N_17  and  C_21 
REMARK    9  A    between atoms: C_20  and  C_21 
REMARK   10  A    between atoms: C_21  and  C_22 
REMARK   11  A    between atoms: C_22  and  C_23 
REMARK   12  A    between atoms: C_23  and  S_24 
ROOT
HETATM    1  C           1     -20.412  -7.778  -4.740  0.00  0.00     0.278 C 
ENDROOT
BRANCH   1   2
HETATM    2  N           1     -21.112  -8.364  -5.930  0.00  0.00    -0.066 N 
HETATM    3  H           1     -20.780  -7.889  -6.800  0.00  0.00     0.275 HD
HETATM    4  H           1     -20.902  -9.386  -5.989  0.00  0.00     0.275 HD
HETATM    5  H           1     -22.143  -8.225  -5.830  0.00  0.00     0.275 HD
ENDBRANCH   1   2
BRANCH   1   6
HETATM    6  C           1     -21.108  -6.488  -4.326  0.00  0.00     0.081 C 
BRANCH   6   7
HETATM    7  C           1     -21.318  -5.625  -5.530  0.00  0.00    -0.056 A 
HETATM    8  C           1     -22.593  -5.492  -6.079  0.00  0.00     0.010 A 
HETATM    9  C           1     -22.789  -4.688  -7.201  0.00  0.00     0.038 A 
HETATM   10  C           1     -21.711  -4.016  -7.776  0.00  0.00     0.081 A 
HETATM   11  C           1     -20.435  -4.150  -7.228  0.00  0.00     0.038 A 
HETATM   12  C           1     -20.238  -4.954  -6.105  0.00  0.00     0.010 A 
BRANCH  10  13
HETATM   13  O           1     -21.901  -3.235  -8.866  0.00  0.00    -0.247 OA
BRANCH  13  14
HETATM   14  P           1     -21.849  -3.936 -10.320  0.00  0.00     0.411 P 
HETATM   15  O           1     -20.570  -4.667 -10.469  0.00  0.00    -0.624 OA
HETATM   16  O           1     -21.951  -2.900 -11.371  0.00  0.00    -0.624 OA
BRANCH  14  17
HETATM   17  O           1     -23.080  -4.972 -10.465  0.00  0.00    -0.300 OA
HETATM   18  H           1     -23.384  -4.867 -11.349  0.00  0.00     0.223 HD
ENDBRANCH  14  17
ENDBRANCH  13  14
ENDBRANCH  10  13
ENDBRANCH   6   7
ENDBRANCH   1   6
BRANCH   1  19
HETATM   19  C           1     -20.454  -8.762  -3.597  0.00  0.00     0.249 C 
HETATM   20  O           1     -19.530  -8.828  -2.822  0.00  0.00    -0.271 OA
HETATM   21  N           1     -21.540  -9.582  -3.439  0.00  0.00    -0.345 N 
HETATM   22  H           1     -22.314  -9.527  -4.088  0.00  0.00     0.163 HD
BRANCH  21  23
HETATM   23  C           1     -21.580 -10.528  -2.341  0.00  0.00     0.186 C 
BRANCH  23  24
HETATM   24  C           1     -22.039 -11.871  -2.853  0.00  0.00     0.196 C 
HETATM   25  O           1     -22.085 -12.852  -2.079  0.00  0.00    -0.646 OA
HETATM   26  O           1     -22.372 -12.002  -4.051  0.00  0.00    -0.646 OA
ENDBRANCH  23  24
BRANCH  23  27
HETATM   27  C           1     -22.551 -10.032  -1.277  0.00  0.00     0.046 C 
BRANCH  27  28
HETATM   28  C           1     -21.770  -9.484  -0.090  0.00  0.00     0.076 C 
BRANCH  28  29
HETATM   29  S           1     -22.612  -8.015   0.563  0.00  0.00    -0.173 SA
HETATM   30  C           1     -22.361  -6.975  -0.904  0.00  0.00     0.089 C 
ENDBRANCH  28  29
ENDBRANCH  27  28
ENDBRANCH  23  27
ENDBRANCH  21  23
ENDBRANCH   1  19
TORSDOF 12
ENDMDL
MODEL 9
REMARK VINA RESULT:      -6.2      2.387      3.083
REMARK  12 active torsions:
REMARK  status: ('A' for Active; 'I' for Inactive)
REMARK    1  A    between atoms: N_2  and  C_15 
REMARK    2  A    between atoms: O_7  and  P_8 
REMARK    3  A    between atoms: P_8  and  O_9 
REMARK    4  A    between atoms: O_9  and  C_10 
REMARK    5  A    between atoms: C_13  and  C_14 
REMARK    6  A    between atoms: C_14  and  C_15 
REMARK    7  A    between atoms: C_15  and  C_16 
REMARK       I    between atoms: C_16  and  N_17 
REMARK    8  A    between atoms: N_17  and  C_21 
REMARK    9  A    between atoms: C_20  and  C_21 
REMARK   10  A    between atoms: C_21  and  C_22 
REMARK   11  A    between atoms: C_22  and  C_23 
REMARK   12  A    between atoms: C_23  and  S_24 
ROOT
HETATM    1  C           1     -33.744  -3.765 -15.952  0.00  0.00     0.278 C 
ENDROOT
BRANCH   1   2
HETATM    2  N           1     -34.404  -5.106 -15.834  0.00  0.00    -0.066 N 
HETATM    3  H           1     -35.057  -5.104 -15.017  0.00  0.00     0.275 HD
HETATM    4  H           1     -34.941  -5.309 -16.707  0.00  0.00     0.275 HD
HETATM    5  H           1     -33.676  -5.842 -15.694  0.00  0.00     0.275 HD
ENDBRANCH   1   2
BRANCH   1   6
HETATM    6  C           1     -33.140  -3.618 -17.343  0.00  0.00     0.081 C 
BRANCH   6   7
HETATM    7  C           1     -31.803  -4.287 -17.381  0.00  0.00    -0.056 A 
HETATM    8  C           1     -31.697  -5.652 -17.111  0.00  0.00     0.010 A 
HETATM    9  C           1     -30.450  -6.275 -17.146  0.00  0.00     0.038 A 
HETATM   10  C           1     -29.308  -5.535 -17.451  0.00  0.00     0.081 A 
HETATM   11  C           1     -29.413  -4.170 -17.720  0.00  0.00     0.038 A 
HETATM   12  C           1     -30.660  -3.546 -17.685  0.00  0.00     0.010 A 
BRANCH  10  13
HETATM   13  O           1     -28.097  -6.141 -17.485  0.00  0.00    -0.247 OA
BRANCH  13  14
HETATM   14  P           1     -27.177  -6.073 -16.160  0.00  0.00     0.411 P 
HETATM   15  O           1     -27.770  -5.118 -15.197  0.00  0.00    -0.624 OA
HETATM   16  O           1     -25.816  -5.624 -16.527  0.00  0.00    -0.624 OA
BRANCH  14  17
HETATM   17  O           1     -27.096  -7.538 -15.484  0.00  0.00    -0.300 OA
HETATM   18  H           1     -27.992  -7.791 -15.345  0.00  0.00     0.223 HD
ENDBRANCH  14  17
ENDBRANCH  13  14
ENDBRANCH  10  13
ENDBRANCH   6   7
ENDBRANCH   1   6
BRANCH   1  19
HETATM   19  C           1     -34.767  -2.680 -15.730  0.00  0.00     0.249 C 
HETATM   20  O           1     -35.562  -2.411 -16.599  0.00  0.00    -0.271 OA
HETATM   21  N           1     -34.796  -1.998 -14.542  0.00  0.00    -0.345 N 
HETATM   22  H           1     -34.131  -2.223 -13.814  0.00  0.00     0.163 HD
BRANCH  21  23
HETATM   23  C           1     -35.780  -0.954 -14.329  0.00  0.00     0.186 C 
BRANCH  23  24
HETATM   24  C           1     -35.335   0.305 -15.030  0.00  0.00     0.196 C 
HETATM   25  O           1     -36.068   0.833 -15.894  0.00  0.00    -0.646 OA
HETATM   26  O           1     -34.232   0.821 -14.747  0.00  0.00    -0.646 OA
ENDBRANCH  23  24
BRANCH  23  27
HETATM   27  C           1     -35.917  -0.682 -12.836  0.00  0.00     0.046 C 
BRANCH  27  28
HETATM   28  C           1     -34.739  -1.302 -12.096  0.00  0.00     0.076 C 
BRANCH  28  29
HETATM   29  S           1     -35.340  -2.606 -10.985  0.00  0.00    -0.173 SA
HETATM   30  C           1     -33.783  -3.536 -10.911  0.00  0.00     0.089 C 
ENDBRANCH  28  29
ENDBRANCH  27  28
ENDBRANCH  23  27
ENDBRANCH  21  23
ENDBRANCH   1  19
TORSDOF 12
ENDMDL
