MODEL 1
REMARK VINA RESULT:      -5.7      0.000      0.000
REMARK  9 active torsions:
REMARK  status: ('A' for Active; 'I' for Inactive)
REMARK       I    between atoms: C_5  and  N_10 
REMARK    1  A    between atoms: C_5  and  C_6 
REMARK    2  A    between atoms: C_6  and  C_7 
REMARK    3  A    between atoms: C_6  and  N_8 
REMARK    4  A    between atoms: C_7  and  S_21 
REMARK    5  A    between atoms: N_10  and  C_15 
REMARK    6  A    between atoms: C_13  and  C_20 
REMARK    7  A    between atoms: C_13  and  C_14 
REMARK    8  A    between atoms: C_14  and  C_15 
REMARK    9  A    between atoms: C_15  and  C_16 
ROOT
HETATM    1  C           1     -34.467  -2.555 -12.104  0.00  0.00     0.249 C 
HETATM    2  O           1     -33.677  -2.034 -11.352  0.00  0.00    -0.271 OA
HETATM    3  N           1     -35.512  -1.829 -12.609  0.00  0.00    -0.345 N 
HETATM    4  H           1     -36.174  -2.265 -13.238  0.00  0.00     0.163 HD
ENDROOT
BRANCH   3   5
HETATM    5  C           1     -35.672  -0.435 -12.242  0.00  0.00     0.186 C 
BRANCH   5   6
HETATM    6  C           1     -36.157   0.355 -13.450  0.00  0.00     0.046 C 
BRANCH   6   7
HETATM    7  C           1     -35.090   0.329 -14.536  0.00  0.00     0.116 C 
BRANCH   7   8
HETATM    8  C           1     -35.530  -0.585 -15.653  0.00  0.00     0.172 C 
HETATM    9  O           1     -35.211  -1.793 -15.635  0.00  0.00    -0.648 OA
HETATM   10  O           1     -36.215  -0.134 -16.597  0.00  0.00    -0.648 OA
ENDBRANCH   7   8
ENDBRANCH   6   7
ENDBRANCH   5   6
BRANCH   5  11
HETATM   11  C           1     -36.682  -0.322 -11.127  0.00  0.00     0.196 C 
HETATM   12  O           1     -36.519   0.522 -10.219  0.00  0.00    -0.646 OA
HETATM   13  O           1     -37.681  -1.073 -11.111  0.00  0.00    -0.646 OA
ENDBRANCH   5  11
ENDBRANCH   3   5
BRANCH   1  14
HETATM   14  C           1     -34.301  -4.005 -12.486  0.00  0.00     0.283 C 
BRANCH  14  15
HETATM   15  C           1     -33.358  -4.685 -11.502  0.00  0.00     0.113 C 
BRANCH  15  16
HETATM   16  S           1     -34.237  -6.026 -10.651  0.00  0.00    -0.180 SA
HETATM   17  H           1     -34.400  -6.801 -11.739  0.00  0.00     0.101 HD
ENDBRANCH  15  16
ENDBRANCH  14  15
BRANCH  14  18
HETATM   18  N           1     -33.729  -4.095 -13.870  0.00  0.00    -0.066 N 
HETATM   19  H           1     -32.878  -3.491 -13.935  0.00  0.00     0.275 HD
HETATM   20  H           1     -34.441  -3.769 -14.562  0.00  0.00     0.275 HD
HETATM   21  H           1     -33.470  -5.086 -14.077  0.00  0.00     0.275 HD
ENDBRANCH  14  18
ENDBRANCH   1  14
TORSDOF 9
ENDMDL
MODEL 2
REMARK VINA RESULT:      -5.6      2.848      4.336
REMARK  9 active torsions:
REMARK  status: ('A' for Active; 'I' for Inactive)
REMARK       I    between atoms: C_5  and  N_10 
REMARK    1  A    between atoms: C_5  and  C_6 
REMARK    2  A    between atoms: C_6  and  C_7 
REMARK    3  A    between atoms: C_6  and  N_8 
REMARK    4  A    between atoms: C_7  and  S_21 
REMARK    5  A    between atoms: N_10  and  C_15 
REMARK    6  A    between atoms: C_13  and  C_20 
REMARK    7  A    between atoms: C_13  and  C_14 
REMARK    8  A    between atoms: C_14  and  C_15 
REMARK    9  A    between atoms: C_15  and  C_16 
ROOT
HETATM    1  C           1     -36.746  -0.141 -13.370  0.00  0.00     0.249 C 
HETATM    2  O           1     -37.820  -0.682 -13.494  0.00  0.00    -0.271 OA
HETATM    3  N           1     -36.105  -0.162 -12.161  0.00  0.00    -0.345 N 
HETATM    4  H           1     -35.206   0.291 -12.057  0.00  0.00     0.163 HD
ENDROOT
BRANCH   3   5
HETATM    5  C           1     -36.713  -0.834 -11.028  0.00  0.00     0.186 C 
BRANCH   5   6
HETATM    6  C           1     -35.793  -1.948 -10.546  0.00  0.00     0.046 C 
BRANCH   6   7
HETATM    7  C           1     -34.496  -1.916 -11.343  0.00  0.00     0.116 C 
BRANCH   7   8
HETATM    8  C           1     -34.516  -3.011 -12.382  0.00  0.00     0.172 C 
HETATM    9  O           1     -34.451  -4.208 -12.029  0.00  0.00    -0.648 OA
HETATM   10  O           1     -34.598  -2.720 -13.595  0.00  0.00    -0.648 OA
ENDBRANCH   7   8
ENDBRANCH   6   7
ENDBRANCH   5   6
BRANCH   5  11
HETATM   11  C           1     -36.930   0.158  -9.913  0.00  0.00     0.196 C 
HETATM   12  O           1     -36.232   0.098  -8.878  0.00  0.00    -0.646 OA
HETATM   13  O           1     -37.809   1.041 -10.024  0.00  0.00    -0.646 OA
ENDBRANCH   5  11
ENDBRANCH   3   5
BRANCH   1  14
HETATM   14  C           1     -36.114   0.558 -14.548  0.00  0.00     0.283 C 
BRANCH  14  15
HETATM   15  C           1     -36.799   0.110 -15.832  0.00  0.00     0.113 C 
BRANCH  15  16
HETATM   16  S           1     -35.776  -1.140 -16.660  0.00  0.00    -0.180 SA
HETATM   17  H           1     -35.400  -0.357 -17.687  0.00  0.00     0.101 HD
ENDBRANCH  15  16
ENDBRANCH  14  15
BRANCH  14  18
HETATM   18  N           1     -34.656   0.211 -14.611  0.00  0.00    -0.066 N 
HETATM   19  H           1     -34.100   0.954 -14.131  0.00  0.00     0.275 HD
HETATM   20  H           1     -34.358   0.144 -15.611  0.00  0.00     0.275 HD
HETATM   21  H           1     -34.495  -0.707 -14.138  0.00  0.00     0.275 HD
ENDBRANCH  14  18
ENDBRANCH   1  14
TORSDOF 9
ENDMDL
MODEL 3
REMARK VINA RESULT:      -5.3     13.155     15.303
REMARK  9 active torsions:
REMARK  status: ('A' for Active; 'I' for Inactive)
REMARK       I    between atoms: C_5  and  N_10 
REMARK    1  A    between atoms: C_5  and  C_6 
REMARK    2  A    between atoms: C_6  and  C_7 
REMARK    3  A    between atoms: C_6  and  N_8 
REMARK    4  A    between atoms: C_7  and  S_21 
REMARK    5  A    between atoms: N_10  and  C_15 
REMARK    6  A    between atoms: C_13  and  C_20 
REMARK    7  A    between atoms: C_13  and  C_14 
REMARK    8  A    between atoms: C_14  and  C_15 
REMARK    9  A    between atoms: C_15  and  C_16 
ROOT
HETATM    1  C           1     -21.174  -6.247  -6.063  0.00  0.00     0.249 C 
HETATM    2  O           1     -21.181  -7.218  -6.782  0.00  0.00    -0.271 OA
HETATM    3  N           1     -21.334  -4.997  -6.598  0.00  0.00    -0.345 N 
HETATM    4  H           1     -21.328  -4.184  -5.996  0.00  0.00     0.163 HD
ENDROOT
BRANCH   3   5
HETATM    5  C           1     -21.513  -4.838  -8.029  0.00  0.00     0.186 C 
BRANCH   5   6
HETATM    6  C           1     -22.481  -3.693  -8.295  0.00  0.00     0.046 C 
BRANCH   6   7
HETATM    7  C           1     -23.719  -4.228  -9.002  0.00  0.00     0.116 C 
BRANCH   7   8
HETATM    8  C           1     -23.905  -3.500 -10.311  0.00  0.00     0.172 C 
HETATM    9  O           1     -22.910  -3.201 -11.006  0.00  0.00    -0.648 OA
HETATM   10  O           1     -25.053  -3.197 -10.701  0.00  0.00    -0.648 OA
ENDBRANCH   7   8
ENDBRANCH   6   7
ENDBRANCH   5   6
BRANCH   5  11
HETATM   11  C           1     -20.182  -4.532  -8.670  0.00  0.00     0.196 C 
HETATM   12  O           1     -20.003  -4.767  -9.885  0.00  0.00    -0.646 OA
HETATM   13  O           1     -19.257  -4.043  -7.985  0.00  0.00    -0.646 OA
ENDBRANCH   5  11
ENDBRANCH   3   5
BRANCH   1  14
HETATM   14  C           1     -20.989  -6.412  -4.575  0.00  0.00     0.283 C 
BRANCH  14  15
HETATM   15  C           1     -20.476  -7.815  -4.279  0.00  0.00     0.113 C 
BRANCH  15  16
HETATM   16  S           1     -21.103  -8.361  -2.666  0.00  0.00    -0.180 SA
HETATM   17  H           1     -19.960  -8.148  -1.990  0.00  0.00     0.101 HD
ENDBRANCH  15  16
ENDBRANCH  14  15
BRANCH  14  18
HETATM   18  N           1     -22.302  -6.203  -3.881  0.00  0.00    -0.066 N 
HETATM   19  H           1     -22.335  -6.789  -3.016  0.00  0.00     0.275 HD
HETATM   20  H           1     -23.080  -6.481  -4.520  0.00  0.00     0.275 HD
HETATM   21  H           1     -22.405  -5.195  -3.624  0.00  0.00     0.275 HD
ENDBRANCH  14  18
ENDBRANCH   1  14
TORSDOF 9
ENDMDL
MODEL 4
REMARK VINA RESULT:      -5.0      3.392      6.209
REMARK  9 active torsions:
REMARK  status: ('A' for Active; 'I' for Inactive)
REMARK       I    between atoms: C_5  and  N_10 
REMARK    1  A    between atoms: C_5  and  C_6 
REMARK    2  A    between atoms: C_6  and  C_7 
REMARK    3  A    between atoms: C_6  and  N_8 
REMARK    4  A    between atoms: C_7  and  S_21 
REMARK    5  A    between atoms: N_10  and  C_15 
REMARK    6  A    between atoms: C_13  and  C_20 
REMARK    7  A    between atoms: C_13  and  C_14 
REMARK    8  A    between atoms: C_14  and  C_15 
REMARK    9  A    between atoms: C_15  and  C_16 
ROOT
HETATM    1  C           1     -35.429  -1.680 -10.839  0.00  0.00     0.249 C 
HETATM    2  O           1     -34.664  -1.425  -9.938  0.00  0.00    -0.271 OA
HETATM    3  N           1     -35.310  -2.859 -11.525  0.00  0.00    -0.345 N 
HETATM    4  H           1     -35.950  -3.072 -12.279  0.00  0.00     0.163 HD
ENDROOT
BRANCH   3   5
HETATM    5  C           1     -34.266  -3.802 -11.172  0.00  0.00     0.186 C 
BRANCH   5   6
HETATM    6  C           1     -34.895  -5.138 -10.800  0.00  0.00     0.046 C 
BRANCH   6   7
HETATM    7  C           1     -33.832  -6.228 -10.836  0.00  0.00     0.116 C 
BRANCH   7   8
HETATM    8  C           1     -34.350  -7.460 -10.135  0.00  0.00     0.172 C 
HETATM    9  O           1     -33.676  -8.512 -10.142  0.00  0.00    -0.648 OA
HETATM   10  O           1     -35.452  -7.427  -9.546  0.00  0.00    -0.648 OA
ENDBRANCH   7   8
ENDBRANCH   6   7
ENDBRANCH   5   6
BRANCH   5  11
HETATM   11  C           1     -33.341  -3.991 -12.349  0.00  0.00     0.196 C 
HETATM   12  O           1     -32.136  -4.263 -12.160  0.00  0.00    -0.646 OA
HETATM   13  O           1     -33.781  -3.875 -13.514  0.00  0.00    -0.646 OA
ENDBRANCH   5  11
ENDBRANCH   3   5
BRANCH   1  14
HETATM   14  C           1     -36.515  -0.699 -11.206  0.00  0.00     0.283 C 
BRANCH  14  15
HETATM   15  C           1     -36.511  -0.477 -12.712  0.00  0.00     0.113 C 
BRANCH  15  16
HETATM   16  S           1     -35.019   0.442 -13.185  0.00  0.00    -0.180 SA
HETATM   17  H           1     -34.788  -0.240 -14.321  0.00  0.00     0.101 HD
ENDBRANCH  15  16
ENDBRANCH  14  15
BRANCH  14  18
HETATM   18  N           1     -36.267   0.605 -10.508  0.00  0.00    -0.066 N 
HETATM   19  H           1     -36.750   1.374 -11.026  0.00  0.00     0.275 HD
HETATM   20  H           1     -35.240   0.794 -10.480  0.00  0.00     0.275 HD
HETATM   21  H           1     -36.639   0.555  -9.533  0.00  0.00     0.275 HD
ENDBRANCH  14  18
ENDBRANCH   1  14
TORSDOF 9
ENDMDL
MODEL 5
REMARK VINA RESULT:      -4.8     15.619     17.545
REMARK  9 active torsions:
REMARK  status: ('A' for Active; 'I' for Inactive)
REMARK       I    between atoms: C_5  and  N_10 
REMARK    1  A    between atoms: C_5  and  C_6 
REMARK    2  A    between atoms: C_6  and  C_7 
REMARK    3  A    between atoms: C_6  and  N_8 
REMARK    4  A    between atoms: C_7  and  S_21 
REMARK    5  A    between atoms: N_10  and  C_15 
REMARK    6  A    between atoms: C_13  and  C_20 
REMARK    7  A    between atoms: C_13  and  C_14 
REMARK    8  A    between atoms: C_14  and  C_15 
REMARK    9  A    between atoms: C_15  and  C_16 
ROOT
HETATM    1  C           1     -20.991  -5.158  -6.812  0.00  0.00     0.249 C 
HETATM    2  O           1     -20.385  -4.387  -6.105  0.00  0.00    -0.271 OA
HETATM    3  N           1     -21.255  -6.427  -6.372  0.00  0.00    -0.345 N 
HETATM    4  H           1     -21.761  -7.073  -6.964  0.00  0.00     0.163 HD
ENDROOT
BRANCH   3   5
HETATM    5  C           1     -20.809  -6.847  -5.057  0.00  0.00     0.186 C 
BRANCH   5   6
HETATM    6  C           1     -21.969  -6.756  -4.075  0.00  0.00     0.046 C 
BRANCH   6   7
HETATM    7  C           1     -21.486  -6.130  -2.774  0.00  0.00     0.116 C 
BRANCH   7   8
HETATM    8  C           1     -21.798  -7.056  -1.623  0.00  0.00     0.172 C 
HETATM    9  O           1     -22.739  -6.790  -0.846  0.00  0.00    -0.648 OA
HETATM   10  O           1     -21.115  -8.088  -1.449  0.00  0.00    -0.648 OA
ENDBRANCH   7   8
ENDBRANCH   6   7
ENDBRANCH   5   6
BRANCH   5  11
HETATM   11  C           1     -20.317  -8.272  -5.125  0.00  0.00     0.196 C 
HETATM   12  O           1     -20.987  -9.190  -4.606  0.00  0.00    -0.646 OA
HETATM   13  O           1     -19.238  -8.533  -5.701  0.00  0.00    -0.646 OA
ENDBRANCH   5  11
ENDBRANCH   3   5
BRANCH   1  14
HETATM   14  C           1     -21.455  -4.721  -8.180  0.00  0.00     0.283 C 
BRANCH  14  15
HETATM   15  C           1     -20.249  -4.343  -9.029  0.00  0.00     0.113 C 
BRANCH  15  16
HETATM   16  S           1     -20.771  -4.110 -10.752  0.00  0.00    -0.180 SA
HETATM   17  H           1     -19.719  -4.740 -11.304  0.00  0.00     0.101 HD
ENDBRANCH  15  16
ENDBRANCH  14  15
BRANCH  14  18
HETATM   18  N           1     -22.364  -3.536  -8.044  0.00  0.00    -0.066 N 
HETATM   19  H           1     -22.639  -3.198  -8.994  0.00  0.00     0.275 HD
HETATM   20  H           1     -21.865  -2.773  -7.534  0.00  0.00     0.275 HD
HETATM   21  H           1     -23.219  -3.811  -7.511  0.00  0.00     0.275 HD
ENDBRANCH  14  18
ENDBRANCH   1  14
TORSDOF 9
ENDMDL
MODEL 6
REMARK VINA RESULT:      -4.6      3.265      4.836
REMARK  9 active torsions:
REMARK  status: ('A' for Active; 'I' for Inactive)
REMARK       I    between atoms: C_5  and  N_10 
REMARK    1  A    between atoms: C_5  and  C_6 
REMARK    2  A    between atoms: C_6  and  C_7 
REMARK    3  A    between atoms: C_6  and  N_8 
REMARK    4  A    between atoms: C_7  and  S_21 
REMARK    5  A    between atoms: N_10  and  C_15 
REMARK    6  A    between atoms: C_13  and  C_20 
REMARK    7  A    between atoms: C_13  and  C_14 
REMARK    8  A    between atoms: C_14  and  C_15 
REMARK    9  A    between atoms: C_15  and  C_16 
ROOT
HETATM    1  C           1     -35.837  -0.688 -14.084  0.00  0.00     0.249 C 
HETATM    2  O           1     -36.990  -1.018 -13.936  0.00  0.00    -0.271 OA
HETATM    3  N           1     -34.908  -0.996 -13.126  0.00  0.00    -0.345 N 
HETATM    4  H           1     -33.943  -0.719 -13.250  0.00  0.00     0.163 HD
ENDROOT
BRANCH   3   5
HETATM    5  C           1     -35.308  -1.718 -11.933  0.00  0.00     0.186 C 
BRANCH   5   6
HETATM    6  C           1     -34.083  -2.358 -11.294  0.00  0.00     0.046 C 
BRANCH   6   7
HETATM    7  C           1     -34.267  -3.869 -11.245  0.00  0.00     0.116 C 
BRANCH   7   8
HETATM    8  C           1     -34.382  -4.408 -12.650  0.00  0.00     0.172 C 
HETATM    9  O           1     -35.138  -5.374 -12.888  0.00  0.00    -0.648 OA
HETATM   10  O           1     -33.720  -3.889 -13.575  0.00  0.00    -0.648 OA
ENDBRANCH   7   8
ENDBRANCH   6   7
ENDBRANCH   5   6
BRANCH   5  11
HETATM   11  C           1     -35.944  -0.760 -10.957  0.00  0.00     0.196 C 
HETATM   12  O           1     -35.768   0.471 -11.083  0.00  0.00    -0.646 OA
HETATM   13  O           1     -36.648  -1.198 -10.021  0.00  0.00    -0.646 OA
ENDBRANCH   5  11
ENDBRANCH   3   5
BRANCH   1  14
HETATM   14  C           1     -35.421   0.062 -15.325  0.00  0.00     0.283 C 
BRANCH  14  15
HETATM   15  C           1     -35.307   1.547 -15.007  0.00  0.00     0.113 C 
BRANCH  15  16
HETATM   16  S           1     -36.186   2.507 -16.273  0.00  0.00    -0.180 SA
HETATM   17  H           1     -36.150   3.678 -15.612  0.00  0.00     0.101 HD
ENDBRANCH  15  16
ENDBRANCH  14  15
BRANCH  14  18
HETATM   18  N           1     -36.447  -0.141 -16.400  0.00  0.00    -0.066 N 
HETATM   19  H           1     -36.668   0.777 -16.849  0.00  0.00     0.275 HD
HETATM   20  H           1     -37.315  -0.542 -15.980  0.00  0.00     0.275 HD
HETATM   21  H           1     -36.072  -0.800 -17.120  0.00  0.00     0.275 HD
ENDBRANCH  14  18
ENDBRANCH   1  14
TORSDOF 9
ENDMDL
MODEL 7
REMARK VINA RESULT:      -4.5      2.954      5.327
REMARK  9 active torsions:
REMARK  status: ('A' for Active; 'I' for Inactive)
REMARK       I    between atoms: C_5  and  N_10 
REMARK    1  A    between atoms: C_5  and  C_6 
REMARK    2  A    between atoms: C_6  and  C_7 
REMARK    3  A    between atoms: C_6  and  N_8 
REMARK    4  A    between atoms: C_7  and  S_21 
REMARK    5  A    between atoms: N_10  and  C_15 
REMARK    6  A    between atoms: C_13  and  C_20 
REMARK    7  A    between atoms: C_13  and  C_14 
REMARK    8  A    between atoms: C_14  and  C_15 
REMARK    9  A    between atoms: C_15  and  C_16 
ROOT
HETATM    1  C           1     -36.142  -0.232 -13.162  0.00  0.00     0.249 C 
HETATM    2  O           1     -37.103  -0.966 -13.181  0.00  0.00    -0.271 OA
HETATM    3  N           1     -35.325  -0.203 -12.065  0.00  0.00    -0.345 N 
HETATM    4  H           1     -34.521   0.411 -12.049  0.00  0.00     0.163 HD
ENDROOT
BRANCH   3   5
HETATM    5  C           1     -35.611  -1.051 -10.923  0.00  0.00     0.186 C 
BRANCH   5   6
HETATM    6  C           1     -37.089  -0.944 -10.571  0.00  0.00     0.046 C 
BRANCH   6   7
HETATM    7  C           1     -37.237  -0.633  -9.088  0.00  0.00     0.116 C 
BRANCH   7   8
HETATM    8  C           1     -37.052   0.848  -8.863  0.00  0.00     0.172 C 
HETATM    9  O           1     -36.149   1.256  -8.102  0.00  0.00    -0.648 OA
HETATM   10  O           1     -37.801   1.666  -9.439  0.00  0.00    -0.648 OA
ENDBRANCH   7   8
ENDBRANCH   6   7
ENDBRANCH   5   6
BRANCH   5  11
HETATM   11  C           1     -35.277  -2.482 -11.266  0.00  0.00     0.196 C 
HETATM   12  O           1     -36.063  -3.401 -10.949  0.00  0.00    -0.646 OA
HETATM   13  O           1     -34.213  -2.748 -11.867  0.00  0.00    -0.646 OA
ENDBRANCH   5  11
ENDBRANCH   3   5
BRANCH   1  14
HETATM   14  C           1     -35.844   0.650 -14.350  0.00  0.00     0.283 C 
BRANCH  14  15
HETATM   15  C           1     -36.730   0.244 -15.519  0.00  0.00     0.113 C 
BRANCH  15  16
HETATM   16  S           1     -35.855  -0.965 -16.552  0.00  0.00    -0.180 SA
HETATM   17  H           1     -34.627  -0.696 -16.073  0.00  0.00     0.101 HD
ENDBRANCH  15  16
ENDBRANCH  14  15
BRANCH  14  18
HETATM   18  N           1     -34.403   0.496 -14.737  0.00  0.00    -0.066 N 
HETATM   19  H           1     -33.859   0.142 -13.918  0.00  0.00     0.275 HD
HETATM   20  H           1     -34.023   1.423 -15.034  0.00  0.00     0.275 HD
HETATM   21  H           1     -34.325  -0.182 -15.528  0.00  0.00     0.275 HD
ENDBRANCH  14  18
ENDBRANCH   1  14
TORSDOF 9
ENDMDL
MODEL 8
REMARK VINA RESULT:      -4.4     16.568     18.463
REMARK  9 active torsions:
REMARK  status: ('A' for Active; 'I' for Inactive)
REMARK       I    between atoms: C_5  and  N_10 
REMARK    1  A    between atoms: C_5  and  C_6 
REMARK    2  A    between atoms: C_6  and  C_7 
REMARK    3  A    between atoms: C_6  and  N_8 
REMARK    4  A    between atoms: C_7  and  S_21 
REMARK    5  A    between atoms: N_10  and  C_15 
REMARK    6  A    between atoms: C_13  and  C_20 
REMARK    7  A    between atoms: C_13  and  C_14 
REMARK    8  A    between atoms: C_14  and  C_15 
REMARK    9  A    between atoms: C_15  and  C_16 
ROOT
HETATM    1  C           1     -20.850  -9.769  -2.243  0.00  0.00     0.249 C 
HETATM    2  O           1     -19.738  -9.545  -1.826  0.00  0.00    -0.271 OA
HETATM    3  N           1     -21.865  -8.884  -1.998  0.00  0.00    -0.345 N 
HETATM    4  H           1     -22.796  -9.072  -2.348  0.00  0.00     0.163 HD
ENDROOT
BRANCH   3   5
HETATM    5  C           1     -21.606  -7.676  -1.238  0.00  0.00     0.186 C 
BRANCH   5   6
HETATM    6  C           1     -22.196  -6.479  -1.971  0.00  0.00     0.046 C 
BRANCH   6   7
HETATM    7  C           1     -21.362  -6.180  -3.209  0.00  0.00     0.116 C 
BRANCH   7   8
HETATM    8  C           1     -22.072  -6.706  -4.433  0.00  0.00     0.172 C 
HETATM    9  O           1     -22.857  -5.967  -5.065  0.00  0.00    -0.648 OA
HETATM   10  O           1     -21.874  -7.880  -4.815  0.00  0.00    -0.648 OA
ENDBRANCH   7   8
ENDBRANCH   6   7
ENDBRANCH   5   6
BRANCH   5  11
HETATM   11  C           1     -22.242  -7.796   0.126  0.00  0.00     0.196 C 
HETATM   12  O           1     -21.551  -8.140   1.109  0.00  0.00    -0.646 OA
HETATM   13  O           1     -23.459  -7.550   0.271  0.00  0.00    -0.646 OA
ENDBRANCH   5  11
ENDBRANCH   3   5
BRANCH   1  14
HETATM   14  C           1     -21.119 -11.025  -3.035  0.00  0.00     0.283 C 
BRANCH  14  15
HETATM   15  C           1     -19.996 -11.243  -4.040  0.00  0.00     0.113 C 
BRANCH  15  16
HETATM   16  S           1     -20.701 -11.451  -5.699  0.00  0.00    -0.180 SA
HETATM   17  H           1     -19.828 -12.390  -6.107  0.00  0.00     0.101 HD
ENDBRANCH  15  16
ENDBRANCH  14  15
BRANCH  14  18
HETATM   18  N           1     -22.423 -10.887  -3.764  0.00  0.00    -0.066 N 
HETATM   19  H           1     -23.178 -11.360  -3.217  0.00  0.00     0.275 HD
HETATM   20  H           1     -22.342 -11.333  -4.705  0.00  0.00     0.275 HD
HETATM   21  H           1     -22.654  -9.875  -3.876  0.00  0.00     0.275 HD
ENDBRANCH  14  18
ENDBRANCH   1  14
TORSDOF 9
ENDMDL
MODEL 9
REMARK VINA RESULT:      -4.3     15.730     17.863
REMARK  9 active torsions:
REMARK  status: ('A' for Active; 'I' for Inactive)
REMARK       I    between atoms: C_5  and  N_10 
REMARK    1  A    between atoms: C_5  and  C_6 
REMARK    2  A    between atoms: C_6  and  C_7 
REMARK    3  A    between atoms: C_6  and  N_8 
REMARK    4  A    between atoms: C_7  and  S_21 
REMARK    5  A    between atoms: N_10  and  C_15 
REMARK    6  A    between atoms: C_13  and  C_20 
REMARK    7  A    between atoms: C_13  and  C_14 
REMARK    8  A    between atoms: C_14  and  C_15 
REMARK    9  A    between atoms: C_15  and  C_16 
ROOT
HETATM    1  C           1     -21.404  -5.931  -5.396  0.00  0.00     0.249 C 
HETATM    2  O           1     -22.603  -5.794  -5.471  0.00  0.00    -0.271 OA
HETATM    3  N           1     -20.868  -6.783  -4.468  0.00  0.00    -0.345 N 
HETATM    4  H           1     -19.865  -6.896  -4.405  0.00  0.00     0.163 HD
ENDROOT
BRANCH   3   5
HETATM    5  C           1     -21.739  -7.522  -3.574  0.00  0.00     0.186 C 
BRANCH   5   6
HETATM    6  C           1     -21.270  -8.968  -3.491  0.00  0.00     0.046 C 
BRANCH   6   7
HETATM    7  C           1     -21.124  -9.537  -4.896  0.00  0.00     0.116 C 
BRANCH   7   8
HETATM    8  C           1     -19.663  -9.754  -5.202  0.00  0.00     0.172 C 
HETATM    9  O           1     -19.099 -10.809  -4.841  0.00  0.00    -0.648 OA
HETATM   10  O           1     -19.016  -8.879  -5.818  0.00  0.00    -0.648 OA
ENDBRANCH   7   8
ENDBRANCH   6   7
ENDBRANCH   5   6
BRANCH   5  11
HETATM   11  C           1     -21.696  -6.898  -2.201  0.00  0.00     0.196 C 
HETATM   12  O           1     -22.255  -5.799  -1.996  0.00  0.00    -0.646 OA
HETATM   13  O           1     -21.101  -7.481  -1.269  0.00  0.00    -0.646 OA
ENDBRANCH   5  11
ENDBRANCH   3   5
BRANCH   1  14
HETATM   14  C           1     -20.498  -5.162  -6.326  0.00  0.00     0.283 C 
BRANCH  14  15
HETATM   15  C           1     -21.334  -4.238  -7.201  0.00  0.00     0.113 C 
BRANCH  15  16
HETATM   16  S           1     -20.703  -4.281  -8.903  0.00  0.00    -0.180 SA
HETATM   17  H           1     -20.125  -5.492  -8.808  0.00  0.00     0.101 HD
ENDBRANCH  15  16
ENDBRANCH  14  15
BRANCH  14  18
HETATM   18  N           1     -19.741  -6.122  -7.194  0.00  0.00    -0.066 N 
HETATM   19  H           1     -20.265  -7.025  -7.253  0.00  0.00     0.275 HD
HETATM   20  H           1     -18.797  -6.293  -6.781  0.00  0.00     0.275 HD
HETATM   21  H           1     -19.634  -5.718  -8.151  0.00  0.00     0.275 HD
ENDBRANCH  14  18
ENDBRANCH   1  14
TORSDOF 9
ENDMDL
