MODEL 1
REMARK VINA RESULT:      -6.9      0.000      0.000
REMARK  8 active torsions:
REMARK  status: ('A' for Active; 'I' for Inactive)
REMARK    1  A    between atoms: N_1  and  C_16 
REMARK       I    between atoms: N_1  and  C_3 
REMARK    2  A    between atoms: C_3  and  C_18 
REMARK    3  A    between atoms: C_10  and  C_16 
REMARK    4  A    between atoms: C_13  and  C_15 
REMARK    5  A    between atoms: C_15  and  C_16 
REMARK    6  A    between atoms: C_17  and  C_19 
REMARK    7  A    between atoms: C_18  and  C_19 
REMARK    8  A    between atoms: C_18  and  N_20 
ROOT
HETATM    1  N           1     -34.980  -1.211 -12.363  0.00  0.00    -0.344 N 
HETATM    2  C           1     -34.335  -2.415 -12.452  0.00  0.00     0.249 C 
HETATM    3  O           1     -34.477  -3.105 -13.434  0.00  0.00    -0.271 OA
HETATM    4  H           1     -34.863  -0.634 -11.541  0.00  0.00     0.163 HD
ENDROOT
BRANCH   2   5
HETATM    5  C           1     -33.447  -2.880 -11.324  0.00  0.00     0.278 C 
BRANCH   5   6
HETATM    6  C           1     -34.098  -4.063 -10.620  0.00  0.00     0.021 C 
HETATM    7  C           1     -35.608  -4.005 -10.817  0.00  0.00     0.012 C 
BRANCH   6   8
HETATM    8  C           1     -33.560  -5.362 -11.207  0.00  0.00     0.002 C 
HETATM    9  C           1     -34.316  -6.541 -10.608  0.00  0.00     0.005 C 
ENDBRANCH   6   8
ENDBRANCH   5   6
BRANCH   5  10
HETATM   10  N           1     -33.256  -1.760 -10.345  0.00  0.00    -0.066 N 
HETATM   11  H           1     -32.509  -1.117 -10.694  0.00  0.00     0.275 HD
HETATM   12  H           1     -32.972  -2.151  -9.418  0.00  0.00     0.275 HD
HETATM   13  H           1     -34.151  -1.231 -10.241  0.00  0.00     0.275 HD
ENDBRANCH   5  10
ENDBRANCH   2   5
BRANCH   1  14
HETATM   14  C           1     -35.834  -0.764 -13.447  0.00  0.00     0.195 C 
BRANCH  14  15
HETATM   15  C           1     -35.083   0.229 -14.300  0.00  0.00     0.197 C 
HETATM   16  O           1     -34.779   1.348 -13.834  0.00  0.00    -0.646 OA
HETATM   17  O           1     -34.765  -0.068 -15.472  0.00  0.00    -0.646 OA
ENDBRANCH  14  15
BRANCH  14  18
HETATM   18  C           1     -37.078  -0.102 -12.872  0.00  0.00     0.149 C 
BRANCH  18  19
HETATM   19  C           1     -37.088  -0.263 -11.372  0.00  0.00     0.175 C 
HETATM   20  O           1     -37.759  -1.177 -10.846  0.00  0.00    -0.648 OA
HETATM   21  O           1     -36.425   0.518 -10.654  0.00  0.00    -0.648 OA
ENDBRANCH  18  19
ENDBRANCH  14  18
ENDBRANCH   1  14
TORSDOF 8
ENDMDL
MODEL 2
REMARK VINA RESULT:      -6.7      1.512      2.908
REMARK  8 active torsions:
REMARK  status: ('A' for Active; 'I' for Inactive)
REMARK    1  A    between atoms: N_1  and  C_16 
REMARK       I    between atoms: N_1  and  C_3 
REMARK    2  A    between atoms: C_3  and  C_18 
REMARK    3  A    between atoms: C_10  and  C_16 
REMARK    4  A    between atoms: C_13  and  C_15 
REMARK    5  A    between atoms: C_15  and  C_16 
REMARK    6  A    between atoms: C_17  and  C_19 
REMARK    7  A    between atoms: C_18  and  C_19 
REMARK    8  A    between atoms: C_18  and  N_20 
ROOT
HETATM    1  N           1     -34.863  -1.836 -12.468  0.00  0.00    -0.344 N 
HETATM    2  C           1     -33.983  -2.547 -11.697  0.00  0.00     0.249 C 
HETATM    3  O           1     -33.353  -1.990 -10.830  0.00  0.00    -0.271 OA
HETATM    4  H           1     -35.390  -2.303 -13.195  0.00  0.00     0.163 HD
ENDROOT
BRANCH   2   5
HETATM    5  C           1     -33.800  -4.027 -11.931  0.00  0.00     0.278 C 
BRANCH   5   6
HETATM    6  C           1     -34.280  -4.797 -10.708  0.00  0.00     0.021 C 
HETATM    7  C           1     -35.793  -4.670 -10.587  0.00  0.00     0.012 C 
BRANCH   6   8
HETATM    8  C           1     -33.905  -6.266 -10.855  0.00  0.00     0.002 C 
HETATM    9  C           1     -34.786  -7.109  -9.942  0.00  0.00     0.005 C 
ENDBRANCH   6   8
ENDBRANCH   5   6
BRANCH   5  10
HETATM   10  N           1     -32.348  -4.319 -12.167  0.00  0.00    -0.066 N 
HETATM   11  H           1     -31.985  -4.922 -11.395  0.00  0.00     0.275 HD
HETATM   12  H           1     -31.812  -3.423 -12.192  0.00  0.00     0.275 HD
HETATM   13  H           1     -32.237  -4.817 -13.079  0.00  0.00     0.275 HD
ENDBRANCH   5  10
ENDBRANCH   2   5
BRANCH   1  14
HETATM   14  C           1     -35.039  -0.415 -12.244  0.00  0.00     0.195 C 
BRANCH  14  15
HETATM   15  C           1     -36.254  -0.189 -11.378  0.00  0.00     0.197 C 
HETATM   16  O           1     -37.237  -0.956 -11.469  0.00  0.00    -0.646 OA
HETATM   17  O           1     -36.277   0.764 -10.570  0.00  0.00    -0.646 OA
ENDBRANCH  14  15
BRANCH  14  18
HETATM   18  C           1     -35.229   0.290 -13.581  0.00  0.00     0.149 C 
BRANCH  18  19
HETATM   19  C           1     -35.820  -0.675 -14.579  0.00  0.00     0.175 C 
HETATM   20  O           1     -35.070  -1.415 -15.251  0.00  0.00    -0.648 OA
HETATM   21  O           1     -37.059  -0.734 -14.735  0.00  0.00    -0.648 OA
ENDBRANCH  18  19
ENDBRANCH  14  18
ENDBRANCH   1  14
TORSDOF 8
ENDMDL
MODEL 3
REMARK VINA RESULT:      -6.4      1.644      2.734
REMARK  8 active torsions:
REMARK  status: ('A' for Active; 'I' for Inactive)
REMARK    1  A    between atoms: N_1  and  C_16 
REMARK       I    between atoms: N_1  and  C_3 
REMARK    2  A    between atoms: C_3  and  C_18 
REMARK    3  A    between atoms: C_10  and  C_16 
REMARK    4  A    between atoms: C_13  and  C_15 
REMARK    5  A    between atoms: C_15  and  C_16 
REMARK    6  A    between atoms: C_17  and  C_19 
REMARK    7  A    between atoms: C_18  and  C_19 
REMARK    8  A    between atoms: C_18  and  N_20 
ROOT
HETATM    1  N           1     -34.918  -1.489 -13.918  0.00  0.00    -0.344 N 
HETATM    2  C           1     -35.057  -1.974 -12.646  0.00  0.00     0.249 C 
HETATM    3  O           1     -36.155  -2.067 -12.151  0.00  0.00    -0.271 OA
HETATM    4  H           1     -33.998  -1.411 -14.333  0.00  0.00     0.163 HD
ENDROOT
BRANCH   2   5
HETATM    5  C           1     -33.837  -2.392 -11.861  0.00  0.00     0.278 C 
BRANCH   5   6
HETATM    6  C           1     -33.750  -3.913 -11.831  0.00  0.00     0.021 C 
HETATM    7  C           1     -32.322  -4.346 -12.141  0.00  0.00     0.012 C 
BRANCH   6   8
HETATM    8  C           1     -34.142  -4.416 -10.448  0.00  0.00     0.002 C 
HETATM    9  C           1     -34.286  -5.932 -10.481  0.00  0.00     0.005 C 
ENDBRANCH   6   8
ENDBRANCH   5   6
BRANCH   5  10
HETATM   10  N           1     -33.943  -1.870 -10.459  0.00  0.00    -0.066 N 
HETATM   11  H           1     -33.748  -2.644  -9.784  0.00  0.00     0.275 HD
HETATM   12  H           1     -34.906  -1.501 -10.296  0.00  0.00     0.275 HD
HETATM   13  H           1     -33.247  -1.104 -10.320  0.00  0.00     0.275 HD
ENDBRANCH   5  10
ENDBRANCH   2   5
BRANCH   1  14
HETATM   14  C           1     -36.090  -1.087 -14.672  0.00  0.00     0.195 C 
BRANCH  14  15
HETATM   15  C           1     -35.779  -1.140 -16.148  0.00  0.00     0.197 C 
HETATM   16  O           1     -34.667  -1.556 -16.538  0.00  0.00    -0.646 OA
HETATM   17  O           1     -36.634  -0.768 -16.981  0.00  0.00    -0.646 OA
ENDBRANCH  14  15
BRANCH  14  18
HETATM   18  C           1     -36.479   0.333 -14.285  0.00  0.00     0.149 C 
BRANCH  18  19
HETATM   19  C           1     -35.324   1.265 -14.560  0.00  0.00     0.175 C 
HETATM   20  O           1     -35.376   2.056 -15.526  0.00  0.00    -0.648 OA
HETATM   21  O           1     -34.316   1.246 -13.821  0.00  0.00    -0.648 OA
ENDBRANCH  18  19
ENDBRANCH  14  18
ENDBRANCH   1  14
TORSDOF 8
ENDMDL
MODEL 4
REMARK VINA RESULT:      -6.2     10.325     11.721
REMARK  8 active torsions:
REMARK  status: ('A' for Active; 'I' for Inactive)
REMARK    1  A    between atoms: N_1  and  C_16 
REMARK       I    between atoms: N_1  and  C_3 
REMARK    2  A    between atoms: C_3  and  C_18 
REMARK    3  A    between atoms: C_10  and  C_16 
REMARK    4  A    between atoms: C_13  and  C_15 
REMARK    5  A    between atoms: C_15  and  C_16 
REMARK    6  A    between atoms: C_17  and  C_19 
REMARK    7  A    between atoms: C_18  and  C_19 
REMARK    8  A    between atoms: C_18  and  N_20 
ROOT
HETATM    1  N           1     -27.499  -6.444 -18.642  0.00  0.00    -0.344 N 
HETATM    2  C           1     -26.254  -6.341 -18.082  0.00  0.00     0.249 C 
HETATM    3  O           1     -26.138  -6.033 -16.920  0.00  0.00    -0.271 OA
HETATM    4  H           1     -27.596  -6.701 -19.616  0.00  0.00     0.163 HD
ENDROOT
BRANCH   2   5
HETATM    5  C           1     -25.026  -6.611 -18.917  0.00  0.00     0.278 C 
BRANCH   5   6
HETATM    6  C           1     -25.448  -7.107 -20.294  0.00  0.00     0.021 C 
HETATM    7  C           1     -25.508  -5.932 -21.262  0.00  0.00     0.012 C 
BRANCH   6   8
HETATM    8  C           1     -24.435  -8.127 -20.798  0.00  0.00     0.002 C 
HETATM    9  C           1     -24.091  -7.827 -22.251  0.00  0.00     0.005 C 
ENDBRANCH   6   8
ENDBRANCH   5   6
BRANCH   5  10
HETATM   10  N           1     -24.185  -7.656 -18.246  0.00  0.00    -0.066 N 
HETATM   11  H           1     -23.176  -7.464 -18.435  0.00  0.00     0.275 HD
HETATM   12  H           1     -24.437  -8.599 -18.620  0.00  0.00     0.275 HD
HETATM   13  H           1     -24.357  -7.632 -17.216  0.00  0.00     0.275 HD
ENDBRANCH   5  10
ENDBRANCH   2   5
BRANCH   1  14
HETATM   14  C           1     -28.678  -6.185 -17.839  0.00  0.00     0.195 C 
BRANCH  14  15
HETATM   15  C           1     -29.551  -7.416 -17.817  0.00  0.00     0.197 C 
HETATM   16  O           1     -29.367  -8.296 -16.950  0.00  0.00    -0.646 OA
HETATM   17  O           1     -30.458  -7.554 -18.666  0.00  0.00    -0.646 OA
ENDBRANCH  14  15
BRANCH  14  18
HETATM   18  C           1     -29.455  -5.022 -18.442  0.00  0.00     0.149 C 
BRANCH  18  19
HETATM   19  C           1     -29.294  -3.802 -17.568  0.00  0.00     0.175 C 
HETATM   20  O           1     -30.225  -2.973 -17.475  0.00  0.00    -0.648 OA
HETATM   21  O           1     -28.229  -3.620 -16.938  0.00  0.00    -0.648 OA
ENDBRANCH  18  19
ENDBRANCH  14  18
ENDBRANCH   1  14
TORSDOF 8
ENDMDL
MODEL 5
REMARK VINA RESULT:      -6.2     12.536     14.249
REMARK  8 active torsions:
REMARK  status: ('A' for Active; 'I' for Inactive)
REMARK    1  A    between atoms: N_1  and  C_16 
REMARK       I    between atoms: N_1  and  C_3 
REMARK    2  A    between atoms: C_3  and  C_18 
REMARK    3  A    between atoms: C_10  and  C_16 
REMARK    4  A    between atoms: C_13  and  C_15 
REMARK    5  A    between atoms: C_15  and  C_16 
REMARK    6  A    between atoms: C_17  and  C_19 
REMARK    7  A    between atoms: C_18  and  C_19 
REMARK    8  A    between atoms: C_18  and  N_20 
ROOT
HETATM    1  N           1     -22.818  -4.522  -8.691  0.00  0.00    -0.344 N 
HETATM    2  C           1     -22.094  -4.151  -7.590  0.00  0.00     0.249 C 
HETATM    3  O           1     -21.516  -3.090  -7.578  0.00  0.00    -0.271 OA
HETATM    4  H           1     -23.302  -5.411  -8.702  0.00  0.00     0.163 HD
ENDROOT
BRANCH   2   5
HETATM    5  C           1     -22.018  -5.067  -6.394  0.00  0.00     0.278 C 
BRANCH   5   6
HETATM    6  C           1     -21.224  -6.314  -6.758  0.00  0.00     0.021 C 
HETATM    7  C           1     -19.752  -5.953  -6.917  0.00  0.00     0.012 C 
BRANCH   6   8
HETATM    8  C           1     -21.375  -7.353  -5.654  0.00  0.00     0.002 C 
HETATM    9  C           1     -19.996  -7.812  -5.197  0.00  0.00     0.005 C 
ENDBRANCH   6   8
ENDBRANCH   5   6
BRANCH   5  10
HETATM   10  N           1     -23.403  -5.461  -5.977  0.00  0.00    -0.066 N 
HETATM   11  H           1     -23.421  -6.480  -5.746  0.00  0.00     0.275 HD
HETATM   12  H           1     -24.070  -5.270  -6.758  0.00  0.00     0.275 HD
HETATM   13  H           1     -23.685  -4.909  -5.136  0.00  0.00     0.275 HD
ENDBRANCH   5  10
ENDBRANCH   2   5
BRANCH   1  14
HETATM   14  C           1     -22.892  -3.642  -9.841  0.00  0.00     0.195 C 
BRANCH  14  15
HETATM   15  C           1     -24.338  -3.413 -10.206  0.00  0.00     0.197 C 
HETATM   16  O           1     -25.113  -2.877  -9.385  0.00  0.00    -0.646 OA
HETATM   17  O           1     -24.761  -3.760 -11.330  0.00  0.00    -0.646 OA
ENDBRANCH  14  15
BRANCH  14  18
HETATM   18  C           1     -22.166  -4.283 -11.017  0.00  0.00     0.149 C 
BRANCH  18  19
HETATM   19  C           1     -20.685  -4.019 -10.899  0.00  0.00     0.175 C 
HETATM   20  O           1     -20.205  -2.949 -11.330  0.00  0.00    -0.648 OA
HETATM   21  O           1     -19.938  -4.872 -10.371  0.00  0.00    -0.648 OA
ENDBRANCH  18  19
ENDBRANCH  14  18
ENDBRANCH   1  14
TORSDOF 8
ENDMDL
MODEL 6
REMARK VINA RESULT:      -6.2     10.765     12.190
REMARK  8 active torsions:
REMARK  status: ('A' for Active; 'I' for Inactive)
REMARK    1  A    between atoms: N_1  and  C_16 
REMARK       I    between atoms: N_1  and  C_3 
REMARK    2  A    between atoms: C_3  and  C_18 
REMARK    3  A    between atoms: C_10  and  C_16 
REMARK    4  A    between atoms: C_13  and  C_15 
REMARK    5  A    between atoms: C_15  and  C_16 
REMARK    6  A    between atoms: C_17  and  C_19 
REMARK    7  A    between atoms: C_18  and  C_19 
REMARK    8  A    between atoms: C_18  and  N_20 
ROOT
HETATM    1  N           1     -27.801  -6.593 -18.662  0.00  0.00    -0.344 N 
HETATM    2  C           1     -27.086  -6.572 -19.828  0.00  0.00     0.249 C 
HETATM    3  O           1     -27.169  -5.622 -20.570  0.00  0.00    -0.271 OA
HETATM    4  H           1     -27.732  -7.389 -18.040  0.00  0.00     0.163 HD
ENDROOT
BRANCH   2   5
HETATM    5  C           1     -26.194  -7.734 -20.188  0.00  0.00     0.278 C 
BRANCH   5   6
HETATM    6  C           1     -24.833  -7.213 -20.630  0.00  0.00     0.021 C 
HETATM    7  C           1     -23.954  -6.983 -19.407  0.00  0.00     0.012 C 
BRANCH   6   8
HETATM    8  C           1     -24.170  -8.236 -21.544  0.00  0.00     0.002 C 
HETATM    9  C           1     -23.770  -7.564 -22.851  0.00  0.00     0.005 C 
ENDBRANCH   6   8
ENDBRANCH   5   6
BRANCH   5  10
HETATM   10  N           1     -26.817  -8.515 -21.307  0.00  0.00    -0.066 N 
HETATM   11  H           1     -26.123  -8.630 -22.079  0.00  0.00     0.275 HD
HETATM   12  H           1     -27.654  -8.002 -21.665  0.00  0.00     0.275 HD
HETATM   13  H           1     -27.107  -9.455 -20.956  0.00  0.00     0.275 HD
ENDBRANCH   5  10
ENDBRANCH   2   5
BRANCH   1  14
HETATM   14  C           1     -28.658  -5.476 -18.316  0.00  0.00     0.195 C 
BRANCH  14  15
HETATM   15  C           1     -28.043  -4.705 -17.174  0.00  0.00     0.197 C 
HETATM   16  O           1     -27.136  -5.223 -16.488  0.00  0.00    -0.646 OA
HETATM   17  O           1     -28.440  -3.549 -16.914  0.00  0.00    -0.646 OA
ENDBRANCH  14  15
BRANCH  14  18
HETATM   18  C           1     -30.027  -5.997 -17.898  0.00  0.00     0.149 C 
BRANCH  18  19
HETATM   19  C           1     -30.024  -7.506 -17.933  0.00  0.00     0.175 C 
HETATM   20  O           1     -29.522  -8.151 -16.987  0.00  0.00    -0.648 OA
HETATM   21  O           1     -30.523  -8.110 -18.907  0.00  0.00    -0.648 OA
ENDBRANCH  18  19
ENDBRANCH  14  18
ENDBRANCH   1  14
TORSDOF 8
ENDMDL
MODEL 7
REMARK VINA RESULT:      -5.7     16.133     18.147
REMARK  8 active torsions:
REMARK  status: ('A' for Active; 'I' for Inactive)
REMARK    1  A    between atoms: N_1  and  C_16 
REMARK       I    between atoms: N_1  and  C_3 
REMARK    2  A    between atoms: C_3  and  C_18 
REMARK    3  A    between atoms: C_10  and  C_16 
REMARK    4  A    between atoms: C_13  and  C_15 
REMARK    5  A    between atoms: C_15  and  C_16 
REMARK    6  A    between atoms: C_17  and  C_19 
REMARK    7  A    between atoms: C_18  and  C_19 
REMARK    8  A    between atoms: C_18  and  N_20 
ROOT
HETATM    1  N           1     -20.764  -7.947  -3.364  0.00  0.00    -0.344 N 
HETATM    2  C           1     -21.301  -8.628  -2.306  0.00  0.00     0.249 C 
HETATM    3  O           1     -21.688  -9.763  -2.452  0.00  0.00    -0.271 OA
HETATM    4  H           1     -20.440  -6.996  -3.242  0.00  0.00     0.163 HD
ENDROOT
BRANCH   2   5
HETATM    5  C           1     -21.410  -7.961  -0.956  0.00  0.00     0.278 C 
BRANCH   5   6
HETATM    6  C           1     -21.804  -8.994   0.091  0.00  0.00     0.021 C 
HETATM    7  C           1     -21.113  -8.672   1.410  0.00  0.00     0.012 C 
BRANCH   6   8
HETATM    8  C           1     -23.314  -8.965   0.289  0.00  0.00     0.002 C 
HETATM    9  C           1     -23.887 -10.353   0.038  0.00  0.00     0.005 C 
ENDBRANCH   6   8
ENDBRANCH   5   6
BRANCH   5  10
HETATM   10  N           1     -22.453  -6.885  -1.014  0.00  0.00    -0.066 N 
HETATM   11  H           1     -23.073  -6.957  -0.176  0.00  0.00     0.275 HD
HETATM   12  H           1     -23.025  -7.000  -1.880  0.00  0.00     0.275 HD
HETATM   13  H           1     -21.988  -5.949  -1.023  0.00  0.00     0.275 HD
ENDBRANCH   5  10
ENDBRANCH   2   5
BRANCH   1  14
HETATM   14  C           1     -20.659  -8.587  -4.661  0.00  0.00     0.195 C 
BRANCH  14  15
HETATM   15  C           1     -19.204  -8.813  -4.993  0.00  0.00     0.197 C 
HETATM   16  O           1     -18.807  -8.695  -6.172  0.00  0.00    -0.646 OA
HETATM   17  O           1     -18.397  -9.118  -4.089  0.00  0.00    -0.646 OA
ENDBRANCH  14  15
BRANCH  14  18
HETATM   18  C           1     -21.289  -7.693  -5.720  0.00  0.00     0.149 C 
BRANCH  18  19
HETATM   19  C           1     -21.632  -6.355  -5.112  0.00  0.00     0.175 C 
HETATM   20  O           1     -20.760  -5.462  -5.036  0.00  0.00    -0.648 OA
HETATM   21  O           1     -22.787  -6.139  -4.685  0.00  0.00    -0.648 OA
ENDBRANCH  18  19
ENDBRANCH  14  18
ENDBRANCH   1  14
TORSDOF 8
ENDMDL
MODEL 8
REMARK VINA RESULT:      -5.6     14.619     16.361
REMARK  8 active torsions:
REMARK  status: ('A' for Active; 'I' for Inactive)
REMARK    1  A    between atoms: N_1  and  C_16 
REMARK       I    between atoms: N_1  and  C_3 
REMARK    2  A    between atoms: C_3  and  C_18 
REMARK    3  A    between atoms: C_10  and  C_16 
REMARK    4  A    between atoms: C_13  and  C_15 
REMARK    5  A    between atoms: C_15  and  C_16 
REMARK    6  A    between atoms: C_17  and  C_19 
REMARK    7  A    between atoms: C_18  and  C_19 
REMARK    8  A    between atoms: C_18  and  N_20 
ROOT
HETATM    1  N           1     -20.949  -5.593  -4.937  0.00  0.00    -0.344 N 
HETATM    2  C           1     -21.467  -6.606  -4.175  0.00  0.00     0.249 C 
HETATM    3  O           1     -22.024  -7.536  -4.707  0.00  0.00    -0.271 OA
HETATM    4  H           1     -20.483  -4.813  -4.491  0.00  0.00     0.163 HD
ENDROOT
BRANCH   2   5
HETATM    5  C           1     -21.342  -6.559  -2.672  0.00  0.00     0.278 C 
BRANCH   5   6
HETATM    6  C           1     -21.426  -7.972  -2.111  0.00  0.00     0.021 C 
HETATM    7  C           1     -20.026  -8.565  -2.012  0.00  0.00     0.012 C 
BRANCH   6   8
HETATM    8  C           1     -22.059  -7.932  -0.726  0.00  0.00     0.002 C 
HETATM    9  C           1     -22.687  -9.284  -0.415  0.00  0.00     0.005 C 
ENDBRANCH   6   8
ENDBRANCH   5   6
BRANCH   5  10
HETATM   10  N           1     -22.455  -5.729  -2.104  0.00  0.00    -0.066 N 
HETATM   11  H           1     -22.546  -5.922  -1.081  0.00  0.00     0.275 HD
HETATM   12  H           1     -23.351  -5.972  -2.585  0.00  0.00     0.275 HD
HETATM   13  H           1     -22.244  -4.717  -2.250  0.00  0.00     0.275 HD
ENDBRANCH   5  10
ENDBRANCH   2   5
BRANCH   1  14
HETATM   14  C           1     -21.068  -5.638  -6.381  0.00  0.00     0.195 C 
BRANCH  14  15
HETATM   15  C           1     -19.706  -5.863  -6.991  0.00  0.00     0.197 C 
HETATM   16  O           1     -19.199  -7.006  -6.982  0.00  0.00    -0.646 OA
HETATM   17  O           1     -19.086  -4.908  -7.505  0.00  0.00    -0.646 OA
ENDBRANCH  14  15
BRANCH  14  18
HETATM   18  C           1     -21.638  -4.318  -6.884  0.00  0.00     0.149 C 
BRANCH  18  19
HETATM   19  C           1     -23.108  -4.482  -7.178  0.00  0.00     0.175 C 
HETATM   20  O           1     -23.560  -4.165  -8.300  0.00  0.00    -0.648 OA
HETATM   21  O           1     -23.875  -4.936  -6.301  0.00  0.00    -0.648 OA
ENDBRANCH  18  19
ENDBRANCH  14  18
ENDBRANCH   1  14
TORSDOF 8
ENDMDL
MODEL 9
REMARK VINA RESULT:      -5.5     12.751     14.330
REMARK  8 active torsions:
REMARK  status: ('A' for Active; 'I' for Inactive)
REMARK    1  A    between atoms: N_1  and  C_16 
REMARK       I    between atoms: N_1  and  C_3 
REMARK    2  A    between atoms: C_3  and  C_18 
REMARK    3  A    between atoms: C_10  and  C_16 
REMARK    4  A    between atoms: C_13  and  C_15 
REMARK    5  A    between atoms: C_15  and  C_16 
REMARK    6  A    between atoms: C_17  and  C_19 
REMARK    7  A    between atoms: C_18  and  C_19 
REMARK    8  A    between atoms: C_18  and  N_20 
ROOT
HETATM    1  N           1     -21.218  -4.969  -8.372  0.00  0.00    -0.344 N 
HETATM    2  C           1     -21.733  -5.259  -7.138  0.00  0.00     0.249 C 
HETATM    3  O           1     -22.925  -5.200  -6.952  0.00  0.00    -0.271 OA
HETATM    4  H           1     -20.219  -5.018  -8.527  0.00  0.00     0.163 HD
ENDROOT
BRANCH   2   5
HETATM    5  C           1     -20.812  -5.654  -6.009  0.00  0.00     0.278 C 
BRANCH   5   6
HETATM    6  C           1     -21.623  -6.302  -4.894  0.00  0.00     0.021 C 
HETATM    7  C           1     -21.541  -7.818  -5.020  0.00  0.00     0.012 C 
BRANCH   6   8
HETATM    8  C           1     -21.061  -5.874  -3.544  0.00  0.00     0.002 C 
HETATM    9  C           1     -22.031  -6.276  -2.441  0.00  0.00     0.005 C 
ENDBRANCH   6   8
ENDBRANCH   5   6
BRANCH   5  10
HETATM   10  N           1     -20.121  -4.433  -5.479  0.00  0.00    -0.066 N 
HETATM   11  H           1     -19.749  -4.632  -4.523  0.00  0.00     0.275 HD
HETATM   12  H           1     -20.801  -3.641  -5.430  0.00  0.00     0.275 HD
HETATM   13  H           1     -19.331  -4.176  -6.113  0.00  0.00     0.275 HD
ENDBRANCH   5  10
ENDBRANCH   2   5
BRANCH   1  14
HETATM   14  C           1     -22.102  -4.590  -9.456  0.00  0.00     0.195 C 
BRANCH  14  15
HETATM   15  C           1     -21.281  -4.158 -10.646  0.00  0.00     0.197 C 
HETATM   16  O           1     -20.143  -4.640 -10.828  0.00  0.00    -0.646 OA
HETATM   17  O           1     -21.739  -3.317 -11.450  0.00  0.00    -0.646 OA
ENDBRANCH  14  15
BRANCH  14  18
HETATM   18  C           1     -22.991  -3.438  -9.007  0.00  0.00     0.149 C 
BRANCH  18  19
HETATM   19  C           1     -24.392  -3.649  -9.526  0.00  0.00     0.175 C 
HETATM   20  O           1     -25.201  -2.697  -9.544  0.00  0.00    -0.648 OA
HETATM   21  O           1     -24.743  -4.777  -9.938  0.00  0.00    -0.648 OA
ENDBRANCH  18  19
ENDBRANCH  14  18
ENDBRANCH   1  14
TORSDOF 8
ENDMDL
