MODEL 1
REMARK VINA RESULT:      -5.7      0.000      0.000
REMARK  5 active torsions:
REMARK  status: ('A' for Active; 'I' for Inactive)
REMARK       I    between atoms: N_2  and  C_12 
REMARK    1  A    between atoms: O_6  and  C_15 
REMARK    2  A    between atoms: C_9  and  C_14 
REMARK    3  A    between atoms: N_11  and  C_16 
REMARK    4  A    between atoms: C_12  and  C_16 
REMARK    5  A    between atoms: C_15  and  C_16 
ROOT
HETATM    1  N           1     -28.137  -6.228 -16.617  0.00  0.00    -0.336 N 
HETATM    2  C           1     -28.095  -5.208 -17.660  0.00  0.00     0.127 C 
HETATM    3  C           1     -29.295  -4.328 -17.356  0.00  0.00     0.022 C 
HETATM    4  C           1     -30.252  -5.217 -16.571  0.00  0.00     0.038 C 
HETATM    5  C           1     -27.081  -6.757 -15.924  0.00  0.00     0.253 C 
HETATM    6  C           1     -29.551  -6.562 -16.471  0.00  0.00     0.188 C 
HETATM    7  O           1     -27.273  -7.602 -15.082  0.00  0.00    -0.271 OA
ENDROOT
BRANCH   5   8
HETATM    8  C           1     -25.677  -6.285 -16.213  0.00  0.00     0.298 C 
BRANCH   8   9
HETATM    9  N           1     -24.895  -6.233 -14.934  0.00  0.00    -0.064 N 
HETATM   10  H           1     -25.393  -6.784 -14.199  0.00  0.00     0.275 HD
HETATM   11  H           1     -23.945  -6.639 -15.089  0.00  0.00     0.275 HD
HETATM   12  H           1     -24.802  -5.240 -14.623  0.00  0.00     0.275 HD
ENDBRANCH   8   9
BRANCH   8  13
HETATM   13  C           1     -25.004  -7.251 -17.180  0.00  0.00     0.206 C 
BRANCH  13  14
HETATM   14  O           1     -24.413  -8.298 -16.458  0.00  0.00    -0.398 OA
ATOM     15  HO          1     -23.573  -8.515 -16.846  1.00  0.00     0.209 HD
ENDBRANCH  13  14
ENDBRANCH   8  13
ENDBRANCH   5   8
BRANCH   6  16
HETATM   16  C           1     -30.001  -7.484 -17.578  0.00  0.00     0.196 C 
HETATM   17  O           1     -29.391  -8.555 -17.785  0.00  0.00    -0.646 OA
HETATM   18  O           1     -30.982  -7.177 -18.288  0.00  0.00    -0.646 OA
ENDBRANCH   6  16
TORSDOF 5
ENDMDL
MODEL 2
REMARK VINA RESULT:      -5.5      8.529     10.335
REMARK  5 active torsions:
REMARK  status: ('A' for Active; 'I' for Inactive)
REMARK       I    between atoms: N_2  and  C_12 
REMARK    1  A    between atoms: O_6  and  C_15 
REMARK    2  A    between atoms: C_9  and  C_14 
REMARK    3  A    between atoms: N_11  and  C_16 
REMARK    4  A    between atoms: C_12  and  C_16 
REMARK    5  A    between atoms: C_15  and  C_16 
ROOT
HETATM    1  N           1     -21.516  -4.464  -9.453  0.00  0.00    -0.336 N 
HETATM    2  C           1     -20.514  -4.908 -10.418  0.00  0.00     0.127 C 
HETATM    3  C           1     -20.331  -3.707 -11.330  0.00  0.00     0.022 C 
HETATM    4  C           1     -21.627  -2.914 -11.209  0.00  0.00     0.038 C 
HETATM    5  C           1     -21.541  -4.704  -8.106  0.00  0.00     0.253 C 
HETATM    6  C           1     -22.487  -3.707 -10.239  0.00  0.00     0.188 C 
HETATM    7  O           1     -22.444  -4.268  -7.431  0.00  0.00    -0.271 OA
ENDROOT
BRANCH   5   8
HETATM    8  C           1     -20.442  -5.515  -7.463  0.00  0.00     0.298 C 
BRANCH   8   9
HETATM    9  N           1     -19.330  -4.601  -7.043  0.00  0.00    -0.064 N 
HETATM   10  H           1     -19.205  -3.851  -7.759  0.00  0.00     0.275 HD
HETATM   11  H           1     -19.565  -4.166  -6.122  0.00  0.00     0.275 HD
HETATM   12  H           1     -18.445  -5.149  -6.952  0.00  0.00     0.275 HD
ENDBRANCH   8   9
BRANCH   8  13
HETATM   13  C           1     -20.992  -6.240  -6.242  0.00  0.00     0.206 C 
BRANCH  13  14
HETATM   14  O           1     -20.984  -5.372  -5.140  0.00  0.00    -0.398 OA
ATOM     15  HO          1     -20.087  -5.217  -4.866  1.00  0.00     0.209 HD
ENDBRANCH  13  14
ENDBRANCH   8  13
ENDBRANCH   5   8
BRANCH   6  16
HETATM   16  C           1     -23.417  -4.635 -10.981  0.00  0.00     0.196 C 
HETATM   17  O           1     -23.569  -4.511 -12.216  0.00  0.00    -0.646 OA
HETATM   18  O           1     -24.035  -5.527 -10.363  0.00  0.00    -0.646 OA
ENDBRANCH   6  16
TORSDOF 5
ENDMDL
MODEL 3
REMARK VINA RESULT:      -5.4      2.008      2.405
REMARK  5 active torsions:
REMARK  status: ('A' for Active; 'I' for Inactive)
REMARK       I    between atoms: N_2  and  C_12 
REMARK    1  A    between atoms: O_6  and  C_15 
REMARK    2  A    between atoms: C_9  and  C_14 
REMARK    3  A    between atoms: N_11  and  C_16 
REMARK    4  A    between atoms: C_12  and  C_16 
REMARK    5  A    between atoms: C_15  and  C_16 
ROOT
HETATM    1  N           1     -27.411  -5.778 -17.226  0.00  0.00    -0.336 N 
HETATM    2  C           1     -28.270  -6.239 -18.313  0.00  0.00     0.127 C 
HETATM    3  C           1     -29.005  -4.985 -18.752  0.00  0.00     0.022 C 
HETATM    4  C           1     -28.978  -4.062 -17.540  0.00  0.00     0.038 C 
HETATM    5  C           1     -26.117  -6.145 -16.973  0.00  0.00     0.253 C 
HETATM    6  C           1     -28.234  -4.840 -16.467  0.00  0.00     0.188 C 
HETATM    7  O           1     -25.530  -5.675 -16.027  0.00  0.00    -0.271 OA
ENDROOT
BRANCH   5   8
HETATM    8  C           1     -25.423  -7.136 -17.875  0.00  0.00     0.298 C 
BRANCH   8   9
HETATM    9  N           1     -25.418  -6.613 -19.280  0.00  0.00    -0.064 N 
HETATM   10  H           1     -24.465  -6.256 -19.515  0.00  0.00     0.275 HD
HETATM   11  H           1     -25.675  -7.382 -19.940  0.00  0.00     0.275 HD
HETATM   12  H           1     -26.112  -5.837 -19.365  0.00  0.00     0.275 HD
ENDBRANCH   8   9
BRANCH   8  13
HETATM   13  C           1     -23.989  -7.336 -17.403  0.00  0.00     0.206 C 
BRANCH  13  14
HETATM   14  O           1     -23.978  -8.183 -16.286  0.00  0.00    -0.398 OA
ATOM     15  HO          1     -23.847  -9.081 -16.570  1.00  0.00     0.209 HD
ENDBRANCH  13  14
ENDBRANCH   8  13
ENDBRANCH   5   8
BRANCH   6  16
HETATM   16  C           1     -29.200  -5.577 -15.571  0.00  0.00     0.196 C 
HETATM   17  O           1     -28.775  -6.430 -14.762  0.00  0.00    -0.646 OA
HETATM   18  O           1     -30.424  -5.336 -15.639  0.00  0.00    -0.646 OA
ENDBRANCH   6  16
TORSDOF 5
ENDMDL
MODEL 4
REMARK VINA RESULT:      -5.1      8.840     10.676
REMARK  5 active torsions:
REMARK  status: ('A' for Active; 'I' for Inactive)
REMARK       I    between atoms: N_2  and  C_12 
REMARK    1  A    between atoms: O_6  and  C_15 
REMARK    2  A    between atoms: C_9  and  C_14 
REMARK    3  A    between atoms: N_11  and  C_16 
REMARK    4  A    between atoms: C_12  and  C_16 
REMARK    5  A    between atoms: C_15  and  C_16 
ROOT
HETATM    1  N           1     -22.120  -4.501  -8.950  0.00  0.00    -0.336 N 
HETATM    2  C           1     -23.199  -3.529  -8.796  0.00  0.00     0.127 C 
HETATM    3  C           1     -24.248  -3.990  -9.793  0.00  0.00     0.022 C 
HETATM    4  C           1     -23.480  -4.791 -10.838  0.00  0.00     0.038 C 
HETATM    5  C           1     -21.360  -5.066  -7.961  0.00  0.00     0.253 C 
HETATM    6  C           1     -22.029  -4.740 -10.387  0.00  0.00     0.188 C 
HETATM    7  O           1     -20.496  -5.862  -8.245  0.00  0.00    -0.271 OA
ENDROOT
BRANCH   5   8
HETATM    8  C           1     -21.600  -4.695  -6.519  0.00  0.00     0.298 C 
BRANCH   8   9
HETATM    9  N           1     -22.673  -5.574  -5.949  0.00  0.00    -0.064 N 
HETATM   10  H           1     -23.545  -5.472  -6.516  0.00  0.00     0.275 HD
HETATM   11  H           1     -22.357  -6.571  -5.974  0.00  0.00     0.275 HD
HETATM   12  H           1     -22.864  -5.295  -4.961  0.00  0.00     0.275 HD
ENDBRANCH   8   9
BRANCH   8  13
HETATM   13  C           1     -20.315  -4.884  -5.724  0.00  0.00     0.206 C 
BRANCH  13  14
HETATM   14  O           1     -20.149  -6.242  -5.419  0.00  0.00    -0.398 OA
ATOM     15  HO          1     -19.237  -6.412  -5.215  1.00  0.00     0.209 HD
ENDBRANCH  13  14
ENDBRANCH   8  13
ENDBRANCH   5   8
BRANCH   6  16
HETATM   16  C           1     -21.294  -3.615 -11.073  0.00  0.00     0.196 C 
HETATM   17  O           1     -20.127  -3.329 -10.727  0.00  0.00    -0.646 OA
HETATM   18  O           1     -21.850  -2.968 -11.985  0.00  0.00    -0.646 OA
ENDBRANCH   6  16
TORSDOF 5
ENDMDL
MODEL 5
REMARK VINA RESULT:      -5.1      2.470      5.120
REMARK  5 active torsions:
REMARK  status: ('A' for Active; 'I' for Inactive)
REMARK       I    between atoms: N_2  and  C_12 
REMARK    1  A    between atoms: O_6  and  C_15 
REMARK    2  A    between atoms: C_9  and  C_14 
REMARK    3  A    between atoms: N_11  and  C_16 
REMARK    4  A    between atoms: C_12  and  C_16 
REMARK    5  A    between atoms: C_15  and  C_16 
ROOT
HETATM    1  N           1     -28.641  -5.573 -16.949  0.00  0.00    -0.336 N 
HETATM    2  C           1     -29.020  -6.950 -16.644  0.00  0.00     0.127 C 
HETATM    3  C           1     -28.011  -7.380 -15.594  0.00  0.00     0.022 C 
HETATM    4  C           1     -26.802  -6.477 -15.808  0.00  0.00     0.038 C 
HETATM    5  C           1     -29.473  -4.507 -17.162  0.00  0.00     0.253 C 
HETATM    6  C           1     -27.181  -5.581 -16.976  0.00  0.00     0.188 C 
HETATM    7  O           1     -29.009  -3.418 -17.407  0.00  0.00    -0.271 OA
ENDROOT
BRANCH   5   8
HETATM    8  C           1     -30.969  -4.692 -17.093  0.00  0.00     0.298 C 
BRANCH   8   9
HETATM    9  N           1     -31.395  -4.781 -15.658  0.00  0.00    -0.064 N 
HETATM   10  H           1     -31.532  -5.783 -15.396  0.00  0.00     0.275 HD
HETATM   11  H           1     -30.657  -4.360 -15.048  0.00  0.00     0.275 HD
HETATM   12  H           1     -32.291  -4.260 -15.528  0.00  0.00     0.275 HD
ENDBRANCH   8   9
BRANCH   8  13
HETATM   13  C           1     -31.660  -3.506 -17.754  0.00  0.00     0.206 C 
BRANCH  13  14
HETATM   14  O           1     -33.006  -3.471 -17.363  0.00  0.00    -0.398 OA
ATOM     15  HO          1     -33.062  -3.271 -16.436  1.00  0.00     0.209 HD
ENDBRANCH  13  14
ENDBRANCH   8  13
ENDBRANCH   5   8
BRANCH   6  16
HETATM   16  C           1     -26.672  -6.150 -18.277  0.00  0.00     0.196 C 
HETATM   17  O           1     -27.434  -6.232 -19.264  0.00  0.00    -0.646 OA
HETATM   18  O           1     -25.489  -6.541 -18.368  0.00  0.00    -0.646 OA
ENDBRANCH   6  16
TORSDOF 5
ENDMDL
MODEL 6
REMARK VINA RESULT:      -5.0      9.251     11.544
REMARK  5 active torsions:
REMARK  status: ('A' for Active; 'I' for Inactive)
REMARK       I    between atoms: N_2  and  C_12 
REMARK    1  A    between atoms: O_6  and  C_15 
REMARK    2  A    between atoms: C_9  and  C_14 
REMARK    3  A    between atoms: N_11  and  C_16 
REMARK    4  A    between atoms: C_12  and  C_16 
REMARK    5  A    between atoms: C_15  and  C_16 
ROOT
HETATM    1  N           1     -21.547  -4.711  -8.098  0.00  0.00    -0.336 N 
HETATM    2  C           1     -20.614  -3.668  -7.682  0.00  0.00     0.127 C 
HETATM    3  C           1     -19.305  -4.411  -7.480  0.00  0.00     0.022 C 
HETATM    4  C           1     -19.704  -5.856  -7.208  0.00  0.00     0.038 C 
HETATM    5  C           1     -22.514  -4.628  -9.064  0.00  0.00     0.253 C 
HETATM    6  C           1     -21.223  -5.863  -7.261  0.00  0.00     0.188 C 
HETATM    7  O           1     -23.216  -5.584  -9.299  0.00  0.00    -0.271 OA
ENDROOT
BRANCH   5   8
HETATM    8  C           1     -22.703  -3.345  -9.834  0.00  0.00     0.298 C 
BRANCH   8   9
HETATM    9  N           1     -21.801  -3.344 -11.032  0.00  0.00    -0.064 N 
HETATM   10  H           1     -22.367  -3.507 -11.894  0.00  0.00     0.275 HD
HETATM   11  H           1     -21.317  -2.420 -11.104  0.00  0.00     0.275 HD
HETATM   12  H           1     -21.089  -4.102 -10.932  0.00  0.00     0.275 HD
ENDBRANCH   8   9
BRANCH   8  13
HETATM   13  C           1     -24.153  -3.235 -10.291  0.00  0.00     0.206 C 
BRANCH  13  14
HETATM   14  O           1     -24.971  -2.961  -9.186  0.00  0.00    -0.398 OA
ATOM     15  HO          1     -25.435  -2.144  -9.330  1.00  0.00     0.209 HD
ENDBRANCH  13  14
ENDBRANCH   8  13
ENDBRANCH   5   8
BRANCH   6  16
HETATM   16  C           1     -21.809  -5.703  -5.880  0.00  0.00     0.196 C 
HETATM   17  O           1     -21.063  -5.734  -4.877  0.00  0.00    -0.646 OA
HETATM   18  O           1     -23.040  -5.540  -5.737  0.00  0.00    -0.646 OA
ENDBRANCH   6  16
TORSDOF 5
ENDMDL
MODEL 7
REMARK VINA RESULT:      -5.0      2.312      2.950
REMARK  5 active torsions:
REMARK  status: ('A' for Active; 'I' for Inactive)
REMARK       I    between atoms: N_2  and  C_12 
REMARK    1  A    between atoms: O_6  and  C_15 
REMARK    2  A    between atoms: C_9  and  C_14 
REMARK    3  A    between atoms: N_11  and  C_16 
REMARK    4  A    between atoms: C_12  and  C_16 
REMARK    5  A    between atoms: C_15  and  C_16 
ROOT
HETATM    1  N           1     -28.388  -5.416 -16.930  0.00  0.00    -0.336 N 
HETATM    2  C           1     -28.342  -5.166 -15.492  0.00  0.00     0.127 C 
HETATM    3  C           1     -29.701  -5.632 -14.998  0.00  0.00     0.022 C 
HETATM    4  C           1     -30.617  -5.544 -16.213  0.00  0.00     0.038 C 
HETATM    5  C           1     -27.387  -5.908 -17.723  0.00  0.00     0.253 C 
HETATM    6  C           1     -29.736  -5.026 -17.337  0.00  0.00     0.188 C 
HETATM    7  O           1     -27.576  -6.061 -18.907  0.00  0.00    -0.271 OA
ENDROOT
BRANCH   5   8
HETATM    8  C           1     -26.049  -6.258 -17.120  0.00  0.00     0.298 C 
BRANCH   8   9
HETATM    9  N           1     -26.230  -7.348 -16.106  0.00  0.00    -0.064 N 
HETATM   10  H           1     -27.081  -7.906 -16.341  0.00  0.00     0.275 HD
HETATM   11  H           1     -25.392  -7.973 -16.112  0.00  0.00     0.275 HD
HETATM   12  H           1     -26.340  -6.925 -15.157  0.00  0.00     0.275 HD
ENDBRANCH   8   9
BRANCH   8  13
HETATM   13  C           1     -25.107  -6.738 -18.217  0.00  0.00     0.206 C 
BRANCH  13  14
HETATM   14  O           1     -23.819  -6.901 -17.688  0.00  0.00    -0.398 OA
ATOM     15  HO          1     -23.309  -7.462 -18.262  1.00  0.00     0.209 HD
ENDBRANCH  13  14
ENDBRANCH   8  13
ENDBRANCH   5   8
BRANCH   6  16
HETATM   16  C           1     -29.847  -3.526 -17.458  0.00  0.00     0.196 C 
HETATM   17  O           1     -30.971  -2.989 -17.564  0.00  0.00    -0.646 OA
HETATM   18  O           1     -28.816  -2.820 -17.453  0.00  0.00    -0.646 OA
ENDBRANCH   6  16
TORSDOF 5
ENDMDL
MODEL 8
REMARK VINA RESULT:      -5.0      2.642      3.549
REMARK  5 active torsions:
REMARK  status: ('A' for Active; 'I' for Inactive)
REMARK       I    between atoms: N_2  and  C_12 
REMARK    1  A    between atoms: O_6  and  C_15 
REMARK    2  A    between atoms: C_9  and  C_14 
REMARK    3  A    between atoms: N_11  and  C_16 
REMARK    4  A    between atoms: C_12  and  C_16 
REMARK    5  A    between atoms: C_15  and  C_16 
ROOT
HETATM    1  N           1     -27.602  -5.707 -18.073  0.00  0.00    -0.336 N 
HETATM    2  C           1     -28.937  -5.386 -18.567  0.00  0.00     0.127 C 
HETATM    3  C           1     -29.236  -4.031 -17.951  0.00  0.00     0.022 C 
HETATM    4  C           1     -28.355  -3.954 -16.711  0.00  0.00     0.038 C 
HETATM    5  C           1     -26.573  -6.288 -18.765  0.00  0.00     0.253 C 
HETATM    6  C           1     -27.601  -5.273 -16.679  0.00  0.00     0.188 C 
HETATM    7  O           1     -25.516  -6.494 -18.217  0.00  0.00    -0.271 OA
ENDROOT
BRANCH   5   8
HETATM    8  C           1     -26.760  -6.673 -20.212  0.00  0.00     0.298 C 
BRANCH   8   9
HETATM    9  N           1     -25.419  -6.825 -20.865  0.00  0.00    -0.064 N 
HETATM   10  H           1     -24.687  -6.386 -20.263  0.00  0.00     0.275 HD
HETATM   11  H           1     -25.204  -7.840 -20.990  0.00  0.00     0.275 HD
HETATM   12  H           1     -25.431  -6.355 -21.798  0.00  0.00     0.275 HD
ENDBRANCH   8   9
BRANCH   8  13
HETATM   13  C           1     -27.516  -7.993 -20.294  0.00  0.00     0.206 C 
BRANCH  13  14
HETATM   14  O           1     -27.043  -8.735 -21.385  0.00  0.00    -0.398 OA
ATOM     15  HO          1     -27.458  -9.590 -21.391  1.00  0.00     0.209 HD
ENDBRANCH  13  14
ENDBRANCH   8  13
ENDBRANCH   5   8
BRANCH   6  16
HETATM   16  C           1     -28.312  -6.276 -15.804  0.00  0.00     0.196 C 
HETATM   17  O           1     -29.259  -5.909 -15.075  0.00  0.00    -0.646 OA
HETATM   18  O           1     -27.955  -7.473 -15.808  0.00  0.00    -0.646 OA
ENDBRANCH   6  16
TORSDOF 5
ENDMDL
MODEL 9
REMARK VINA RESULT:      -4.8      2.209      2.749
REMARK  5 active torsions:
REMARK  status: ('A' for Active; 'I' for Inactive)
REMARK       I    between atoms: N_2  and  C_12 
REMARK    1  A    between atoms: O_6  and  C_15 
REMARK    2  A    between atoms: C_9  and  C_14 
REMARK    3  A    between atoms: N_11  and  C_16 
REMARK    4  A    between atoms: C_12  and  C_16 
REMARK    5  A    between atoms: C_15  and  C_16 
ROOT
HETATM    1  N           1     -28.442  -6.291 -17.013  0.00  0.00    -0.336 N 
HETATM    2  C           1     -29.009  -7.637 -17.018  0.00  0.00     0.127 C 
HETATM    3  C           1     -30.055  -7.587 -18.118  0.00  0.00     0.022 C 
HETATM    4  C           1     -30.430  -6.115 -18.244  0.00  0.00     0.038 C 
HETATM    5  C           1     -27.127  -5.941 -16.864  0.00  0.00     0.253 C 
HETATM    6  C           1     -29.583  -5.400 -17.204  0.00  0.00     0.188 C 
HETATM    7  O           1     -26.807  -4.776 -16.882  0.00  0.00    -0.271 OA
ENDROOT
BRANCH   5   8
HETATM    8  C           1     -26.078  -7.009 -16.677  0.00  0.00     0.298 C 
BRANCH   8   9
HETATM    9  N           1     -25.161  -7.022 -17.863  0.00  0.00    -0.064 N 
HETATM   10  H           1     -25.675  -6.674 -18.704  0.00  0.00     0.275 HD
HETATM   11  H           1     -24.340  -6.403 -17.677  0.00  0.00     0.275 HD
HETATM   12  H           1     -24.829  -7.997 -18.036  0.00  0.00     0.275 HD
ENDBRANCH   8   9
BRANCH   8  13
HETATM   13  C           1     -25.273  -6.716 -15.417  0.00  0.00     0.206 C 
BRANCH  13  14
HETATM   14  O           1     -24.522  -5.547 -15.604  0.00  0.00    -0.398 OA
ATOM     15  HO          1     -24.621  -5.247 -16.500  1.00  0.00     0.209 HD
ENDBRANCH  13  14
ENDBRANCH   8  13
ENDBRANCH   5   8
BRANCH   6  16
HETATM   16  C           1     -30.349  -5.227 -15.915  0.00  0.00     0.196 C 
HETATM   17  O           1     -31.537  -4.839 -15.942  0.00  0.00    -0.646 OA
HETATM   18  O           1     -29.796  -5.470 -14.822  0.00  0.00    -0.646 OA
ENDBRANCH   6  16
TORSDOF 5
ENDMDL
