MODEL 1
REMARK VINA RESULT:      -6.5      0.000      0.000
REMARK  4 active torsions:
REMARK  status: ('A' for Active; 'I' for Inactive)
REMARK    1  A    between atoms: N_2  and  C_12 
REMARK    2  A    between atoms: C_5  and  C_12 
REMARK    3  A    between atoms: C_9  and  C_11 
REMARK    4  A    between atoms: C_12  and  C_15 
REMARK       I    between atoms: C_15  and  N_17 
ROOT
HETATM    1  C           1     -32.894  -3.380 -11.354  0.00  0.00     0.038 C 
HETATM    2  O           1     -34.872  -2.203 -14.742  0.00  0.00    -0.271 OA
HETATM    3  C           1     -33.867  -3.656 -12.487  0.00  0.00     0.188 C 
HETATM    4  C           1     -33.603  -2.371 -10.459  0.00  0.00     0.022 C 
HETATM    5  C           1     -35.156  -1.799 -13.639  0.00  0.00     0.251 C 
HETATM    6  N           1     -34.700  -2.459 -12.529  0.00  0.00    -0.336 N 
HETATM    7  C           1     -34.942  -2.117 -11.130  0.00  0.00     0.127 C 
ENDROOT
BRANCH   5   8
HETATM    8  C           1     -36.015  -0.567 -13.485  0.00  0.00     0.278 C 
BRANCH   8   9
HETATM    9  N           1     -35.179   0.560 -12.953  0.00  0.00    -0.066 N 
HETATM   10  H           1     -34.791   0.295 -12.020  0.00  0.00     0.275 HD
HETATM   11  H           1     -34.395   0.754 -13.615  0.00  0.00     0.275 HD
HETATM   12  H           1     -35.772   1.415 -12.854  0.00  0.00     0.275 HD
ENDBRANCH   8   9
BRANCH   8  13
HETATM   13  C           1     -36.590  -0.177 -14.840  0.00  0.00     0.017 C 
HETATM   14  C           1     -35.850   1.043 -15.373  0.00  0.00     0.012 C 
HETATM   15  C           1     -38.069   0.153 -14.688  0.00  0.00     0.012 C 
ENDBRANCH   8  13
ENDBRANCH   5   8
BRANCH   3  16
HETATM   16  C           1     -34.699  -4.880 -12.194  0.00  0.00     0.196 C 
HETATM   17  O           1     -35.329  -5.442 -13.115  0.00  0.00    -0.646 OA
HETATM   18  O           1     -34.757  -5.333 -11.030  0.00  0.00    -0.646 OA
ENDBRANCH   3  16
TORSDOF 4
ENDMDL
MODEL 2
REMARK VINA RESULT:      -6.1      1.733      5.281
REMARK  4 active torsions:
REMARK  status: ('A' for Active; 'I' for Inactive)
REMARK    1  A    between atoms: N_2  and  C_12 
REMARK    2  A    between atoms: C_5  and  C_12 
REMARK    3  A    between atoms: C_9  and  C_11 
REMARK    4  A    between atoms: C_12  and  C_15 
REMARK       I    between atoms: C_15  and  N_17 
ROOT
HETATM    1  C           1     -37.625  -0.114 -14.770  0.00  0.00     0.038 C 
HETATM    2  O           1     -34.571  -2.790 -14.234  0.00  0.00    -0.271 OA
HETATM    3  C           1     -36.153  -0.479 -14.837  0.00  0.00     0.188 C 
HETATM    4  C           1     -37.942  -0.013 -13.283  0.00  0.00     0.022 C 
HETATM    5  C           1     -35.129  -2.234 -13.317  0.00  0.00     0.251 C 
HETATM    6  N           1     -35.896  -1.125 -13.554  0.00  0.00    -0.336 N 
HETATM    7  C           1     -36.636  -0.331 -12.577  0.00  0.00     0.127 C 
ENDROOT
BRANCH   5   8
HETATM    8  C           1     -34.978  -2.762 -11.911  0.00  0.00     0.278 C 
BRANCH   8   9
HETATM    9  N           1     -35.199  -4.246 -11.909  0.00  0.00    -0.066 N 
HETATM   10  H           1     -36.128  -4.460 -12.336  0.00  0.00     0.275 HD
HETATM   11  H           1     -34.444  -4.710 -12.462  0.00  0.00     0.275 HD
HETATM   12  H           1     -35.179  -4.599 -10.925  0.00  0.00     0.275 HD
ENDBRANCH   8   9
BRANCH   8  13
HETATM   13  C           1     -33.576  -2.457 -11.401  0.00  0.00     0.017 C 
HETATM   14  C           1     -32.719  -3.712 -11.491  0.00  0.00     0.012 C 
HETATM   15  C           1     -33.651  -1.996  -9.952  0.00  0.00     0.012 C 
ENDBRANCH   8  13
ENDBRANCH   5   8
BRANCH   3  16
HETATM   16  C           1     -35.301   0.756 -14.997  0.00  0.00     0.196 C 
HETATM   17  O           1     -34.142   0.780 -14.529  0.00  0.00    -0.646 OA
HETATM   18  O           1     -35.753   1.754 -15.598  0.00  0.00    -0.646 OA
ENDBRANCH   3  16
TORSDOF 4
ENDMDL
MODEL 3
REMARK VINA RESULT:      -5.7     18.268     19.927
REMARK  4 active torsions:
REMARK  status: ('A' for Active; 'I' for Inactive)
REMARK    1  A    between atoms: N_2  and  C_12 
REMARK    2  A    between atoms: C_5  and  C_12 
REMARK    3  A    between atoms: C_9  and  C_11 
REMARK    4  A    between atoms: C_12  and  C_15 
REMARK       I    between atoms: C_15  and  N_17 
ROOT
HETATM    1  C           1     -20.333  -7.728  -2.708  0.00  0.00     0.038 C 
HETATM    2  O           1     -20.903  -9.678   0.849  0.00  0.00    -0.271 OA
HETATM    3  C           1     -21.016  -7.854  -1.358  0.00  0.00     0.188 C 
HETATM    4  C           1     -20.900  -8.867  -3.547  0.00  0.00     0.022 C 
HETATM    5  C           1     -21.322 -10.094  -0.206  0.00  0.00     0.251 C 
HETATM    6  N           1     -21.396  -9.261  -1.290  0.00  0.00    -0.336 N 
HETATM    7  C           1     -21.873  -9.588  -2.631  0.00  0.00     0.127 C 
ENDROOT
BRANCH   5   8
HETATM    8  C           1     -21.766 -11.532  -0.327  0.00  0.00     0.278 C 
BRANCH   8   9
HETATM    9  N           1     -20.821 -12.411   0.438  0.00  0.00    -0.066 N 
HETATM   10  H           1     -21.314 -13.287   0.723  0.00  0.00     0.275 HD
HETATM   11  H           1     -20.004 -12.652  -0.167  0.00  0.00     0.275 HD
HETATM   12  H           1     -20.488 -11.906   1.290  0.00  0.00     0.275 HD
ENDBRANCH   8   9
BRANCH   8  13
HETATM   13  C           1     -23.170 -11.680   0.243  0.00  0.00     0.017 C 
HETATM   14  C           1     -23.268 -12.988   1.018  0.00  0.00     0.012 C 
HETATM   15  C           1     -24.183 -11.688  -0.894  0.00  0.00     0.012 C 
ENDBRANCH   8  13
ENDBRANCH   5   8
BRANCH   3  16
HETATM   16  C           1     -22.232  -6.964  -1.286  0.00  0.00     0.196 C 
HETATM   17  O           1     -23.067  -7.120  -0.369  0.00  0.00    -0.646 OA
HETATM   18  O           1     -22.405  -6.071  -2.144  0.00  0.00    -0.646 OA
ENDBRANCH   3  16
TORSDOF 4
ENDMDL
MODEL 4
REMARK VINA RESULT:      -5.6     25.188     26.335
REMARK  4 active torsions:
REMARK  status: ('A' for Active; 'I' for Inactive)
REMARK    1  A    between atoms: N_2  and  C_12 
REMARK    2  A    between atoms: C_5  and  C_12 
REMARK    3  A    between atoms: C_9  and  C_11 
REMARK    4  A    between atoms: C_12  and  C_15 
REMARK       I    between atoms: C_15  and  N_17 
ROOT
HETATM    1  C           1     -10.324   9.068 -19.837  0.00  0.00     0.038 C 
HETATM    2  O           1     -13.476   6.461 -19.625  0.00  0.00    -0.271 OA
HETATM    3  C           1     -11.779   8.720 -20.097  0.00  0.00     0.188 C 
HETATM    4  C           1      -9.529   8.197 -20.804  0.00  0.00     0.022 C 
HETATM    5  C           1     -12.560   6.325 -20.400  0.00  0.00     0.251 C 
HETATM    6  N           1     -11.720   7.375 -20.660  0.00  0.00    -0.336 N 
HETATM    7  C           1     -10.571   7.393 -21.561  0.00  0.00     0.127 C 
ENDROOT
BRANCH   5   8
HETATM    8  C           1     -12.341   4.997 -21.083  0.00  0.00     0.278 C 
BRANCH   8   9
HETATM    9  N           1     -11.487   4.123 -20.214  0.00  0.00    -0.066 N 
HETATM   10  H           1     -11.842   4.157 -19.231  0.00  0.00     0.275 HD
HETATM   11  H           1     -11.524   3.140 -20.565  0.00  0.00     0.275 HD
HETATM   12  H           1     -10.500   4.466 -20.239  0.00  0.00     0.275 HD
ENDBRANCH   8   9
BRANCH   8  13
HETATM   13  C           1     -13.685   4.320 -21.320  0.00  0.00     0.017 C 
HETATM   14  C           1     -13.473   2.823 -21.506  0.00  0.00     0.012 C 
HETATM   15  C           1     -14.334   4.900 -22.569  0.00  0.00     0.012 C 
ENDBRANCH   8  13
ENDBRANCH   5   8
BRANCH   3  16
HETATM   16  C           1     -12.395   9.687 -21.078  0.00  0.00     0.196 C 
HETATM   17  O           1     -11.816  10.764 -21.341  0.00  0.00    -0.646 OA
HETATM   18  O           1     -13.483   9.413 -21.628  0.00  0.00    -0.646 OA
ENDBRANCH   3  16
TORSDOF 4
ENDMDL
MODEL 5
REMARK VINA RESULT:      -5.5     18.729     20.427
REMARK  4 active torsions:
REMARK  status: ('A' for Active; 'I' for Inactive)
REMARK    1  A    between atoms: N_2  and  C_12 
REMARK    2  A    between atoms: C_5  and  C_12 
REMARK    3  A    between atoms: C_9  and  C_11 
REMARK    4  A    between atoms: C_12  and  C_15 
REMARK       I    between atoms: C_15  and  N_17 
ROOT
HETATM    1  C           1     -22.582 -13.070   1.050  0.00  0.00     0.038 C 
HETATM    2  O           1     -20.963  -9.313   1.251  0.00  0.00    -0.271 OA
HETATM    3  C           1     -21.422 -12.112   0.845  0.00  0.00     0.188 C 
HETATM    4  C           1     -23.603 -12.690  -0.016  0.00  0.00     0.022 C 
HETATM    5  C           1     -21.778  -9.636   0.420  0.00  0.00     0.251 C 
HETATM    6  N           1     -22.033 -10.961   0.189  0.00  0.00    -0.336 N 
HETATM    7  C           1     -22.976 -11.530  -0.770  0.00  0.00     0.127 C 
ENDROOT
BRANCH   5   8
HETATM    8  C           1     -22.515  -8.577  -0.365  0.00  0.00     0.278 C 
BRANCH   8   9
HETATM    9  N           1     -23.457  -7.847   0.546  0.00  0.00    -0.066 N 
HETATM   10  H           1     -22.999  -6.976   0.895  0.00  0.00     0.275 HD
HETATM   11  H           1     -24.325  -7.598   0.021  0.00  0.00     0.275 HD
HETATM   12  H           1     -23.703  -8.460   1.356  0.00  0.00     0.275 HD
ENDBRANCH   8   9
BRANCH   8  13
HETATM   13  C           1     -21.513  -7.592  -0.953  0.00  0.00     0.017 C 
HETATM   14  C           1     -22.260  -6.414  -1.565  0.00  0.00     0.012 C 
HETATM   15  C           1     -20.690  -8.286  -2.030  0.00  0.00     0.012 C 
ENDBRANCH   8  13
ENDBRANCH   5   8
BRANCH   3  16
HETATM   16  C           1     -20.362 -12.732  -0.031  0.00  0.00     0.196 C 
HETATM   17  O           1     -20.376 -13.962  -0.253  0.00  0.00    -0.646 OA
HETATM   18  O           1     -19.471 -12.015  -0.536  0.00  0.00    -0.646 OA
ENDBRANCH   3  16
TORSDOF 4
ENDMDL
MODEL 6
REMARK VINA RESULT:      -5.1     18.811     19.878
REMARK  4 active torsions:
REMARK  status: ('A' for Active; 'I' for Inactive)
REMARK    1  A    between atoms: N_2  and  C_12 
REMARK    2  A    between atoms: C_5  and  C_12 
REMARK    3  A    between atoms: C_9  and  C_11 
REMARK    4  A    between atoms: C_12  and  C_15 
REMARK       I    between atoms: C_15  and  N_17 
ROOT
HETATM    1  C           1     -17.845  -9.701  -3.407  0.00  0.00     0.038 C 
HETATM    2  O           1     -20.812  -7.524  -1.610  0.00  0.00    -0.271 OA
HETATM    3  C           1     -19.164  -8.951  -3.467  0.00  0.00     0.188 C 
HETATM    4  C           1     -18.144 -10.967  -2.612  0.00  0.00     0.022 C 
HETATM    5  C           1     -20.673  -8.712  -1.442  0.00  0.00     0.251 C 
HETATM    6  N           1     -19.895  -9.439  -2.303  0.00  0.00    -0.336 N 
HETATM    7  C           1     -19.617 -10.872  -2.255  0.00  0.00     0.127 C 
ENDROOT
BRANCH   5   8
HETATM    8  C           1     -21.358  -9.395  -0.283  0.00  0.00     0.278 C 
BRANCH   8   9
HETATM    9  N           1     -20.883  -8.789   1.005  0.00  0.00    -0.066 N 
HETATM   10  H           1     -20.286  -7.957   0.798  0.00  0.00     0.275 HD
HETATM   11  H           1     -21.707  -8.495   1.575  0.00  0.00     0.275 HD
HETATM   12  H           1     -20.325  -9.495   1.536  0.00  0.00     0.275 HD
ENDBRANCH   8   9
BRANCH   8  13
HETATM   13  C           1     -22.865  -9.213  -0.404  0.00  0.00     0.017 C 
HETATM   14  C           1     -23.340  -8.209   0.638  0.00  0.00     0.012 C 
HETATM   15  C           1     -23.559 -10.549  -0.176  0.00  0.00     0.012 C 
ENDBRANCH   8  13
ENDBRANCH   5   8
BRANCH   3  16
HETATM   16  C           1     -19.906  -9.273  -4.742  0.00  0.00     0.196 C 
HETATM   17  O           1     -21.129  -9.033  -4.829  0.00  0.00    -0.646 OA
HETATM   18  O           1     -19.297  -9.779  -5.709  0.00  0.00    -0.646 OA
ENDBRANCH   3  16
TORSDOF 4
ENDMDL
MODEL 7
REMARK VINA RESULT:      -5.0     18.349     19.621
REMARK  4 active torsions:
REMARK  status: ('A' for Active; 'I' for Inactive)
REMARK    1  A    between atoms: N_2  and  C_12 
REMARK    2  A    between atoms: C_5  and  C_12 
REMARK    3  A    between atoms: C_9  and  C_11 
REMARK    4  A    between atoms: C_12  and  C_15 
REMARK       I    between atoms: C_15  and  N_17 
ROOT
HETATM    1  C           1     -22.197  -8.601   0.667  0.00  0.00     0.038 C 
HETATM    2  O           1     -19.482 -10.804  -1.466  0.00  0.00    -0.271 OA
HETATM    3  C           1     -21.845  -9.801  -0.194  0.00  0.00     0.188 C 
HETATM    4  C           1     -22.127  -7.404  -0.274  0.00  0.00     0.022 C 
HETATM    5  C           1     -19.928  -9.752  -1.857  0.00  0.00     0.251 C 
HETATM    6  N           1     -21.056  -9.231  -1.281  0.00  0.00    -0.336 N 
HETATM    7  C           1     -21.732  -7.982  -1.622  0.00  0.00     0.127 C 
ENDROOT
BRANCH   5   8
HETATM    8  C           1     -19.243  -9.012  -2.981  0.00  0.00     0.278 C 
BRANCH   8   9
HETATM    9  N           1     -17.768  -9.280  -2.927  0.00  0.00    -0.066 N 
HETATM   10  H           1     -17.355  -9.142  -3.877  0.00  0.00     0.275 HD
HETATM   11  H           1     -17.319  -8.621  -2.252  0.00  0.00     0.275 HD
HETATM   12  H           1     -17.605 -10.264  -2.616  0.00  0.00     0.275 HD
ENDBRANCH   8   9
BRANCH   8  13
HETATM   13  C           1     -19.798  -9.490  -4.316  0.00  0.00     0.017 C 
HETATM   14  C           1     -18.676 -10.109  -5.139  0.00  0.00     0.012 C 
HETATM   15  C           1     -20.391  -8.309  -5.073  0.00  0.00     0.012 C 
ENDBRANCH   8  13
ENDBRANCH   5   8
BRANCH   3  16
HETATM   16  C           1     -23.091 -10.466  -0.725  0.00  0.00     0.196 C 
HETATM   17  O           1     -24.148 -10.434  -0.058  0.00  0.00    -0.646 OA
HETATM   18  O           1     -23.067 -11.048  -1.831  0.00  0.00    -0.646 OA
ENDBRANCH   3  16
TORSDOF 4
ENDMDL
MODEL 8
REMARK VINA RESULT:      -4.8     18.365     19.306
REMARK  4 active torsions:
REMARK  status: ('A' for Active; 'I' for Inactive)
REMARK    1  A    between atoms: N_2  and  C_12 
REMARK    2  A    between atoms: C_5  and  C_12 
REMARK    3  A    between atoms: C_9  and  C_11 
REMARK    4  A    between atoms: C_12  and  C_15 
REMARK       I    between atoms: C_15  and  N_17 
ROOT
HETATM    1  C           1     -20.704 -12.260  -4.455  0.00  0.00     0.038 C 
HETATM    2  O           1     -20.110  -9.904  -1.158  0.00  0.00    -0.271 OA
HETATM    3  C           1     -20.107 -11.032  -3.791  0.00  0.00     0.188 C 
HETATM    4  C           1     -22.204 -11.992  -4.510  0.00  0.00     0.022 C 
HETATM    5  C           1     -21.162  -9.955  -1.750  0.00  0.00     0.251 C 
HETATM    6  N           1     -21.213 -10.485  -3.011  0.00  0.00    -0.336 N 
HETATM    7  C           1     -22.386 -10.627  -3.869  0.00  0.00     0.127 C 
ENDROOT
BRANCH   5   8
HETATM    8  C           1     -22.421  -9.434  -1.099  0.00  0.00     0.278 C 
BRANCH   8   9
HETATM    9  N           1     -22.950 -10.462  -0.143  0.00  0.00    -0.066 N 
HETATM   10  H           1     -23.990 -10.512  -0.226  0.00  0.00     0.275 HD
HETATM   11  H           1     -22.536 -11.394  -0.369  0.00  0.00     0.275 HD
HETATM   12  H           1     -22.692 -10.193   0.834  0.00  0.00     0.275 HD
ENDBRANCH   8   9
BRANCH   8  13
HETATM   13  C           1     -22.107  -8.150  -0.342  0.00  0.00     0.017 C 
HETATM   14  C           1     -23.129  -7.955   0.771  0.00  0.00     0.012 C 
HETATM   15  C           1     -22.166  -6.968  -1.299  0.00  0.00     0.012 C 
ENDBRANCH   8  13
ENDBRANCH   5   8
BRANCH   3  16
HETATM   16  C           1     -19.636 -10.039  -4.825  0.00  0.00     0.196 C 
HETATM   17  O           1     -19.343  -8.873  -4.483  0.00  0.00    -0.646 OA
HETATM   18  O           1     -19.539 -10.382  -6.023  0.00  0.00    -0.646 OA
ENDBRANCH   3  16
TORSDOF 4
ENDMDL
MODEL 9
REMARK VINA RESULT:      -4.8     26.659     28.344
REMARK  4 active torsions:
REMARK  status: ('A' for Active; 'I' for Inactive)
REMARK    1  A    between atoms: N_2  and  C_12 
REMARK    2  A    between atoms: C_5  and  C_12 
REMARK    3  A    between atoms: C_9  and  C_11 
REMARK    4  A    between atoms: C_12  and  C_15 
REMARK       I    between atoms: C_15  and  N_17 
ROOT
HETATM    1  C           1     -17.496  11.167   6.903  0.00  0.00     0.038 C 
HETATM    2  O           1     -15.555   7.966   5.240  0.00  0.00    -0.271 OA
HETATM    3  C           1     -17.516   9.808   6.225  0.00  0.00     0.188 C 
HETATM    4  C           1     -17.040  12.141   5.823  0.00  0.00     0.022 C 
HETATM    5  C           1     -15.646   9.039   4.692  0.00  0.00     0.251 C 
HETATM    6  N           1     -16.567   9.954   5.125  0.00  0.00    -0.336 N 
HETATM    7  C           1     -16.816  11.288   4.587  0.00  0.00     0.127 C 
ENDROOT
BRANCH   5   8
HETATM    8  C           1     -14.742   9.370   3.528  0.00  0.00     0.278 C 
BRANCH   8   9
HETATM    9  N           1     -13.311   9.208   3.946  0.00  0.00    -0.066 N 
HETATM   10  H           1     -12.990  10.076   4.431  0.00  0.00     0.275 HD
HETATM   11  H           1     -13.228   8.394   4.596  0.00  0.00     0.275 HD
HETATM   12  H           1     -12.719   9.042   3.101  0.00  0.00     0.275 HD
ENDBRANCH   8   9
BRANCH   8  13
HETATM   13  C           1     -15.043   8.429   2.369  0.00  0.00     0.017 C 
HETATM   14  C           1     -14.013   8.638   1.267  0.00  0.00     0.012 C 
HETATM   15  C           1     -16.435   8.720   1.825  0.00  0.00     0.012 C 
ENDBRANCH   8  13
ENDBRANCH   5   8
BRANCH   3  16
HETATM   16  C           1     -18.896   9.486   5.706  0.00  0.00     0.196 C 
HETATM   17  O           1     -19.894  10.063   6.189  0.00  0.00    -0.646 OA
HETATM   18  O           1     -19.040   8.644   4.794  0.00  0.00    -0.646 OA
ENDBRANCH   3  16
TORSDOF 4
ENDMDL
