MODEL 1
REMARK VINA RESULT:      -6.8      0.000      0.000
REMARK  6 active torsions:
REMARK  status: ('A' for Active; 'I' for Inactive)
REMARK    1  A    between atoms: C_8  and  C_21 
REMARK    2  A    between atoms: C_10  and  C_17 
REMARK    3  A    between atoms: C_10  and  C_20 
REMARK    4  A    between atoms: C_10  and  N_18 
REMARK    5  A    between atoms: N_11  and  C_21 
REMARK       I    between atoms: N_11  and  C_17 
REMARK    6  A    between atoms: C_19  and  C_20 
ROOT
HETATM    1  C           1     -28.906  -6.341 -17.123  0.00  0.00     0.280 C 
ENDROOT
BRANCH   1   2
HETATM    2  C           1     -27.493  -6.062 -16.672  0.00  0.00     0.249 C 
HETATM    3  N           1     -26.751  -7.056 -16.093  0.00  0.00    -0.349 N 
HETATM    4  H           1     -27.149  -7.978 -15.969  0.00  0.00     0.163 HD
HETATM    5  O           1     -27.018  -4.961 -16.819  0.00  0.00    -0.271 OA
BRANCH   3   6
HETATM    6  C           1     -25.394  -6.788 -15.659  0.00  0.00     0.235 C 
BRANCH   6   7
HETATM    7  C           1     -24.422  -7.460 -16.599  0.00  0.00     0.191 C 
HETATM    8  O           1     -23.892  -8.545 -16.278  0.00  0.00    -0.647 OA
HETATM    9  O           1     -24.151  -6.933 -17.699  0.00  0.00    -0.647 OA
ENDBRANCH   6   7
ENDBRANCH   3   6
ENDBRANCH   1   2
BRANCH   1  10
HETATM   10  C           1     -29.885  -5.805 -16.086  0.00  0.00     0.101 C 
BRANCH  10  11
HETATM   11  C           1     -30.773  -4.780 -16.719  0.00  0.00     0.028 A 
HETATM   12  C           1     -30.333  -3.742 -17.505  0.00  0.00     0.114 A 
HETATM   13  N           1     -31.465  -3.064 -17.864  0.00  0.00    -0.360 N 
HETATM   14  C           1     -32.526  -3.705 -17.290  0.00  0.00     0.180 A 
HETATM   15  H           1     -31.511  -2.207 -18.468  0.00  0.00     0.166 HD
HETATM   16  N           1     -32.138  -4.747 -16.591  0.00  0.00    -0.355 N 
ATOM     17  HN          1     -32.726  -5.394 -16.065  1.00  0.00     0.166 HD
ENDBRANCH  10  11
ENDBRANCH   1  10
BRANCH   1  18
HETATM   18  N           1     -29.100  -7.820 -17.275  0.00  0.00    -0.066 N 
HETATM   19  H           1     -29.784  -8.005 -18.041  0.00  0.00     0.275 HD
HETATM   20  H           1     -28.185  -8.269 -17.509  0.00  0.00     0.275 HD
HETATM   21  H           1     -29.462  -8.219 -16.379  0.00  0.00     0.275 HD
ENDBRANCH   1  18
TORSDOF 6
ENDMDL
MODEL 2
REMARK VINA RESULT:      -6.1      2.667      2.994
REMARK  6 active torsions:
REMARK  status: ('A' for Active; 'I' for Inactive)
REMARK    1  A    between atoms: C_8  and  C_21 
REMARK    2  A    between atoms: C_10  and  C_17 
REMARK    3  A    between atoms: C_10  and  C_20 
REMARK    4  A    between atoms: C_10  and  N_18 
REMARK    5  A    between atoms: N_11  and  C_21 
REMARK       I    between atoms: N_11  and  C_17 
REMARK    6  A    between atoms: C_19  and  C_20 
ROOT
HETATM    1  C           1     -28.131  -6.433 -16.915  0.00  0.00     0.280 C 
ENDROOT
BRANCH   1   2
HETATM    2  C           1     -27.105  -6.414 -18.022  0.00  0.00     0.249 C 
HETATM    3  N           1     -27.482  -6.691 -19.308  0.00  0.00    -0.349 N 
HETATM    4  H           1     -28.449  -6.907 -19.517  0.00  0.00     0.163 HD
HETATM    5  O           1     -25.951  -6.157 -17.773  0.00  0.00    -0.271 OA
BRANCH   3   6
HETATM    6  C           1     -26.498  -6.674 -20.372  0.00  0.00     0.235 C 
BRANCH   6   7
HETATM    7  C           1     -26.497  -8.007 -21.080  0.00  0.00     0.191 C 
HETATM    8  O           1     -27.568  -8.635 -21.229  0.00  0.00    -0.647 OA
HETATM    9  O           1     -25.428  -8.481 -21.520  0.00  0.00    -0.647 OA
ENDBRANCH   6   7
ENDBRANCH   3   6
ENDBRANCH   1   2
BRANCH   1  10
HETATM   10  C           1     -28.346  -5.016 -16.398  0.00  0.00     0.101 C 
BRANCH  10  11
HETATM   11  C           1     -29.738  -4.571 -16.724  0.00  0.00     0.028 A 
HETATM   12  C           1     -30.049  -3.465 -17.477  0.00  0.00     0.114 A 
HETATM   13  N           1     -31.415  -3.437 -17.519  0.00  0.00    -0.360 N 
HETATM   14  C           1     -31.869  -4.507 -16.801  0.00  0.00     0.180 A 
HETATM   15  H           1     -32.008  -2.724 -18.011  0.00  0.00     0.166 HD
HETATM   16  N           1     -30.877  -5.211 -16.308  0.00  0.00    -0.355 N 
ATOM     17  HN          1     -30.940  -6.054 -15.736  1.00  0.00     0.166 HD
ENDBRANCH  10  11
ENDBRANCH   1  10
BRANCH   1  18
HETATM   18  N           1     -27.642  -7.303 -15.795  0.00  0.00    -0.066 N 
HETATM   19  H           1     -26.927  -6.785 -15.238  0.00  0.00     0.275 HD
HETATM   20  H           1     -28.446  -7.559 -15.178  0.00  0.00     0.275 HD
HETATM   21  H           1     -27.216  -8.173 -16.189  0.00  0.00     0.275 HD
ENDBRANCH   1  18
TORSDOF 6
ENDMDL
MODEL 3
REMARK VINA RESULT:      -6.1      8.125     10.027
REMARK  6 active torsions:
REMARK  status: ('A' for Active; 'I' for Inactive)
REMARK    1  A    between atoms: C_8  and  C_21 
REMARK    2  A    between atoms: C_10  and  C_17 
REMARK    3  A    between atoms: C_10  and  C_20 
REMARK    4  A    between atoms: C_10  and  N_18 
REMARK    5  A    between atoms: N_11  and  C_21 
REMARK       I    between atoms: N_11  and  C_17 
REMARK    6  A    between atoms: C_19  and  C_20 
ROOT
HETATM    1  C           1     -34.527  -2.325 -11.908  0.00  0.00     0.280 C 
ENDROOT
BRANCH   1   2
HETATM    2  C           1     -35.419  -1.537 -12.836  0.00  0.00     0.249 C 
HETATM    3  N           1     -34.939  -1.107 -14.044  0.00  0.00    -0.349 N 
HETATM    4  H           1     -33.987  -1.318 -14.315  0.00  0.00     0.163 HD
HETATM    5  O           1     -36.554  -1.283 -12.512  0.00  0.00    -0.271 OA
BRANCH   3   6
HETATM    6  C           1     -35.795  -0.348 -14.935  0.00  0.00     0.235 C 
BRANCH   6   7
HETATM    7  C           1     -35.791  -0.988 -16.302  0.00  0.00     0.191 C 
HETATM    8  O           1     -36.742  -0.788 -17.088  0.00  0.00    -0.647 OA
HETATM    9  O           1     -34.835  -1.715 -16.649  0.00  0.00    -0.647 OA
ENDBRANCH   6   7
ENDBRANCH   3   6
ENDBRANCH   1   2
BRANCH   1  10
HETATM   10  C           1     -35.362  -3.350 -11.151  0.00  0.00     0.101 C 
BRANCH  10  11
HETATM   11  C           1     -34.612  -4.642 -11.065  0.00  0.00     0.028 A 
HETATM   12  C           1     -33.367  -4.862 -11.606  0.00  0.00     0.114 A 
HETATM   13  N           1     -33.068  -6.159 -11.294  0.00  0.00    -0.360 N 
HETATM   14  C           1     -34.124  -6.665 -10.590  0.00  0.00     0.180 A 
HETATM   15  H           1     -32.189  -6.673 -11.549  0.00  0.00     0.166 HD
HETATM   16  N           1     -35.073  -5.770 -10.437  0.00  0.00    -0.355 N 
ATOM     17  HN          1     -35.964  -5.889  -9.953  1.00  0.00     0.166 HD
ENDBRANCH  10  11
ENDBRANCH   1  10
BRANCH   1  18
HETATM   18  N           1     -33.873  -1.394 -10.931  0.00  0.00    -0.066 N 
HETATM   19  H           1     -34.272  -1.552  -9.979  0.00  0.00     0.275 HD
HETATM   20  H           1     -32.844  -1.577 -10.912  0.00  0.00     0.275 HD
HETATM   21  H           1     -34.046  -0.405 -11.222  0.00  0.00     0.275 HD
ENDBRANCH   1  18
TORSDOF 6
ENDMDL
MODEL 4
REMARK VINA RESULT:      -6.0      8.167      9.289
REMARK  6 active torsions:
REMARK  status: ('A' for Active; 'I' for Inactive)
REMARK    1  A    between atoms: C_8  and  C_21 
REMARK    2  A    between atoms: C_10  and  C_17 
REMARK    3  A    between atoms: C_10  and  C_20 
REMARK    4  A    between atoms: C_10  and  N_18 
REMARK    5  A    between atoms: N_11  and  C_21 
REMARK       I    between atoms: N_11  and  C_17 
REMARK    6  A    between atoms: C_19  and  C_20 
ROOT
HETATM    1  C           1     -35.618  -0.606 -12.421  0.00  0.00     0.280 C 
ENDROOT
BRANCH   1   2
HETATM    2  C           1     -34.612  -1.660 -12.026  0.00  0.00     0.249 C 
HETATM    3  N           1     -34.451  -2.776 -12.802  0.00  0.00    -0.349 N 
HETATM    4  H           1     -35.004  -2.894 -13.641  0.00  0.00     0.163 HD
HETATM    5  O           1     -33.952  -1.520 -11.024  0.00  0.00    -0.271 OA
BRANCH   3   6
HETATM    6  C           1     -33.485  -3.789 -12.423  0.00  0.00     0.235 C 
BRANCH   6   7
HETATM    7  C           1     -34.205  -4.969 -11.818  0.00  0.00     0.191 C 
HETATM    8  O           1     -35.091  -5.563 -12.471  0.00  0.00    -0.647 OA
HETATM    9  O           1     -33.913  -5.356 -10.666  0.00  0.00    -0.647 OA
ENDBRANCH   6   7
ENDBRANCH   3   6
ENDBRANCH   1   2
BRANCH   1  10
HETATM   10  C           1     -35.045   0.247 -13.545  0.00  0.00     0.101 C 
BRANCH  10  11
HETATM   11  C           1     -35.670  -0.151 -14.845  0.00  0.00     0.028 A 
HETATM   12  C           1     -36.926   0.228 -15.257  0.00  0.00     0.114 A 
HETATM   13  N           1     -37.087  -0.354 -16.484  0.00  0.00    -0.360 N 
HETATM   14  C           1     -35.945  -1.050 -16.761  0.00  0.00     0.180 A 
HETATM   15  H           1     -37.933  -0.280 -17.100  0.00  0.00     0.166 HD
HETATM   16  N           1     -35.070  -0.946 -15.787  0.00  0.00    -0.355 N 
ATOM     17  HN          1     -34.142  -1.367 -15.741  1.00  0.00     0.166 HD
ENDBRANCH  10  11
ENDBRANCH   1  10
BRANCH   1  18
HETATM   18  N           1     -35.921   0.264 -11.238  0.00  0.00    -0.066 N 
HETATM   19  H           1     -35.132   0.212 -10.556  0.00  0.00     0.275 HD
HETATM   20  H           1     -36.042   1.253 -11.555  0.00  0.00     0.275 HD
HETATM   21  H           1     -36.801  -0.064 -10.779  0.00  0.00     0.275 HD
ENDBRANCH   1  18
TORSDOF 6
ENDMDL
MODEL 5
REMARK VINA RESULT:      -5.9     10.392     12.202
REMARK  6 active torsions:
REMARK  status: ('A' for Active; 'I' for Inactive)
REMARK    1  A    between atoms: C_8  and  C_21 
REMARK    2  A    between atoms: C_10  and  C_17 
REMARK    3  A    between atoms: C_10  and  C_20 
REMARK    4  A    between atoms: C_10  and  N_18 
REMARK    5  A    between atoms: N_11  and  C_21 
REMARK       I    between atoms: N_11  and  C_17 
REMARK    6  A    between atoms: C_19  and  C_20 
ROOT
HETATM    1  C           1     -21.998  -4.594  -7.176  0.00  0.00     0.280 C 
ENDROOT
BRANCH   1   2
HETATM    2  C           1     -21.556  -5.793  -6.371  0.00  0.00     0.249 C 
HETATM    3  N           1     -21.951  -5.925  -5.067  0.00  0.00    -0.349 N 
HETATM    4  H           1     -22.540  -5.220  -4.643  0.00  0.00     0.163 HD
HETATM    5  O           1     -20.852  -6.634  -6.877  0.00  0.00    -0.271 OA
BRANCH   3   6
HETATM    6  C           1     -21.526  -7.075  -4.294  0.00  0.00     0.235 C 
BRANCH   6   7
HETATM    7  C           1     -21.615  -6.753  -2.822  0.00  0.00     0.191 C 
HETATM    8  O           1     -22.449  -5.915  -2.415  0.00  0.00    -0.647 OA
HETATM    9  O           1     -20.859  -7.328  -2.010  0.00  0.00    -0.647 OA
ENDBRANCH   6   7
ENDBRANCH   3   6
ENDBRANCH   1   2
BRANCH   1  10
HETATM   10  C           1     -21.983  -4.945  -8.658  0.00  0.00     0.101 C 
BRANCH  10  11
HETATM   11  C           1     -23.187  -4.355  -9.324  0.00  0.00     0.028 A 
HETATM   12  C           1     -23.510  -4.527 -10.649  0.00  0.00     0.114 A 
HETATM   13  N           1     -24.670  -3.825 -10.824  0.00  0.00    -0.360 N 
HETATM   14  C           1     -24.996  -3.265  -9.622  0.00  0.00     0.180 A 
HETATM   15  H           1     -25.211  -3.732 -11.719  0.00  0.00     0.166 HD
HETATM   16  N           1     -24.117  -3.568  -8.695  0.00  0.00    -0.355 N 
ATOM     17  HN          1     -24.123  -3.279  -7.717  1.00  0.00     0.166 HD
ENDBRANCH  10  11
ENDBRANCH   1  10
BRANCH   1  18
HETATM   18  N           1     -21.062  -3.450  -6.923  0.00  0.00    -0.066 N 
HETATM   19  H           1     -21.354  -2.946  -6.056  0.00  0.00     0.275 HD
HETATM   20  H           1     -20.090  -3.816  -6.803  0.00  0.00     0.275 HD
HETATM   21  H           1     -21.088  -2.792  -7.735  0.00  0.00     0.275 HD
ENDBRANCH   1  18
TORSDOF 6
ENDMDL
MODEL 6
REMARK VINA RESULT:      -5.9      1.733      2.095
REMARK  6 active torsions:
REMARK  status: ('A' for Active; 'I' for Inactive)
REMARK    1  A    between atoms: C_8  and  C_21 
REMARK    2  A    between atoms: C_10  and  C_17 
REMARK    3  A    between atoms: C_10  and  C_20 
REMARK    4  A    between atoms: C_10  and  N_18 
REMARK    5  A    between atoms: N_11  and  C_21 
REMARK       I    between atoms: N_11  and  C_17 
REMARK    6  A    between atoms: C_19  and  C_20 
ROOT
HETATM    1  C           1     -29.483  -6.727 -18.381  0.00  0.00     0.280 C 
ENDROOT
BRANCH   1   2
HETATM    2  C           1     -27.992  -6.544 -18.527  0.00  0.00     0.249 C 
HETATM    3  N           1     -27.171  -6.728 -17.447  0.00  0.00    -0.349 N 
HETATM    4  H           1     -27.563  -6.989 -16.552  0.00  0.00     0.163 HD
HETATM    5  O           1     -27.523  -6.231 -19.596  0.00  0.00    -0.271 OA
BRANCH   3   6
HETATM    6  C           1     -25.739  -6.551 -17.587  0.00  0.00     0.235 C 
BRANCH   6   7
HETATM    7  C           1     -25.069  -6.789 -16.255  0.00  0.00     0.191 C 
HETATM    8  O           1     -25.050  -5.883 -15.395  0.00  0.00    -0.647 OA
HETATM    9  O           1     -24.538  -7.894 -16.012  0.00  0.00    -0.647 OA
ENDBRANCH   6   7
ENDBRANCH   3   6
ENDBRANCH   1   2
BRANCH   1  10
HETATM   10  C           1     -29.947  -6.090 -17.077  0.00  0.00     0.101 C 
BRANCH  10  11
HETATM   11  C           1     -29.911  -4.599 -17.208  0.00  0.00     0.028 A 
HETATM   12  C           1     -30.985  -3.819 -17.562  0.00  0.00     0.114 A 
HETATM   13  N           1     -30.509  -2.537 -17.559  0.00  0.00    -0.360 N 
HETATM   14  C           1     -29.189  -2.591 -17.210  0.00  0.00     0.180 A 
HETATM   15  H           1     -31.056  -1.670 -17.783  0.00  0.00     0.166 HD
HETATM   16  N           1     -28.799  -3.826 -16.992  0.00  0.00    -0.355 N 
ATOM     17  HN          1     -27.868  -4.143 -16.721  1.00  0.00     0.166 HD
ENDBRANCH  10  11
ENDBRANCH   1  10
BRANCH   1  18
HETATM   18  N           1     -29.807  -8.191 -18.364  0.00  0.00    -0.066 N 
HETATM   19  H           1     -30.779  -8.337 -18.718  0.00  0.00     0.275 HD
HETATM   20  H           1     -29.133  -8.704 -18.978  0.00  0.00     0.275 HD
HETATM   21  H           1     -29.733  -8.554 -17.387  0.00  0.00     0.275 HD
ENDBRANCH   1  18
TORSDOF 6
ENDMDL
MODEL 7
REMARK VINA RESULT:      -5.9      9.260     11.831
REMARK  6 active torsions:
REMARK  status: ('A' for Active; 'I' for Inactive)
REMARK    1  A    between atoms: C_8  and  C_21 
REMARK    2  A    between atoms: C_10  and  C_17 
REMARK    3  A    between atoms: C_10  and  C_20 
REMARK    4  A    between atoms: C_10  and  N_18 
REMARK    5  A    between atoms: N_11  and  C_21 
REMARK       I    between atoms: N_11  and  C_17 
REMARK    6  A    between atoms: C_19  and  C_20 
ROOT
HETATM    1  C           1     -35.456  -1.558 -12.110  0.00  0.00     0.280 C 
ENDROOT
BRANCH   1   2
HETATM    2  C           1     -36.509  -0.831 -11.309  0.00  0.00     0.249 C 
HETATM    3  N           1     -36.147   0.192 -10.475  0.00  0.00    -0.349 N 
HETATM    4  H           1     -35.175   0.462 -10.395  0.00  0.00     0.163 HD
HETATM    5  O           1     -37.669  -1.152 -11.403  0.00  0.00    -0.271 OA
BRANCH   3   6
HETATM    6  C           1     -37.158   0.891  -9.704  0.00  0.00     0.235 C 
BRANCH   6   7
HETATM    7  C           1     -36.711   0.997  -8.267  0.00  0.00     0.191 C 
HETATM    8  O           1     -35.760   0.298  -7.855  0.00  0.00    -0.647 OA
HETATM    9  O           1     -37.290   1.786  -7.489  0.00  0.00    -0.647 OA
ENDBRANCH   6   7
ENDBRANCH   3   6
ENDBRANCH   1   2
BRANCH   1  10
HETATM   10  C           1     -34.268  -1.879 -11.213  0.00  0.00     0.101 C 
BRANCH  10  11
HETATM   11  C           1     -33.986  -3.348 -11.262  0.00  0.00     0.028 A 
HETATM   12  C           1     -32.835  -3.908 -11.764  0.00  0.00     0.114 A 
HETATM   13  N           1     -33.002  -5.257 -11.612  0.00  0.00    -0.360 N 
HETATM   14  C           1     -34.224  -5.457 -11.036  0.00  0.00     0.180 A 
HETATM   15  H           1     -32.316  -6.002 -11.889  0.00  0.00     0.166 HD
HETATM   16  N           1     -34.843  -4.320 -10.813  0.00  0.00    -0.355 N 
ATOM     17  HN          1     -35.764  -4.189 -10.395  1.00  0.00     0.166 HD
ENDBRANCH  10  11
ENDBRANCH   1  10
BRANCH   1  18
HETATM   18  N           1     -35.004  -0.690 -13.246  0.00  0.00    -0.066 N 
HETATM   19  H           1     -34.459   0.118 -12.872  0.00  0.00     0.275 HD
HETATM   20  H           1     -34.400  -1.249 -13.892  0.00  0.00     0.275 HD
HETATM   21  H           1     -35.837  -0.337 -13.769  0.00  0.00     0.275 HD
ENDBRANCH   1  18
TORSDOF 6
ENDMDL
MODEL 8
REMARK VINA RESULT:      -5.7     10.322     12.970
REMARK  6 active torsions:
REMARK  status: ('A' for Active; 'I' for Inactive)
REMARK    1  A    between atoms: C_8  and  C_21 
REMARK    2  A    between atoms: C_10  and  C_17 
REMARK    3  A    between atoms: C_10  and  C_20 
REMARK    4  A    between atoms: C_10  and  N_18 
REMARK    5  A    between atoms: N_11  and  C_21 
REMARK       I    between atoms: N_11  and  C_17 
REMARK    6  A    between atoms: C_19  and  C_20 
ROOT
HETATM    1  C           1     -20.668  -4.949  -7.183  0.00  0.00     0.280 C 
ENDROOT
BRANCH   1   2
HETATM    2  C           1     -22.122  -4.644  -7.449  0.00  0.00     0.249 C 
HETATM    3  N           1     -22.527  -4.288  -8.707  0.00  0.00    -0.349 N 
HETATM    4  H           1     -21.853  -4.230  -9.459  0.00  0.00     0.163 HD
HETATM    5  O           1     -22.928  -4.712  -6.552  0.00  0.00    -0.271 OA
BRANCH   3   6
HETATM    6  C           1     -23.924  -3.994  -8.963  0.00  0.00     0.235 C 
BRANCH   6   7
HETATM    7  C           1     -24.076  -3.450 -10.363  0.00  0.00     0.191 C 
HETATM    8  O           1     -25.211  -3.166 -10.803  0.00  0.00    -0.647 OA
HETATM    9  O           1     -23.066  -3.280 -11.080  0.00  0.00    -0.647 OA
ENDBRANCH   6   7
ENDBRANCH   3   6
ENDBRANCH   1   2
BRANCH   1  10
HETATM   10  C           1     -20.370  -4.746  -5.703  0.00  0.00     0.101 C 
BRANCH  10  11
HETATM   11  C           1     -20.743  -5.980  -4.943  0.00  0.00     0.028 A 
HETATM   12  C           1     -20.269  -7.240  -5.217  0.00  0.00     0.114 A 
HETATM   13  N           1     -20.863  -8.052  -4.290  0.00  0.00    -0.360 N 
HETATM   14  C           1     -21.660  -7.265  -3.508  0.00  0.00     0.180 A 
HETATM   15  H           1     -20.732  -9.089  -4.198  0.00  0.00     0.166 HD
HETATM   16  N           1     -21.608  -6.007  -3.879  0.00  0.00    -0.355 N 
ATOM     17  HN          1     -22.105  -5.218  -3.465  1.00  0.00     0.166 HD
ENDBRANCH  10  11
ENDBRANCH   1  10
BRANCH   1  18
HETATM   18  N           1     -19.808  -4.029  -7.997  0.00  0.00    -0.066 N 
HETATM   19  H           1     -19.906  -4.266  -9.009  0.00  0.00     0.275 HD
HETATM   20  H           1     -20.109  -3.040  -7.840  0.00  0.00     0.275 HD
HETATM   21  H           1     -18.809  -4.138  -7.708  0.00  0.00     0.275 HD
ENDBRANCH   1  18
TORSDOF 6
ENDMDL
MODEL 9
REMARK VINA RESULT:      -5.6      2.823      6.543
REMARK  6 active torsions:
REMARK  status: ('A' for Active; 'I' for Inactive)
REMARK    1  A    between atoms: C_8  and  C_21 
REMARK    2  A    between atoms: C_10  and  C_17 
REMARK    3  A    between atoms: C_10  and  C_20 
REMARK    4  A    between atoms: C_10  and  N_18 
REMARK    5  A    between atoms: N_11  and  C_21 
REMARK       I    between atoms: N_11  and  C_17 
REMARK    6  A    between atoms: C_19  and  C_20 
ROOT
HETATM    1  C           1     -28.350  -6.202 -17.320  0.00  0.00     0.280 C 
ENDROOT
BRANCH   1   2
HETATM    2  C           1     -29.617  -5.745 -16.638  0.00  0.00     0.249 C 
HETATM    3  N           1     -30.723  -5.440 -17.384  0.00  0.00    -0.349 N 
HETATM    4  H           1     -30.692  -5.522 -18.392  0.00  0.00     0.163 HD
HETATM    5  O           1     -29.654  -5.647 -15.434  0.00  0.00    -0.271 OA
BRANCH   3   6
HETATM    6  C           1     -31.940  -5.001 -16.730  0.00  0.00     0.235 C 
BRANCH   6   7
HETATM    7  C           1     -32.346  -3.653 -17.273  0.00  0.00     0.191 C 
HETATM    8  O           1     -31.538  -2.984 -17.953  0.00  0.00    -0.647 OA
HETATM    9  O           1     -33.492  -3.207 -17.047  0.00  0.00    -0.647 OA
ENDBRANCH   6   7
ENDBRANCH   3   6
ENDBRANCH   1   2
BRANCH   1  10
HETATM   10  C           1     -27.146  -5.580 -16.624  0.00  0.00     0.101 C 
BRANCH  10  11
HETATM   11  C           1     -25.930  -6.410 -16.889  0.00  0.00     0.028 A 
HETATM   12  C           1     -25.221  -7.089 -15.927  0.00  0.00     0.114 A 
HETATM   13  N           1     -24.204  -7.703 -16.603  0.00  0.00    -0.360 N 
HETATM   14  C           1     -24.334  -7.377 -17.923  0.00  0.00     0.180 A 
HETATM   15  H           1     -23.458  -8.313 -16.185  0.00  0.00     0.166 HD
HETATM   16  N           1     -25.369  -6.596 -18.127  0.00  0.00    -0.355 N 
ATOM     17  HN          1     -25.688  -6.209 -19.015  1.00  0.00     0.166 HD
ENDBRANCH  10  11
ENDBRANCH   1  10
BRANCH   1  18
HETATM   18  N           1     -28.373  -5.773 -18.756  0.00  0.00    -0.066 N 
HETATM   19  H           1     -28.141  -4.756 -18.820  0.00  0.00     0.275 HD
HETATM   20  H           1     -27.668  -6.325 -19.296  0.00  0.00     0.275 HD
HETATM   21  H           1     -29.325  -5.939 -19.156  0.00  0.00     0.275 HD
ENDBRANCH   1  18
TORSDOF 6
ENDMDL
