MODEL 1
REMARK VINA RESULT:      -5.7      0.000      0.000
REMARK  8 active torsions:
REMARK  status: ('A' for Active; 'I' for Inactive)
REMARK    1  A    between atoms: C_2  and  C_4 
REMARK    2  A    between atoms: C_4  and  C_23 
REMARK    3  A    between atoms: C_4  and  N_16 
REMARK       I    between atoms: N_16  and  C_17 
REMARK    4  A    between atoms: C_17  and  C_18 
REMARK    5  A    between atoms: C_18  and  C_19 
REMARK    6  A    between atoms: C_18  and  N_21 
REMARK    7  A    between atoms: C_19  and  Se_20 
REMARK    8  A    between atoms: C_23  and  C_24 
ROOT
HETATM    1  C           1     -36.158  -0.228 -11.049  0.00  0.00     0.191 C 
ENDROOT
BRANCH   1   2
HETATM    2  C           1     -36.883   0.626 -10.038  0.00  0.00     0.197 C 
HETATM    3  O           1     -38.065   0.977 -10.249  0.00  0.00    -0.646 OA
HETATM    4  O           1     -36.303   0.984  -8.991  0.00  0.00    -0.646 OA
ENDBRANCH   1   2
BRANCH   1   5
HETATM    5  C           1     -37.038  -0.417 -12.278  0.00  0.00     0.094 C 
BRANCH   5   6
HETATM    6  C           1     -36.311   0.070 -13.492  0.00  0.00     0.028 A 
HETATM    7  C           1     -34.948   0.228 -13.577  0.00  0.00     0.114 A 
HETATM    8  N           1     -34.722   0.687 -14.844  0.00  0.00    -0.360 N 
HETATM    9  H           1     -33.789   0.921 -15.264  0.00  0.00     0.166 HD
HETATM   10  C           1     -35.934   0.789 -15.466  0.00  0.00     0.180 A 
HETATM   11  N           1     -36.914   0.423 -14.672  0.00  0.00    -0.354 N 
ATOM     12  HN          1     -37.910   0.404 -14.888  1.00  0.00     0.166 HD
ENDBRANCH   5   6
ENDBRANCH   1   5
BRANCH   1  13
HETATM   13  N           1     -35.861  -1.521 -10.464  0.00  0.00    -0.344 N 
HETATM   14  H           1     -36.586  -2.039  -9.986  0.00  0.00     0.163 HD
HETATM   15  C           1     -34.598  -2.041 -10.559  0.00  0.00     0.249 C 
HETATM   16  O           1     -33.780  -1.804  -9.702  0.00  0.00    -0.271 OA
BRANCH  15  17
HETATM   17  C           1     -34.226  -2.911 -11.735  0.00  0.00     0.274 C 
BRANCH  17  18
HETATM   18  C           1     -35.108  -4.154 -11.747  0.00  0.00     0.045 C 
BRANCH  18  19
HETATM   19 Se           1     -34.200  -5.604 -10.814  0.00  0.00     0.000 Se
HETATM   20  H           1     -33.413  -4.710  -9.950  0.00  0.00     0.000 HD
ENDBRANCH  18  19
ENDBRANCH  17  18
BRANCH  17  21
HETATM   21  N           1     -32.788  -3.321 -11.618  0.00  0.00    -0.067 N 
HETATM   22  H           1     -32.734  -4.325 -11.333  0.00  0.00     0.275 HD
HETATM   23  H           1     -32.314  -2.728 -10.899  0.00  0.00     0.275 HD
HETATM   24  H           1     -32.313  -3.194 -12.540  0.00  0.00     0.275 HD
ENDBRANCH  17  21
ENDBRANCH  15  17
ENDBRANCH   1  13
TORSDOF 8
ENDMDL
MODEL 2
REMARK VINA RESULT:      -5.6     10.893     12.874
REMARK  8 active torsions:
REMARK  status: ('A' for Active; 'I' for Inactive)
REMARK    1  A    between atoms: C_2  and  C_4 
REMARK    2  A    between atoms: C_4  and  C_23 
REMARK    3  A    between atoms: C_4  and  N_16 
REMARK       I    between atoms: N_16  and  C_17 
REMARK    4  A    between atoms: C_17  and  C_18 
REMARK    5  A    between atoms: C_18  and  C_19 
REMARK    6  A    between atoms: C_18  and  N_21 
REMARK    7  A    between atoms: C_19  and  Se_20 
REMARK    8  A    between atoms: C_23  and  C_24 
ROOT
HETATM    1  C           1     -25.923  -6.909 -17.323  0.00  0.00     0.191 C 
ENDROOT
BRANCH   1   2
HETATM    2  C           1     -25.109  -7.137 -16.073  0.00  0.00     0.197 C 
HETATM    3  O           1     -24.360  -8.136 -15.988  0.00  0.00    -0.646 OA
HETATM    4  O           1     -25.183  -6.330 -15.122  0.00  0.00    -0.646 OA
ENDBRANCH   1   2
BRANCH   1   5
HETATM    5  C           1     -25.013  -6.408 -18.437  0.00  0.00     0.094 C 
BRANCH   5   6
HETATM    6  C           1     -25.260  -7.207 -19.679  0.00  0.00     0.028 A 
HETATM    7  C           1     -24.275  -7.776 -20.450  0.00  0.00     0.114 A 
HETATM    8  N           1     -24.940  -8.400 -21.469  0.00  0.00    -0.360 N 
HETATM    9  H           1     -24.504  -8.943 -22.255  0.00  0.00     0.166 HD
HETATM   10  C           1     -26.275  -8.188 -21.279  0.00  0.00     0.180 A 
HETATM   11  N           1     -26.499  -7.468 -20.204  0.00  0.00    -0.354 N 
ATOM     12  HN          1     -27.402  -7.168 -19.838  1.00  0.00     0.166 HD
ENDBRANCH   5   6
ENDBRANCH   1   5
BRANCH   1  13
HETATM   13  N           1     -26.949  -5.920 -17.056  0.00  0.00    -0.344 N 
HETATM   14  H           1     -26.738  -4.935 -17.147  0.00  0.00     0.163 HD
HETATM   15  C           1     -28.203  -6.319 -16.680  0.00  0.00     0.249 C 
HETATM   16  O           1     -28.467  -6.466 -15.511  0.00  0.00    -0.271 OA
BRANCH  15  17
HETATM   17  C           1     -29.259  -6.578 -17.729  0.00  0.00     0.274 C 
BRANCH  17  18
HETATM   18  C           1     -30.549  -5.868 -17.337  0.00  0.00     0.045 C 
BRANCH  18  19
HETATM   19 Se           1     -30.330  -3.945 -17.574  0.00  0.00     0.000 Se
HETATM   20  H           1     -30.466  -3.994 -19.039  0.00  0.00     0.000 HD
ENDBRANCH  18  19
ENDBRANCH  17  18
BRANCH  17  21
HETATM   21  N           1     -29.512  -8.053 -17.830  0.00  0.00    -0.067 N 
HETATM   22  H           1     -30.173  -8.345 -17.075  0.00  0.00     0.275 HD
HETATM   23  H           1     -28.609  -8.569 -17.720  0.00  0.00     0.275 HD
HETATM   24  H           1     -29.926  -8.273 -18.763  0.00  0.00     0.275 HD
ENDBRANCH  17  21
ENDBRANCH  15  17
ENDBRANCH   1  13
TORSDOF 8
ENDMDL
MODEL 3
REMARK VINA RESULT:      -5.4     13.137     15.316
REMARK  8 active torsions:
REMARK  status: ('A' for Active; 'I' for Inactive)
REMARK    1  A    between atoms: C_2  and  C_4 
REMARK    2  A    between atoms: C_4  and  C_23 
REMARK    3  A    between atoms: C_4  and  N_16 
REMARK       I    between atoms: N_16  and  C_17 
REMARK    4  A    between atoms: C_17  and  C_18 
REMARK    5  A    between atoms: C_18  and  C_19 
REMARK    6  A    between atoms: C_18  and  N_21 
REMARK    7  A    between atoms: C_19  and  Se_20 
REMARK    8  A    between atoms: C_23  and  C_24 
ROOT
HETATM    1  C           1     -21.046  -5.392  -8.219  0.00  0.00     0.191 C 
ENDROOT
BRANCH   1   2
HETATM    2  C           1     -20.036  -4.577  -8.990  0.00  0.00     0.197 C 
HETATM    3  O           1     -19.829  -4.819 -10.199  0.00  0.00    -0.646 OA
HETATM    4  O           1     -19.406  -3.661  -8.419  0.00  0.00    -0.646 OA
ENDBRANCH   1   2
BRANCH   1   5
HETATM    5  C           1     -22.137  -4.474  -7.684  0.00  0.00     0.094 C 
BRANCH   5   6
HETATM    6  C           1     -23.162  -4.243  -8.750  0.00  0.00     0.028 A 
HETATM    7  C           1     -23.228  -4.937  -9.935  0.00  0.00     0.114 A 
HETATM    8  N           1     -24.301  -4.407 -10.597  0.00  0.00    -0.360 N 
HETATM    9  H           1     -24.652  -4.696 -11.543  0.00  0.00     0.166 HD
HETATM   10  C           1     -24.832  -3.431  -9.803  0.00  0.00     0.180 A 
HETATM   11  N           1     -24.164  -3.309  -8.679  0.00  0.00    -0.354 N 
ATOM     12  HN          1     -24.350  -2.658  -7.917  1.00  0.00     0.166 HD
ENDBRANCH   5   6
ENDBRANCH   1   5
BRANCH   1  13
HETATM   13  N           1     -20.387  -6.055  -7.111  0.00  0.00    -0.344 N 
HETATM   14  H           1     -19.381  -6.006  -7.018  0.00  0.00     0.163 HD
HETATM   15  C           1     -21.126  -6.749  -6.191  0.00  0.00     0.249 C 
HETATM   16  O           1     -21.358  -7.922  -6.361  0.00  0.00    -0.271 OA
BRANCH  15  17
HETATM   17  C           1     -21.653  -6.046  -4.963  0.00  0.00     0.274 C 
BRANCH  17  18
HETATM   18  C           1     -20.971  -6.610  -3.723  0.00  0.00     0.045 C 
BRANCH  18  19
HETATM   19 Se           1     -22.086  -6.276  -2.159  0.00  0.00     0.000 Se
HETATM   20  H           1     -21.244  -5.181  -1.650  0.00  0.00     0.000 HD
ENDBRANCH  18  19
ENDBRANCH  17  18
BRANCH  17  21
HETATM   21  N           1     -23.134  -6.263  -4.861  0.00  0.00    -0.067 N 
HETATM   22  H           1     -23.462  -5.982  -3.910  0.00  0.00     0.275 HD
HETATM   23  H           1     -23.349  -7.274  -5.019  0.00  0.00     0.275 HD
HETATM   24  H           1     -23.622  -5.687  -5.583  0.00  0.00     0.275 HD
ENDBRANCH  17  21
ENDBRANCH  15  17
ENDBRANCH   1  13
TORSDOF 8
ENDMDL
MODEL 4
REMARK VINA RESULT:      -5.3     13.642     15.818
REMARK  8 active torsions:
REMARK  status: ('A' for Active; 'I' for Inactive)
REMARK    1  A    between atoms: C_2  and  C_4 
REMARK    2  A    between atoms: C_4  and  C_23 
REMARK    3  A    between atoms: C_4  and  N_16 
REMARK       I    between atoms: N_16  and  C_17 
REMARK    4  A    between atoms: C_17  and  C_18 
REMARK    5  A    between atoms: C_18  and  C_19 
REMARK    6  A    between atoms: C_18  and  N_21 
REMARK    7  A    between atoms: C_19  and  Se_20 
REMARK    8  A    between atoms: C_23  and  C_24 
ROOT
HETATM    1  C           1     -21.280  -5.942  -7.210  0.00  0.00     0.191 C 
ENDROOT
BRANCH   1   2
HETATM    2  C           1     -19.782  -5.893  -7.028  0.00  0.00     0.197 C 
HETATM    3  O           1     -19.148  -6.943  -6.783  0.00  0.00    -0.646 OA
HETATM    4  O           1     -19.175  -4.805  -7.121  0.00  0.00    -0.646 OA
ENDBRANCH   1   2
BRANCH   1   5
HETATM    5  C           1     -21.863  -4.552  -6.988  0.00  0.00     0.094 C 
BRANCH   5   6
HETATM    6  C           1     -22.629  -4.133  -8.203  0.00  0.00     0.028 A 
HETATM    7  C           1     -22.071  -3.905  -9.439  0.00  0.00     0.114 A 
HETATM    8  N           1     -23.119  -3.547 -10.240  0.00  0.00    -0.360 N 
HETATM    9  H           1     -23.066  -3.298 -11.259  0.00  0.00     0.166 HD
HETATM   10  C           1     -24.249  -3.570  -9.474  0.00  0.00     0.180 A 
HETATM   11  N           1     -23.983  -3.921  -8.236  0.00  0.00    -0.354 N 
ATOM     12  HN          1     -24.643  -4.015  -7.465  1.00  0.00     0.166 HD
ENDBRANCH   5   6
ENDBRANCH   1   5
BRANCH   1  13
HETATM   13  N           1     -21.852  -6.865  -6.250  0.00  0.00    -0.344 N 
HETATM   14  H           1     -21.890  -7.854  -6.459  0.00  0.00     0.163 HD
HETATM   15  C           1     -22.343  -6.398  -5.060  0.00  0.00     0.249 C 
HETATM   16  O           1     -23.500  -6.063  -4.973  0.00  0.00    -0.271 OA
BRANCH  15  17
HETATM   17  C           1     -21.437  -6.300  -3.856  0.00  0.00     0.274 C 
BRANCH  17  18
HETATM   18  C           1     -20.725  -7.631  -3.647  0.00  0.00     0.045 C 
BRANCH  18  19
HETATM   19 Se           1     -20.778  -8.107  -1.758  0.00  0.00     0.000 Se
HETATM   20  H           1     -19.780  -7.101  -1.358  0.00  0.00     0.000 HD
ENDBRANCH  18  19
ENDBRANCH  17  18
BRANCH  17  21
HETATM   21  N           1     -22.255  -5.976  -2.641  0.00  0.00    -0.067 N 
HETATM   22  H           1     -23.254  -5.851  -2.918  0.00  0.00     0.275 HD
HETATM   23  H           1     -21.899  -5.092  -2.208  0.00  0.00     0.275 HD
HETATM   24  H           1     -22.179  -6.755  -1.950  0.00  0.00     0.275 HD
ENDBRANCH  17  21
ENDBRANCH  15  17
ENDBRANCH   1  13
TORSDOF 8
ENDMDL
MODEL 5
REMARK VINA RESULT:      -5.3      2.754      5.528
REMARK  8 active torsions:
REMARK  status: ('A' for Active; 'I' for Inactive)
REMARK    1  A    between atoms: C_2  and  C_4 
REMARK    2  A    between atoms: C_4  and  C_23 
REMARK    3  A    between atoms: C_4  and  N_16 
REMARK       I    between atoms: N_16  and  C_17 
REMARK    4  A    between atoms: C_17  and  C_18 
REMARK    5  A    between atoms: C_18  and  C_19 
REMARK    6  A    between atoms: C_18  and  N_21 
REMARK    7  A    between atoms: C_19  and  Se_20 
REMARK    8  A    between atoms: C_23  and  C_24 
ROOT
HETATM    1  C           1     -35.021  -2.482 -11.967  0.00  0.00     0.191 C 
ENDROOT
BRANCH   1   2
HETATM    2  C           1     -35.581  -1.880 -10.702  0.00  0.00     0.197 C 
HETATM    3  O           1     -34.814  -1.346  -9.871  0.00  0.00    -0.646 OA
HETATM    4  O           1     -36.811  -1.915 -10.483  0.00  0.00    -0.646 OA
ENDBRANCH   1   2
BRANCH   1   5
HETATM    5  C           1     -33.775  -3.292 -11.636  0.00  0.00     0.094 C 
BRANCH   5   6
HETATM    6  C           1     -34.146  -4.732 -11.470  0.00  0.00     0.028 A 
HETATM    7  C           1     -34.753  -5.500 -12.435  0.00  0.00     0.114 A 
HETATM    8  N           1     -34.905  -6.733 -11.864  0.00  0.00    -0.360 N 
HETATM    9  H           1     -35.335  -7.578 -12.314  0.00  0.00     0.166 HD
HETATM   10  C           1     -34.396  -6.665 -10.598  0.00  0.00     0.180 A 
HETATM   11  N           1     -33.930  -5.467 -10.332  0.00  0.00    -0.354 N 
ATOM     12  HN          1     -33.499  -5.150  -9.463  1.00  0.00     0.166 HD
ENDBRANCH   5   6
ENDBRANCH   1   5
BRANCH   1  13
HETATM   13  N           1     -34.675  -1.421 -12.894  0.00  0.00    -0.344 N 
HETATM   14  H           1     -33.814  -1.472 -13.423  0.00  0.00     0.163 HD
HETATM   15  C           1     -35.514  -0.351 -13.053  0.00  0.00     0.249 C 
HETATM   16  O           1     -35.385   0.628 -12.356  0.00  0.00    -0.271 OA
BRANCH  15  17
HETATM   17  C           1     -36.602  -0.393 -14.098  0.00  0.00     0.274 C 
BRANCH  17  18
HETATM   18  C           1     -36.101   0.259 -15.381  0.00  0.00     0.045 C 
BRANCH  18  19
HETATM   19 Se           1     -35.710  -1.120 -16.701  0.00  0.00     0.000 Se
HETATM   20  H           1     -37.114  -1.293 -17.106  0.00  0.00     0.000 HD
ENDBRANCH  18  19
ENDBRANCH  17  18
BRANCH  17  21
HETATM   21  N           1     -37.805   0.350 -13.598  0.00  0.00    -0.067 N 
HETATM   22  H           1     -37.815   0.332 -12.553  0.00  0.00     0.275 HD
HETATM   23  H           1     -38.673  -0.105 -13.963  0.00  0.00     0.275 HD
HETATM   24  H           1     -37.766   1.340 -13.929  0.00  0.00     0.275 HD
ENDBRANCH  17  21
ENDBRANCH  15  17
ENDBRANCH   1  13
TORSDOF 8
ENDMDL
MODEL 6
REMARK VINA RESULT:      -5.1     11.220     13.291
REMARK  8 active torsions:
REMARK  status: ('A' for Active; 'I' for Inactive)
REMARK    1  A    between atoms: C_2  and  C_4 
REMARK    2  A    between atoms: C_4  and  C_23 
REMARK    3  A    between atoms: C_4  and  N_16 
REMARK       I    between atoms: N_16  and  C_17 
REMARK    4  A    between atoms: C_17  and  C_18 
REMARK    5  A    between atoms: C_18  and  C_19 
REMARK    6  A    between atoms: C_18  and  N_21 
REMARK    7  A    between atoms: C_19  and  Se_20 
REMARK    8  A    between atoms: C_23  and  C_24 
ROOT
HETATM    1  C           1     -27.721  -7.161 -20.272  0.00  0.00     0.191 C 
ENDROOT
BRANCH   1   2
HETATM    2  C           1     -27.333  -8.368 -21.091  0.00  0.00     0.197 C 
HETATM    3  O           1     -26.169  -8.472 -21.537  0.00  0.00    -0.646 OA
HETATM    4  O           1     -28.174  -9.262 -21.323  0.00  0.00    -0.646 OA
ENDBRANCH   1   2
BRANCH   1   5
HETATM    5  C           1     -26.522  -6.231 -20.139  0.00  0.00     0.094 C 
BRANCH   5   6
HETATM    6  C           1     -25.688  -6.656 -18.972  0.00  0.00     0.028 A 
HETATM    7  C           1     -24.451  -7.248 -19.069  0.00  0.00     0.114 A 
HETATM    8  N           1     -24.060  -7.465 -17.777  0.00  0.00    -0.360 N 
HETATM    9  H           1     -23.158  -7.904 -17.466  0.00  0.00     0.166 HD
HETATM   10  C           1     -25.055  -7.005 -16.963  0.00  0.00     0.180 A 
HETATM   11  N           1     -26.054  -6.511 -17.658  0.00  0.00    -0.354 N 
ATOM     12  HN          1     -26.918  -6.106 -17.298  1.00  0.00     0.166 HD
ENDBRANCH   5   6
ENDBRANCH   1   5
BRANCH   1  13
HETATM   13  N           1     -28.148  -7.589 -18.954  0.00  0.00    -0.344 N 
HETATM   14  H           1     -27.463  -7.888 -18.272  0.00  0.00     0.163 HD
HETATM   15  C           1     -29.479  -7.590 -18.633  0.00  0.00     0.249 C 
HETATM   16  O           1     -30.150  -8.573 -18.838  0.00  0.00    -0.271 OA
BRANCH  15  17
HETATM   17  C           1     -30.109  -6.361 -18.022  0.00  0.00     0.274 C 
BRANCH  17  18
HETATM   18  C           1     -29.153  -5.753 -17.004  0.00  0.00     0.045 C 
BRANCH  18  19
HETATM   19 Se           1     -28.915  -3.857 -17.388  0.00  0.00     0.000 Se
HETATM   20  H           1     -27.783  -4.067 -18.306  0.00  0.00     0.000 HD
ENDBRANCH  18  19
ENDBRANCH  17  18
BRANCH  17  21
HETATM   21  N           1     -31.389  -6.743 -17.340  0.00  0.00    -0.067 N 
HETATM   22  H           1     -31.918  -7.413 -17.942  0.00  0.00     0.275 HD
HETATM   23  H           1     -31.967  -5.886 -17.179  0.00  0.00     0.275 HD
HETATM   24  H           1     -31.174  -7.194 -16.422  0.00  0.00     0.275 HD
ENDBRANCH  17  21
ENDBRANCH  15  17
ENDBRANCH   1  13
TORSDOF 8
ENDMDL
MODEL 7
REMARK VINA RESULT:      -4.8     12.090     13.897
REMARK  8 active torsions:
REMARK  status: ('A' for Active; 'I' for Inactive)
REMARK    1  A    between atoms: C_2  and  C_4 
REMARK    2  A    between atoms: C_4  and  C_23 
REMARK    3  A    between atoms: C_4  and  N_16 
REMARK       I    between atoms: N_16  and  C_17 
REMARK    4  A    between atoms: C_17  and  C_18 
REMARK    5  A    between atoms: C_18  and  C_19 
REMARK    6  A    between atoms: C_18  and  N_21 
REMARK    7  A    between atoms: C_19  and  Se_20 
REMARK    8  A    between atoms: C_23  and  C_24 
ROOT
HETATM    1  C           1     -27.849  -7.257 -18.930  0.00  0.00     0.191 C 
ENDROOT
BRANCH   1   2
HETATM    2  C           1     -29.338  -7.476 -18.815  0.00  0.00     0.197 C 
HETATM    3  O           1     -29.848  -8.538 -19.235  0.00  0.00    -0.646 OA
HETATM    4  O           1     -30.062  -6.596 -18.301  0.00  0.00    -0.646 OA
ENDBRANCH   1   2
BRANCH   1   5
HETATM    5  C           1     -27.446  -6.056 -18.084  0.00  0.00     0.094 C 
BRANCH   5   6
HETATM    6  C           1     -26.347  -6.453 -17.148  0.00  0.00     0.028 A 
HETATM    7  C           1     -26.381  -6.283 -15.784  0.00  0.00     0.114 A 
HETATM    8  N           1     -25.188  -6.776 -15.335  0.00  0.00    -0.360 N 
HETATM    9  H           1     -24.866  -6.811 -14.337  0.00  0.00     0.166 HD
HETATM   10  C           1     -24.490  -7.216 -16.423  0.00  0.00     0.180 A 
HETATM   11  N           1     -25.166  -7.033 -17.534  0.00  0.00    -0.354 N 
ATOM     12  HN          1     -24.874  -7.271 -18.482  1.00  0.00     0.166 HD
ENDBRANCH   5   6
ENDBRANCH   1   5
BRANCH   1  13
HETATM   13  N           1     -27.504  -7.008 -20.316  0.00  0.00    -0.344 N 
HETATM   14  H           1     -27.943  -6.248 -20.818  0.00  0.00     0.163 HD
HETATM   15  C           1     -26.585  -7.804 -20.945  0.00  0.00     0.249 C 
HETATM   16  O           1     -26.944  -8.799 -21.529  0.00  0.00    -0.271 OA
BRANCH  15  17
HETATM   17  C           1     -25.120  -7.438 -20.910  0.00  0.00     0.274 C 
BRANCH  17  18
HETATM   18  C           1     -24.632  -7.160 -22.326  0.00  0.00     0.045 C 
BRANCH  18  19
HETATM   19 Se           1     -23.147  -8.351 -22.748  0.00  0.00     0.000 Se
HETATM   20  H           1     -23.365  -9.223 -21.582  0.00  0.00     0.000 HD
ENDBRANCH  18  19
ENDBRANCH  17  18
BRANCH  17  21
HETATM   21  N           1     -24.336  -8.575 -20.326  0.00  0.00    -0.067 N 
HETATM   22  H           1     -24.168  -9.297 -21.062  0.00  0.00     0.275 HD
HETATM   23  H           1     -24.875  -9.001 -19.537  0.00  0.00     0.275 HD
HETATM   24  H           1     -23.420  -8.221 -19.969  0.00  0.00     0.275 HD
ENDBRANCH  17  21
ENDBRANCH  15  17
ENDBRANCH   1  13
TORSDOF 8
ENDMDL
MODEL 8
REMARK VINA RESULT:      -4.8      3.184      5.137
REMARK  8 active torsions:
REMARK  status: ('A' for Active; 'I' for Inactive)
REMARK    1  A    between atoms: C_2  and  C_4 
REMARK    2  A    between atoms: C_4  and  C_23 
REMARK    3  A    between atoms: C_4  and  N_16 
REMARK       I    between atoms: N_16  and  C_17 
REMARK    4  A    between atoms: C_17  and  C_18 
REMARK    5  A    between atoms: C_18  and  C_19 
REMARK    6  A    between atoms: C_18  and  N_21 
REMARK    7  A    between atoms: C_19  and  Se_20 
REMARK    8  A    between atoms: C_23  and  C_24 
ROOT
HETATM    1  C           1     -35.009  -1.544 -12.117  0.00  0.00     0.191 C 
ENDROOT
BRANCH   1   2
HETATM    2  C           1     -35.670  -0.395 -12.838  0.00  0.00     0.197 C 
HETATM    3  O           1     -36.513  -0.622 -13.734  0.00  0.00    -0.646 OA
HETATM    4  O           1     -35.375   0.782 -12.541  0.00  0.00    -0.646 OA
ENDBRANCH   1   2
BRANCH   1   5
HETATM    5  C           1     -34.700  -2.657 -13.110  0.00  0.00     0.094 C 
BRANCH   5   6
HETATM    6  C           1     -34.270  -3.883 -12.366  0.00  0.00     0.028 A 
HETATM    7  C           1     -34.818  -5.132 -12.535  0.00  0.00     0.114 A 
HETATM    8  N           1     -34.134  -5.939 -11.669  0.00  0.00    -0.360 N 
HETATM    9  H           1     -34.286  -6.968 -11.526  0.00  0.00     0.166 HD
HETATM   10  C           1     -33.216  -5.162 -11.021  0.00  0.00     0.180 A 
HETATM   11  N           1     -33.276  -3.913 -11.422  0.00  0.00    -0.354 N 
ATOM     12  HN          1     -32.704  -3.132 -11.100  1.00  0.00     0.166 HD
ENDBRANCH   5   6
ENDBRANCH   1   5
BRANCH   1  13
HETATM   13  N           1     -35.901  -2.047 -11.090  0.00  0.00    -0.344 N 
HETATM   14  H           1     -35.839  -3.012 -10.793  0.00  0.00     0.163 HD
HETATM   15  C           1     -36.829  -1.215 -10.524  0.00  0.00     0.249 C 
HETATM   16  O           1     -37.932  -1.118 -11.008  0.00  0.00    -0.271 OA
BRANCH  15  17
HETATM   17  C           1     -36.475  -0.417  -9.291  0.00  0.00     0.274 C 
BRANCH  17  18
HETATM   18  C           1     -37.633  -0.469  -8.302  0.00  0.00     0.045 C 
BRANCH  18  19
HETATM   19 Se           1     -38.074   1.339  -7.722  0.00  0.00     0.000 Se
HETATM   20  H           1     -37.604   1.975  -8.963  0.00  0.00     0.000 HD
ENDBRANCH  18  19
ENDBRANCH  17  18
BRANCH  17  21
HETATM   21  N           1     -36.212   1.008  -9.678  0.00  0.00    -0.067 N 
HETATM   22  H           1     -35.685   1.033 -10.580  0.00  0.00     0.275 HD
HETATM   23  H           1     -35.647   1.473  -8.931  0.00  0.00     0.275 HD
HETATM   24  H           1     -37.120   1.512  -9.791  0.00  0.00     0.275 HD
ENDBRANCH  17  21
ENDBRANCH  15  17
ENDBRANCH   1  13
TORSDOF 8
ENDMDL
MODEL 9
REMARK VINA RESULT:      -4.8      9.881     11.436
REMARK  8 active torsions:
REMARK  status: ('A' for Active; 'I' for Inactive)
REMARK    1  A    between atoms: C_2  and  C_4 
REMARK    2  A    between atoms: C_4  and  C_23 
REMARK    3  A    between atoms: C_4  and  N_16 
REMARK       I    between atoms: N_16  and  C_17 
REMARK    4  A    between atoms: C_17  and  C_18 
REMARK    5  A    between atoms: C_18  and  C_19 
REMARK    6  A    between atoms: C_18  and  N_21 
REMARK    7  A    between atoms: C_19  and  Se_20 
REMARK    8  A    between atoms: C_23  and  C_24 
ROOT
HETATM    1  C           1     -29.084  -6.987 -17.702  0.00  0.00     0.191 C 
ENDROOT
BRANCH   1   2
HETATM    2  C           1     -30.319  -7.640 -18.272  0.00  0.00     0.197 C 
HETATM    3  O           1     -30.210  -8.542 -19.132  0.00  0.00    -0.646 OA
HETATM    4  O           1     -31.452  -7.279 -17.886  0.00  0.00    -0.646 OA
ENDBRANCH   1   2
BRANCH   1   5
HETATM    5  C           1     -29.470  -6.123 -16.509  0.00  0.00     0.094 C 
BRANCH   5   6
HETATM    6  C           1     -29.475  -4.683 -16.918  0.00  0.00     0.028 A 
HETATM    7  C           1     -30.552  -4.029 -17.468  0.00  0.00     0.114 A 
HETATM    8  N           1     -30.118  -2.750 -17.683  0.00  0.00    -0.360 N 
HETATM    9  H           1     -30.679  -1.965 -18.096  0.00  0.00     0.166 HD
HETATM   10  C           1     -28.820  -2.681 -17.265  0.00  0.00     0.180 A 
HETATM   11  N           1     -28.403  -3.835 -16.797  0.00  0.00    -0.354 N 
ATOM     12  HN          1     -27.480  -4.054 -16.424  1.00  0.00     0.166 HD
ENDBRANCH   5   6
ENDBRANCH   1   5
BRANCH   1  13
HETATM   13  N           1     -28.464  -6.159 -18.718  0.00  0.00    -0.344 N 
HETATM   14  H           1     -28.863  -5.259 -18.951  0.00  0.00     0.163 HD
HETATM   15  C           1     -27.338  -6.595 -19.363  0.00  0.00     0.249 C 
HETATM   16  O           1     -27.434  -7.241 -20.380  0.00  0.00    -0.271 OA
BRANCH  15  17
HETATM   17  C           1     -25.973  -6.270 -18.804  0.00  0.00     0.274 C 
BRANCH  17  18
HETATM   18  C           1     -24.901  -6.910 -19.676  0.00  0.00     0.045 C 
BRANCH  18  19
HETATM   19 Se           1     -23.311  -7.254 -18.602  0.00  0.00     0.000 Se
HETATM   20  H           1     -22.622  -6.022 -19.020  0.00  0.00     0.000 HD
ENDBRANCH  18  19
ENDBRANCH  17  18
BRANCH  17  21
HETATM   21  N           1     -25.866  -6.804 -17.406  0.00  0.00    -0.067 N 
HETATM   22  H           1     -26.817  -7.058 -17.057  0.00  0.00     0.275 HD
HETATM   23  H           1     -25.451  -6.072 -16.785  0.00  0.00     0.275 HD
HETATM   24  H           1     -25.255  -7.651 -17.402  0.00  0.00     0.275 HD
ENDBRANCH  17  21
ENDBRANCH  15  17
ENDBRANCH   1  13
TORSDOF 8
ENDMDL
