MODEL 1
REMARK VINA RESULT:      -7.1      0.000      0.000
REMARK  15 active torsions:
REMARK  status: ('A' for Active; 'I' for Inactive)
REMARK    1  A    between atoms: C_1  and  C_2 
REMARK    2  A    between atoms: C_1  and  C_20 
REMARK    3  A    between atoms: C_1  and  N_32 
REMARK       I    between atoms: C_2  and  N_3 
REMARK    4  A    between atoms: N_3  and  C_12 
REMARK    5  A    between atoms: C_6  and  C_7 
REMARK    6  A    between atoms: C_7  and  C_8 
REMARK    7  A    between atoms: C_7  and  N_17 
REMARK    8  A    between atoms: C_8  and  O_29 
REMARK       I    between atoms: C_9  and  N_10 
REMARK       I    between atoms: C_9  and  N_30 
REMARK    9  A    between atoms: N_10  and  C_18 
REMARK   10  A    between atoms: C_11  and  C_12 
REMARK   11  A    between atoms: C_12  and  C_13 
REMARK   12  A    between atoms: C_13  and  C_14 
REMARK   13  A    between atoms: C_14  and  N_17 
REMARK   14  A    between atoms: C_18  and  C_19 
REMARK   15  A    between atoms: C_19  and  C_20 
ROOT
HETATM    1  C           1     -25.813  -6.675 -18.668  0.00  0.00     0.249 C 
HETATM    2  N           1     -26.944  -6.414 -17.944  0.00  0.00    -0.345 N 
HETATM    3  O           1     -24.725  -6.466 -18.185  0.00  0.00    -0.271 OA
HETATM    4  H           1     -27.856  -6.589 -18.347  0.00  0.00     0.163 HD
ENDROOT
BRANCH   1   5
HETATM    5  C           1     -25.924  -7.223 -20.070  0.00  0.00     0.274 C 
BRANCH   5   6
HETATM    6  C           1     -25.461  -6.168 -21.066  0.00  0.00     0.044 C 
BRANCH   6   7
HETATM    7  C           1     -24.477  -6.793 -22.047  0.00  0.00     0.023 C 
BRANCH   7   8
HETATM    8  C           1     -24.109  -8.194 -21.574  0.00  0.00     0.138 C 
BRANCH   8   9
HETATM    9  N           1     -23.115  -8.774 -22.488  0.00  0.00    -0.227 N 
HETATM   10  C           1     -21.943  -9.020 -22.076  0.00  0.00     0.665 C 
HETATM   11  N           1     -21.086  -9.520 -22.862  0.00  0.00    -0.235 N 
HETATM   12  N           1     -21.620  -8.759 -20.843  0.00  0.00    -0.235 N 
HETATM   13  H           1     -21.348  -9.731 -23.857  0.00  0.00     0.174 HD
HETATM   14  H           1     -20.115  -9.724 -22.520  0.00  0.00     0.174 HD
HETATM   15  H           1     -22.328  -8.347 -20.194  0.00  0.00     0.174 HD
HETATM   16  H           1     -20.653  -8.961 -20.503  0.00  0.00     0.174 HD
HETATM   17  H           1     -23.376  -8.986 -23.483  0.00  0.00     0.177 HD
ENDBRANCH   8   9
ENDBRANCH   7   8
ENDBRANCH   6   7
ENDBRANCH   5   6
BRANCH   5  18
HETATM   18  N           1     -27.352  -7.584 -20.353  0.00  0.00    -0.067 N 
HETATM   19  H           1     -27.390  -8.251 -21.157  0.00  0.00     0.275 HD
HETATM   20  H           1     -27.888  -6.720 -20.591  0.00  0.00     0.275 HD
HETATM   21  H           1     -27.772  -8.034 -19.508  0.00  0.00     0.275 HD
ENDBRANCH   5  18
ENDBRANCH   1   5
BRANCH   2  22
HETATM   22  C           1     -26.838  -5.887 -16.597  0.00  0.00     0.187 C 
BRANCH  22  23
HETATM   23  C           1     -26.723  -7.029 -15.618  0.00  0.00     0.196 C 
HETATM   24  O           1     -25.596  -7.445 -15.271  0.00  0.00    -0.646 OA
HETATM   25  O           1     -27.754  -7.560 -15.153  0.00  0.00    -0.646 OA
ENDBRANCH  22  23
BRANCH  22  26
HETATM   26  C           1     -28.078  -5.064 -16.274  0.00  0.00     0.066 C 
BRANCH  26  27
HETATM   27  C           1     -28.357  -4.096 -17.416  0.00  0.00     0.273 C 
BRANCH  27  28
HETATM   28  N           1     -29.586  -4.462 -18.068  0.00  0.00     0.100 N 
HETATM   29  H           1     -29.379  -5.054 -18.873  0.00  0.00     0.317 HD
BRANCH  28  30
HETATM   30  C           1     -30.379  -5.199 -17.122  0.00  0.00     0.343 C 
BRANCH  30  31
HETATM   31  C           1     -30.674  -6.572 -17.675  0.00  0.00     0.209 C 
HETATM   32  O           1     -29.815  -7.166 -18.362  0.00  0.00    -0.646 OA
HETATM   33  O           1     -31.777  -7.114 -17.446  0.00  0.00    -0.646 OA
ENDBRANCH  30  31
BRANCH  30  34
HETATM   34  C           1     -31.687  -4.460 -16.873  0.00  0.00     0.211 C 
BRANCH  34  35
HETATM   35  O           1     -31.659  -3.224 -17.536  0.00  0.00    -0.398 OA
HETATM   36  H           1     -32.130  -2.613 -16.996  0.00  0.00     0.209 HD
ENDBRANCH  34  35
ENDBRANCH  30  34
ENDBRANCH  28  30
ENDBRANCH  27  28
ENDBRANCH  26  27
ENDBRANCH  22  26
ENDBRANCH   2  22
TORSDOF 15
ENDMDL
MODEL 2
REMARK VINA RESULT:      -7.0     11.863     14.405
REMARK  15 active torsions:
REMARK  status: ('A' for Active; 'I' for Inactive)
REMARK    1  A    between atoms: C_1  and  C_2 
REMARK    2  A    between atoms: C_1  and  C_20 
REMARK    3  A    between atoms: C_1  and  N_32 
REMARK       I    between atoms: C_2  and  N_3 
REMARK    4  A    between atoms: N_3  and  C_12 
REMARK    5  A    between atoms: C_6  and  C_7 
REMARK    6  A    between atoms: C_7  and  C_8 
REMARK    7  A    between atoms: C_7  and  N_17 
REMARK    8  A    between atoms: C_8  and  O_29 
REMARK       I    between atoms: C_9  and  N_10 
REMARK       I    between atoms: C_9  and  N_30 
REMARK    9  A    between atoms: N_10  and  C_18 
REMARK   10  A    between atoms: C_11  and  C_12 
REMARK   11  A    between atoms: C_12  and  C_13 
REMARK   12  A    between atoms: C_13  and  C_14 
REMARK   13  A    between atoms: C_14  and  N_17 
REMARK   14  A    between atoms: C_18  and  C_19 
REMARK   15  A    between atoms: C_19  and  C_20 
ROOT
HETATM    1  C           1     -21.479  -6.536  -4.114  0.00  0.00     0.249 C 
HETATM    2  N           1     -20.923  -5.510  -4.828  0.00  0.00    -0.345 N 
HETATM    3  O           1     -22.106  -7.398  -4.684  0.00  0.00    -0.271 OA
HETATM    4  H           1     -20.397  -4.788  -4.352  0.00  0.00     0.163 HD
ENDROOT
BRANCH   1   5
HETATM    5  C           1     -21.309  -6.592  -2.616  0.00  0.00     0.274 C 
BRANCH   5   6
HETATM    6  C           1     -21.422  -8.036  -2.145  0.00  0.00     0.044 C 
BRANCH   6   7
HETATM    7  C           1     -20.035  -8.663  -2.092  0.00  0.00     0.023 C 
BRANCH   7   8
HETATM    8  C           1     -19.977  -9.851  -3.044  0.00  0.00     0.138 C 
BRANCH   8   9
HETATM    9  N           1     -18.871  -9.665  -3.994  0.00  0.00    -0.227 N 
HETATM   10  C           1     -19.111  -9.549  -5.232  0.00  0.00     0.665 C 
HETATM   11  N           1     -18.160  -9.390  -6.050  0.00  0.00    -0.235 N 
HETATM   12  N           1     -20.338  -9.595  -5.662  0.00  0.00    -0.235 N 
HETATM   13  H           1     -17.169  -9.353  -5.702  0.00  0.00     0.174 HD
HETATM   14  H           1     -18.359  -9.294  -7.076  0.00  0.00     0.174 HD
HETATM   15  H           1     -21.124  -9.726  -4.986  0.00  0.00     0.174 HD
HETATM   16  H           1     -20.537  -9.500  -6.683  0.00  0.00     0.174 HD
HETATM   17  H           1     -17.880  -9.628  -3.646  0.00  0.00     0.177 HD
ENDBRANCH   8   9
ENDBRANCH   7   8
ENDBRANCH   6   7
ENDBRANCH   5   6
BRANCH   5  18
HETATM   18  N           1     -22.378  -5.768  -1.961  0.00  0.00    -0.067 N 
HETATM   19  H           1     -22.197  -4.754  -2.143  0.00  0.00     0.275 HD
HETATM   20  H           1     -22.371  -5.944  -0.932  0.00  0.00     0.275 HD
HETATM   21  H           1     -23.310  -6.031  -2.354  0.00  0.00     0.275 HD
ENDBRANCH   5  18
ENDBRANCH   1   5
BRANCH   2  22
HETATM   22  C           1     -21.085  -5.456  -6.268  0.00  0.00     0.187 C 
BRANCH  22  23
HETATM   23  C           1     -19.752  -5.691  -6.934  0.00  0.00     0.196 C 
HETATM   24  O           1     -19.057  -4.719  -7.301  0.00  0.00    -0.646 OA
HETATM   25  O           1     -19.342  -6.857  -7.118  0.00  0.00    -0.646 OA
ENDBRANCH  22  23
BRANCH  22  26
HETATM   26  C           1     -21.620  -4.087  -6.668  0.00  0.00     0.066 C 
BRANCH  26  27
HETATM   27  C           1     -22.840  -4.258  -7.562  0.00  0.00     0.273 C 
BRANCH  27  28
HETATM   28  N           1     -22.530  -3.803  -8.891  0.00  0.00     0.100 N 
HETATM   29  H           1     -21.618  -4.165  -9.170  0.00  0.00     0.317 HD
BRANCH  28  30
HETATM   30  C           1     -23.540  -4.317  -9.776  0.00  0.00     0.343 C 
BRANCH  30  31
HETATM   31  C           1     -23.030  -4.281 -11.196  0.00  0.00     0.209 C 
HETATM   32  O           1     -22.104  -3.500 -11.507  0.00  0.00    -0.646 OA
HETATM   33  O           1     -23.532  -5.032 -12.059  0.00  0.00    -0.646 OA
ENDBRANCH  30  31
BRANCH  30  34
HETATM   34  C           1     -24.794  -3.459  -9.665  0.00  0.00     0.211 C 
BRANCH  34  35
HETATM   35  O           1     -25.224  -3.091 -10.947  0.00  0.00    -0.398 OA
HETATM   36  H           1     -26.057  -3.509 -11.087  0.00  0.00     0.209 HD
ENDBRANCH  34  35
ENDBRANCH  30  34
ENDBRANCH  28  30
ENDBRANCH  27  28
ENDBRANCH  26  27
ENDBRANCH  22  26
ENDBRANCH   2  22
TORSDOF 15
ENDMDL
MODEL 3
REMARK VINA RESULT:      -6.7     12.508     15.427
REMARK  15 active torsions:
REMARK  status: ('A' for Active; 'I' for Inactive)
REMARK    1  A    between atoms: C_1  and  C_2 
REMARK    2  A    between atoms: C_1  and  C_20 
REMARK    3  A    between atoms: C_1  and  N_32 
REMARK       I    between atoms: C_2  and  N_3 
REMARK    4  A    between atoms: N_3  and  C_12 
REMARK    5  A    between atoms: C_6  and  C_7 
REMARK    6  A    between atoms: C_7  and  C_8 
REMARK    7  A    between atoms: C_7  and  N_17 
REMARK    8  A    between atoms: C_8  and  O_29 
REMARK       I    between atoms: C_9  and  N_10 
REMARK       I    between atoms: C_9  and  N_30 
REMARK    9  A    between atoms: N_10  and  C_18 
REMARK   10  A    between atoms: C_11  and  C_12 
REMARK   11  A    between atoms: C_12  and  C_13 
REMARK   12  A    between atoms: C_13  and  C_14 
REMARK   13  A    between atoms: C_14  and  N_17 
REMARK   14  A    between atoms: C_18  and  C_19 
REMARK   15  A    between atoms: C_19  and  C_20 
ROOT
HETATM    1  C           1     -21.578  -6.519  -4.257  0.00  0.00     0.249 C 
HETATM    2  N           1     -21.010  -5.528  -5.012  0.00  0.00    -0.345 N 
HETATM    3  O           1     -22.289  -7.344  -4.781  0.00  0.00    -0.271 OA
HETATM    4  H           1     -20.414  -4.837  -4.574  0.00  0.00     0.163 HD
ENDROOT
BRANCH   1   5
HETATM    5  C           1     -21.317  -6.580  -2.772  0.00  0.00     0.274 C 
BRANCH   5   6
HETATM    6  C           1     -21.366  -8.030  -2.308  0.00  0.00     0.044 C 
BRANCH   6   7
HETATM    7  C           1     -20.726  -8.144  -0.930  0.00  0.00     0.023 C 
BRANCH   7   8
HETATM    8  C           1     -21.658  -8.911   0.001  0.00  0.00     0.138 C 
BRANCH   8   9
HETATM    9  N           1     -22.747  -9.511  -0.781  0.00  0.00    -0.227 N 
HETATM   10  C           1     -23.059 -10.726  -0.604  0.00  0.00     0.665 C 
HETATM   11  N           1     -23.997 -11.244  -1.277  0.00  0.00    -0.235 N 
HETATM   12  N           1     -22.414 -11.441   0.271  0.00  0.00    -0.235 N 
HETATM   13  H           1     -24.517 -10.666  -1.983  0.00  0.00     0.174 HD
HETATM   14  H           1     -24.255 -12.251  -1.130  0.00  0.00     0.174 HD
HETATM   15  H           1     -21.640 -11.013   0.827  0.00  0.00     0.174 HD
HETATM   16  H           1     -22.671 -12.443   0.417  0.00  0.00     0.174 HD
HETATM   17  H           1     -23.268  -8.934  -1.487  0.00  0.00     0.177 HD
ENDBRANCH   8   9
ENDBRANCH   7   8
ENDBRANCH   6   7
ENDBRANCH   5   6
BRANCH   5  18
HETATM   18  N           1     -22.364  -5.787  -2.048  0.00  0.00    -0.067 N 
HETATM   19  H           1     -22.988  -5.318  -2.743  0.00  0.00     0.275 HD
HETATM   20  H           1     -21.901  -5.066  -1.451  0.00  0.00     0.275 HD
HETATM   21  H           1     -22.930  -6.427  -1.446  0.00  0.00     0.275 HD
ENDBRANCH   5  18
ENDBRANCH   1   5
BRANCH   2  22
HETATM   22  C           1     -21.261  -5.469  -6.438  0.00  0.00     0.187 C 
BRANCH  22  23
HETATM   23  C           1     -20.012  -5.866  -7.185  0.00  0.00     0.196 C 
HETATM   24  O           1     -19.571  -5.137  -8.100  0.00  0.00    -0.646 OA
HETATM   25  O           1     -19.417  -6.925  -6.890  0.00  0.00    -0.646 OA
ENDBRANCH  22  23
BRANCH  22  26
HETATM   26  C           1     -21.655  -4.049  -6.826  0.00  0.00     0.066 C 
BRANCH  26  27
HETATM   27  C           1     -22.847  -4.093  -7.773  0.00  0.00     0.273 C 
BRANCH  27  28
HETATM   28  N           1     -22.381  -4.056  -9.133  0.00  0.00     0.100 N 
HETATM   29  H           1     -21.562  -4.657  -9.228  0.00  0.00     0.317 HD
BRANCH  28  30
HETATM   30  C           1     -23.439  -4.552  -9.972  0.00  0.00     0.343 C 
BRANCH  30  31
HETATM   31  C           1     -23.027  -4.441 -11.419  0.00  0.00     0.209 C 
HETATM   32  O           1     -23.639  -5.090 -12.294  0.00  0.00    -0.646 OA
HETATM   33  O           1     -22.074  -3.699 -11.742  0.00  0.00    -0.646 OA
ENDBRANCH  30  31
BRANCH  30  34
HETATM   34  C           1     -24.698  -3.728  -9.736  0.00  0.00     0.211 C 
BRANCH  34  35
HETATM   35  O           1     -25.091  -3.121 -10.938  0.00  0.00    -0.398 OA
HETATM   36  H           1     -25.488  -2.297 -10.711  0.00  0.00     0.209 HD
ENDBRANCH  34  35
ENDBRANCH  30  34
ENDBRANCH  28  30
ENDBRANCH  27  28
ENDBRANCH  26  27
ENDBRANCH  22  26
ENDBRANCH   2  22
TORSDOF 15
ENDMDL
MODEL 4
REMARK VINA RESULT:      -6.6      7.999     11.769
REMARK  15 active torsions:
REMARK  status: ('A' for Active; 'I' for Inactive)
REMARK    1  A    between atoms: C_1  and  C_2 
REMARK    2  A    between atoms: C_1  and  C_20 
REMARK    3  A    between atoms: C_1  and  N_32 
REMARK       I    between atoms: C_2  and  N_3 
REMARK    4  A    between atoms: N_3  and  C_12 
REMARK    5  A    between atoms: C_6  and  C_7 
REMARK    6  A    between atoms: C_7  and  C_8 
REMARK    7  A    between atoms: C_7  and  N_17 
REMARK    8  A    between atoms: C_8  and  O_29 
REMARK       I    between atoms: C_9  and  N_10 
REMARK       I    between atoms: C_9  and  N_30 
REMARK    9  A    between atoms: N_10  and  C_18 
REMARK   10  A    between atoms: C_11  and  C_12 
REMARK   11  A    between atoms: C_12  and  C_13 
REMARK   12  A    between atoms: C_13  and  C_14 
REMARK   13  A    between atoms: C_14  and  N_17 
REMARK   14  A    between atoms: C_18  and  C_19 
REMARK   15  A    between atoms: C_19  and  C_20 
ROOT
HETATM    1  C           1     -34.799  -0.644 -12.663  0.00  0.00     0.249 C 
HETATM    2  N           1     -35.264  -1.144 -13.849  0.00  0.00    -0.345 N 
HETATM    3  O           1     -34.754   0.550 -12.487  0.00  0.00    -0.271 OA
HETATM    4  H           1     -35.302  -2.145 -13.997  0.00  0.00     0.163 HD
ENDROOT
BRANCH   1   5
HETATM    5  C           1     -34.341  -1.585 -11.575  0.00  0.00     0.274 C 
BRANCH   5   6
HETATM    6  C           1     -34.289  -3.006 -12.122  0.00  0.00     0.044 C 
BRANCH   6   7
HETATM    7  C           1     -33.830  -3.957 -11.023  0.00  0.00     0.023 C 
BRANCH   7   8
HETATM    8  C           1     -34.734  -5.182 -11.001  0.00  0.00     0.138 C 
BRANCH   8   9
HETATM    9  N           1     -33.914  -6.398 -11.087  0.00  0.00    -0.227 N 
HETATM   10  C           1     -34.178  -7.394 -10.351  0.00  0.00     0.665 C 
HETATM   11  N           1     -33.472  -8.442 -10.424  0.00  0.00    -0.235 N 
HETATM   12  N           1     -35.176  -7.339  -9.517  0.00  0.00    -0.235 N 
HETATM   13  H           1     -32.667  -8.485 -11.096  0.00  0.00     0.174 HD
HETATM   14  H           1     -33.691  -9.267  -9.813  0.00  0.00     0.174 HD
HETATM   15  H           1     -35.759  -6.474  -9.457  0.00  0.00     0.174 HD
HETATM   16  H           1     -35.394  -8.160  -8.909  0.00  0.00     0.174 HD
HETATM   17  H           1     -33.108  -6.443 -11.760  0.00  0.00     0.177 HD
ENDBRANCH   8   9
ENDBRANCH   7   8
ENDBRANCH   6   7
ENDBRANCH   5   6
BRANCH   5  18
HETATM   18  N           1     -35.303  -1.526 -10.426  0.00  0.00    -0.067 N 
HETATM   19  H           1     -34.908  -2.053  -9.614  0.00  0.00     0.275 HD
HETATM   20  H           1     -36.211  -1.954 -10.712  0.00  0.00     0.275 HD
HETATM   21  H           1     -35.458  -0.529 -10.153  0.00  0.00     0.275 HD
ENDBRANCH   5  18
ENDBRANCH   1   5
BRANCH   2  22
HETATM   22  C           1     -35.703  -0.240 -14.894  0.00  0.00     0.187 C 
BRANCH  22  23
HETATM   23  C           1     -37.208  -0.137 -14.869  0.00  0.00     0.196 C 
HETATM   24  O           1     -37.804   0.531 -15.742  0.00  0.00    -0.646 OA
HETATM   25  O           1     -37.860  -0.720 -13.976  0.00  0.00    -0.646 OA
ENDBRANCH  22  23
BRANCH  22  26
HETATM   26  C           1     -35.252  -0.773 -16.248  0.00  0.00     0.066 C 
BRANCH  26  27
HETATM   27  C           1     -35.267  -2.295 -16.226  0.00  0.00     0.273 C 
BRANCH  27  28
HETATM   28  N           1     -34.177  -2.797 -17.020  0.00  0.00     0.100 N 
HETATM   29  H           1     -33.534  -2.035 -17.235  0.00  0.00     0.317 HD
BRANCH  28  30
HETATM   30  C           1     -33.493  -3.795 -16.241  0.00  0.00     0.343 C 
BRANCH  30  31
HETATM   31  C           1     -32.210  -4.181 -16.935  0.00  0.00     0.209 C 
HETATM   32  O           1     -31.824  -5.370 -16.918  0.00  0.00    -0.646 OA
HETATM   33  O           1     -31.534  -3.312 -17.527  0.00  0.00    -0.646 OA
ENDBRANCH  30  31
BRANCH  30  34
HETATM   34  C           1     -34.383  -5.022 -16.098  0.00  0.00     0.211 C 
BRANCH  34  35
HETATM   35  O           1     -34.737  -5.189 -14.751  0.00  0.00    -0.398 OA
HETATM   36  H           1     -33.948  -5.407 -14.286  0.00  0.00     0.209 HD
ENDBRANCH  34  35
ENDBRANCH  30  34
ENDBRANCH  28  30
ENDBRANCH  27  28
ENDBRANCH  26  27
ENDBRANCH  22  26
ENDBRANCH   2  22
TORSDOF 15
ENDMDL
MODEL 5
REMARK VINA RESULT:      -6.1     13.462     16.421
REMARK  15 active torsions:
REMARK  status: ('A' for Active; 'I' for Inactive)
REMARK    1  A    between atoms: C_1  and  C_2 
REMARK    2  A    between atoms: C_1  and  C_20 
REMARK    3  A    between atoms: C_1  and  N_32 
REMARK       I    between atoms: C_2  and  N_3 
REMARK    4  A    between atoms: N_3  and  C_12 
REMARK    5  A    between atoms: C_6  and  C_7 
REMARK    6  A    between atoms: C_7  and  C_8 
REMARK    7  A    between atoms: C_7  and  N_17 
REMARK    8  A    between atoms: C_8  and  O_29 
REMARK       I    between atoms: C_9  and  N_10 
REMARK       I    between atoms: C_9  and  N_30 
REMARK    9  A    between atoms: N_10  and  C_18 
REMARK   10  A    between atoms: C_11  and  C_12 
REMARK   11  A    between atoms: C_12  and  C_13 
REMARK   12  A    between atoms: C_13  and  C_14 
REMARK   13  A    between atoms: C_14  and  N_17 
REMARK   14  A    between atoms: C_18  and  C_19 
REMARK   15  A    between atoms: C_19  and  C_20 
ROOT
HETATM    1  C           1     -21.392  -6.638  -4.901  0.00  0.00     0.249 C 
HETATM    2  N           1     -21.042  -6.462  -3.589  0.00  0.00    -0.345 N 
HETATM    3  O           1     -22.116  -7.552  -5.216  0.00  0.00    -0.271 OA
HETATM    4  H           1     -20.435  -5.696  -3.325  0.00  0.00     0.163 HD
ENDROOT
BRANCH   1   5
HETATM    5  C           1     -20.870  -5.691  -5.954  0.00  0.00     0.274 C 
BRANCH   5   6
HETATM    6  C           1     -22.042  -5.017  -6.656  0.00  0.00     0.044 C 
BRANCH   6   7
HETATM    7  C           1     -21.540  -3.811  -7.440  0.00  0.00     0.023 C 
BRANCH   7   8
HETATM    8  C           1     -22.145  -3.826  -8.838  0.00  0.00     0.138 C 
BRANCH   8   9
HETATM    9  N           1     -23.584  -3.538  -8.753  0.00  0.00    -0.227 N 
HETATM   10  C           1     -24.353  -3.867  -9.704  0.00  0.00     0.665 C 
HETATM   11  N           1     -25.592  -3.619  -9.632  0.00  0.00    -0.235 N 
HETATM   12  N           1     -23.869  -4.460 -10.755  0.00  0.00    -0.235 N 
HETATM   13  H           1     -25.982  -3.140  -8.782  0.00  0.00     0.174 HD
HETATM   14  H           1     -26.229  -3.892 -10.420  0.00  0.00     0.174 HD
HETATM   15  H           1     -22.846  -4.666 -10.815  0.00  0.00     0.174 HD
HETATM   16  H           1     -24.503  -4.732 -11.540  0.00  0.00     0.174 HD
HETATM   17  H           1     -23.975  -3.059  -7.904  0.00  0.00     0.177 HD
ENDBRANCH   8   9
ENDBRANCH   7   8
ENDBRANCH   6   7
ENDBRANCH   5   6
BRANCH   5  18
HETATM   18  N           1     -20.059  -6.456  -6.957  0.00  0.00    -0.067 N 
HETATM   19  H           1     -19.677  -7.320  -6.509  0.00  0.00     0.275 HD
HETATM   20  H           1     -19.271  -5.859  -7.294  0.00  0.00     0.275 HD
HETATM   21  H           1     -20.666  -6.721  -7.765  0.00  0.00     0.275 HD
ENDBRANCH   5  18
ENDBRANCH   1   5
BRANCH   2  22
HETATM   22  C           1     -21.543  -7.372  -2.578  0.00  0.00     0.187 C 
BRANCH  22  23
HETATM   23  C           1     -22.277  -6.591  -1.517  0.00  0.00     0.196 C 
HETATM   24  O           1     -22.295  -5.341  -1.560  0.00  0.00    -0.646 OA
HETATM   25  O           1     -22.868  -7.192  -0.594  0.00  0.00    -0.646 OA
ENDBRANCH  22  23
BRANCH  22  26
HETATM   26  C           1     -20.375  -8.118  -1.943  0.00  0.00     0.066 C 
BRANCH  26  27
HETATM   27  C           1     -20.503  -9.607  -2.237  0.00  0.00     0.273 C 
BRANCH  27  28
HETATM   28  N           1     -21.868 -10.018  -2.048  0.00  0.00     0.100 N 
HETATM   29  H           1     -22.110 -10.722  -2.745  0.00  0.00     0.317 HD
BRANCH  28  30
HETATM   30  C           1     -21.975 -10.589  -0.733  0.00  0.00     0.343 C 
BRANCH  30  31
HETATM   31  C           1     -21.495 -12.019  -0.766  0.00  0.00     0.209 C 
HETATM   32  O           1     -20.769 -12.456   0.154  0.00  0.00    -0.646 OA
HETATM   33  O           1     -21.824 -12.767  -1.712  0.00  0.00    -0.646 OA
ENDBRANCH  30  31
BRANCH  30  34
HETATM   34  C           1     -23.429 -10.550  -0.280  0.00  0.00     0.211 C 
BRANCH  34  35
HETATM   35  O           1     -23.790 -11.802   0.239  0.00  0.00    -0.398 OA
HETATM   36  H           1     -23.843 -12.396  -0.490  0.00  0.00     0.209 HD
ENDBRANCH  34  35
ENDBRANCH  30  34
ENDBRANCH  28  30
ENDBRANCH  27  28
ENDBRANCH  26  27
ENDBRANCH  22  26
ENDBRANCH   2  22
TORSDOF 15
ENDMDL
MODEL 6
REMARK VINA RESULT:      -6.1      5.424     11.061
REMARK  15 active torsions:
REMARK  status: ('A' for Active; 'I' for Inactive)
REMARK    1  A    between atoms: C_1  and  C_2 
REMARK    2  A    between atoms: C_1  and  C_20 
REMARK    3  A    between atoms: C_1  and  N_32 
REMARK       I    between atoms: C_2  and  N_3 
REMARK    4  A    between atoms: N_3  and  C_12 
REMARK    5  A    between atoms: C_6  and  C_7 
REMARK    6  A    between atoms: C_7  and  C_8 
REMARK    7  A    between atoms: C_7  and  N_17 
REMARK    8  A    between atoms: C_8  and  O_29 
REMARK       I    between atoms: C_9  and  N_10 
REMARK       I    between atoms: C_9  and  N_30 
REMARK    9  A    between atoms: N_10  and  C_18 
REMARK   10  A    between atoms: C_11  and  C_12 
REMARK   11  A    between atoms: C_12  and  C_13 
REMARK   12  A    between atoms: C_13  and  C_14 
REMARK   13  A    between atoms: C_14  and  N_17 
REMARK   14  A    between atoms: C_18  and  C_19 
REMARK   15  A    between atoms: C_19  and  C_20 
ROOT
HETATM    1  C           1     -33.981  -4.347 -13.319  0.00  0.00     0.249 C 
HETATM    2  N           1     -34.233  -4.580 -14.644  0.00  0.00    -0.345 N 
HETATM    3  O           1     -33.021  -3.690 -12.993  0.00  0.00    -0.271 OA
HETATM    4  H           1     -35.038  -5.131 -14.917  0.00  0.00     0.163 HD
ENDROOT
BRANCH   1   5
HETATM    5  C           1     -34.902  -4.913 -12.265  0.00  0.00     0.274 C 
BRANCH   5   6
HETATM    6  C           1     -34.747  -4.116 -10.976  0.00  0.00     0.044 C 
BRANCH   6   7
HETATM    7  C           1     -35.908  -3.139 -10.840  0.00  0.00     0.023 C 
BRANCH   7   8
HETATM    8  C           1     -35.370  -1.714 -10.802  0.00  0.00     0.138 C 
BRANCH   8   9
HETATM    9  N           1     -34.775  -1.379 -12.102  0.00  0.00    -0.227 N 
HETATM   10  C           1     -35.431  -0.694 -12.942  0.00  0.00     0.665 C 
HETATM   11  N           1     -34.919  -0.406 -14.063  0.00  0.00    -0.235 N 
HETATM   12  N           1     -36.632  -0.288 -12.651  0.00  0.00    -0.235 N 
HETATM   13  H           1     -33.949  -0.734 -14.296  0.00  0.00     0.174 HD
HETATM   14  H           1     -35.463   0.162 -14.758  0.00  0.00     0.174 HD
HETATM   15  H           1     -37.054  -0.526 -11.726  0.00  0.00     0.174 HD
HETATM   16  H           1     -37.174   0.277 -13.344  0.00  0.00     0.174 HD
HETATM   17  H           1     -33.805  -1.707 -12.337  0.00  0.00     0.177 HD
ENDBRANCH   8   9
ENDBRANCH   7   8
ENDBRANCH   6   7
ENDBRANCH   5   6
BRANCH   5  18
HETATM   18  N           1     -34.548  -6.348 -12.011  0.00  0.00    -0.067 N 
HETATM   19  H           1     -35.239  -6.967 -12.493  0.00  0.00     0.275 HD
HETATM   20  H           1     -34.570  -6.534 -10.984  0.00  0.00     0.275 HD
HETATM   21  H           1     -33.590  -6.541 -12.381  0.00  0.00     0.275 HD
ENDBRANCH   5  18
ENDBRANCH   1   5
BRANCH   2  22
HETATM   22  C           1     -33.349  -4.037 -15.656  0.00  0.00     0.187 C 
BRANCH  22  23
HETATM   23  C           1     -34.094  -3.016 -16.479  0.00  0.00     0.196 C 
HETATM   24  O           1     -35.185  -2.561 -16.074  0.00  0.00    -0.646 OA
HETATM   25  O           1     -33.620  -2.624 -17.567  0.00  0.00    -0.646 OA
ENDBRANCH  22  23
BRANCH  22  26
HETATM   26  C           1     -32.862  -5.162 -16.561  0.00  0.00     0.066 C 
BRANCH  26  27
HETATM   27  C           1     -31.391  -4.948 -16.892  0.00  0.00     0.273 C 
BRANCH  27  28
HETATM   28  N           1     -30.578  -5.452 -15.817  0.00  0.00     0.100 N 
HETATM   29  H           1     -31.179  -5.861 -15.101  0.00  0.00     0.317 HD
BRANCH  28  30
HETATM   30  C           1     -29.718  -6.468 -16.360  0.00  0.00     0.343 C 
BRANCH  30  31
HETATM   31  C           1     -28.372  -6.402 -15.679  0.00  0.00     0.209 C 
HETATM   32  O           1     -27.899  -7.422 -15.132  0.00  0.00    -0.646 OA
HETATM   33  O           1     -27.732  -5.329 -15.663  0.00  0.00    -0.646 OA
ENDBRANCH  30  31
BRANCH  30  34
HETATM   34  C           1     -29.542  -6.237 -17.855  0.00  0.00     0.211 C 
BRANCH  34  35
HETATM   35  O           1     -28.333  -6.806 -18.278  0.00  0.00    -0.398 OA
HETATM   36  H           1     -28.521  -7.306 -19.053  0.00  0.00     0.209 HD
ENDBRANCH  34  35
ENDBRANCH  30  34
ENDBRANCH  28  30
ENDBRANCH  27  28
ENDBRANCH  26  27
ENDBRANCH  22  26
ENDBRANCH   2  22
TORSDOF 15
ENDMDL
MODEL 7
REMARK VINA RESULT:      -6.0     12.634     15.907
REMARK  15 active torsions:
REMARK  status: ('A' for Active; 'I' for Inactive)
REMARK    1  A    between atoms: C_1  and  C_2 
REMARK    2  A    between atoms: C_1  and  C_20 
REMARK    3  A    between atoms: C_1  and  N_32 
REMARK       I    between atoms: C_2  and  N_3 
REMARK    4  A    between atoms: N_3  and  C_12 
REMARK    5  A    between atoms: C_6  and  C_7 
REMARK    6  A    between atoms: C_7  and  C_8 
REMARK    7  A    between atoms: C_7  and  N_17 
REMARK    8  A    between atoms: C_8  and  O_29 
REMARK       I    between atoms: C_9  and  N_10 
REMARK       I    between atoms: C_9  and  N_30 
REMARK    9  A    between atoms: N_10  and  C_18 
REMARK   10  A    between atoms: C_11  and  C_12 
REMARK   11  A    between atoms: C_12  and  C_13 
REMARK   12  A    between atoms: C_13  and  C_14 
REMARK   13  A    between atoms: C_14  and  N_17 
REMARK   14  A    between atoms: C_18  and  C_19 
REMARK   15  A    between atoms: C_19  and  C_20 
ROOT
HETATM    1  C           1     -21.796  -6.346  -4.968  0.00  0.00     0.249 C 
HETATM    2  N           1     -21.085  -6.983  -3.988  0.00  0.00    -0.345 N 
HETATM    3  O           1     -23.003  -6.403  -4.973  0.00  0.00    -0.271 OA
HETATM    4  H           1     -20.074  -6.935  -3.983  0.00  0.00     0.163 HD
ENDROOT
BRANCH   1   5
HETATM    5  C           1     -21.073  -5.571  -6.043  0.00  0.00     0.274 C 
BRANCH   5   6
HETATM    6  C           1     -22.078  -4.753  -6.843  0.00  0.00     0.044 C 
BRANCH   6   7
HETATM    7  C           1     -21.335  -3.837  -7.808  0.00  0.00     0.023 C 
BRANCH   7   8
HETATM    8  C           1     -22.043  -3.839  -9.157  0.00  0.00     0.138 C 
BRANCH   8   9
HETATM    9  N           1     -23.456  -3.485  -8.969  0.00  0.00    -0.227 N 
HETATM   10  C           1     -24.324  -3.876  -9.805  0.00  0.00     0.665 C 
HETATM   11  N           1     -25.541  -3.571  -9.645  0.00  0.00    -0.235 N 
HETATM   12  N           1     -23.962  -4.591 -10.830  0.00  0.00    -0.235 N 
HETATM   13  H           1     -25.833  -2.994  -8.818  0.00  0.00     0.174 HD
HETATM   14  H           1     -26.260  -3.896 -10.338  0.00  0.00     0.174 HD
HETATM   15  H           1     -22.956  -4.843 -10.962  0.00  0.00     0.174 HD
HETATM   16  H           1     -24.676  -4.914 -11.520  0.00  0.00     0.174 HD
HETATM   17  H           1     -23.749  -2.907  -8.142  0.00  0.00     0.177 HD
ENDBRANCH   8   9
ENDBRANCH   7   8
ENDBRANCH   6   7
ENDBRANCH   5   6
BRANCH   5  18
HETATM   18  N           1     -20.366  -6.527  -6.957  0.00  0.00    -0.067 N 
HETATM   19  H           1     -20.875  -7.440  -6.969  0.00  0.00     0.275 HD
HETATM   20  H           1     -19.390  -6.677  -6.616  0.00  0.00     0.275 HD
HETATM   21  H           1     -20.340  -6.130  -7.923  0.00  0.00     0.275 HD
ENDBRANCH   5  18
ENDBRANCH   1   5
BRANCH   2  22
HETATM   22  C           1     -21.780  -7.727  -2.956  0.00  0.00     0.187 C 
BRANCH  22  23
HETATM   23  C           1     -21.964  -6.851  -1.742  0.00  0.00     0.196 C 
HETATM   24  O           1     -22.095  -5.615  -1.877  0.00  0.00    -0.646 OA
HETATM   25  O           1     -21.985  -7.360  -0.601  0.00  0.00    -0.646 OA
ENDBRANCH  22  23
BRANCH  22  26
HETATM   26  C           1     -20.961  -8.955  -2.577  0.00  0.00     0.066 C 
BRANCH  26  27
HETATM   27  C           1     -19.505  -8.736  -2.968  0.00  0.00     0.273 C 
BRANCH  27  28
HETATM   28  N           1     -18.898 -10.000  -3.286  0.00  0.00     0.100 N 
HETATM   29  H           1     -19.606 -10.633  -3.658  0.00  0.00     0.317 HD
BRANCH  28  30
HETATM   30  C           1     -17.893  -9.763  -4.287  0.00  0.00     0.343 C 
BRANCH  30  31
HETATM   31  C           1     -18.538  -9.740  -5.651  0.00  0.00     0.209 C 
HETATM   32  O           1     -19.166 -10.740  -6.062  0.00  0.00    -0.646 OA
HETATM   33  O           1     -18.445  -8.722  -6.369  0.00  0.00    -0.646 OA
ENDBRANCH  30  31
BRANCH  30  34
HETATM   34  C           1     -16.853 -10.875  -4.234  0.00  0.00     0.211 C 
BRANCH  34  35
HETATM   35  O           1     -17.498 -12.110  -4.074  0.00  0.00    -0.398 OA
HETATM   36  H           1     -17.003 -12.596  -3.437  0.00  0.00     0.209 HD
ENDBRANCH  34  35
ENDBRANCH  30  34
ENDBRANCH  28  30
ENDBRANCH  27  28
ENDBRANCH  26  27
ENDBRANCH  22  26
ENDBRANCH   2  22
TORSDOF 15
ENDMDL
MODEL 8
REMARK VINA RESULT:      -5.9      2.006      3.801
REMARK  15 active torsions:
REMARK  status: ('A' for Active; 'I' for Inactive)
REMARK    1  A    between atoms: C_1  and  C_2 
REMARK    2  A    between atoms: C_1  and  C_20 
REMARK    3  A    between atoms: C_1  and  N_32 
REMARK       I    between atoms: C_2  and  N_3 
REMARK    4  A    between atoms: N_3  and  C_12 
REMARK    5  A    between atoms: C_6  and  C_7 
REMARK    6  A    between atoms: C_7  and  C_8 
REMARK    7  A    between atoms: C_7  and  N_17 
REMARK    8  A    between atoms: C_8  and  O_29 
REMARK       I    between atoms: C_9  and  N_10 
REMARK       I    between atoms: C_9  and  N_30 
REMARK    9  A    between atoms: N_10  and  C_18 
REMARK   10  A    between atoms: C_11  and  C_12 
REMARK   11  A    between atoms: C_12  and  C_13 
REMARK   12  A    between atoms: C_13  and  C_14 
REMARK   13  A    between atoms: C_14  and  N_17 
REMARK   14  A    between atoms: C_18  and  C_19 
REMARK   15  A    between atoms: C_19  and  C_20 
ROOT
HETATM    1  C           1     -27.604  -6.854 -16.329  0.00  0.00     0.249 C 
HETATM    2  N           1     -28.461  -6.717 -17.387  0.00  0.00    -0.345 N 
HETATM    3  O           1     -27.963  -7.434 -15.332  0.00  0.00    -0.271 OA
HETATM    4  H           1     -28.160  -6.231 -18.223  0.00  0.00     0.163 HD
ENDROOT
BRANCH   1   5
HETATM    5  C           1     -26.210  -6.279 -16.407  0.00  0.00     0.274 C 
BRANCH   5   6
HETATM    6  C           1     -25.601  -6.609 -17.764  0.00  0.00     0.044 C 
BRANCH   6   7
HETATM    7  C           1     -24.212  -7.203 -17.566  0.00  0.00     0.023 C 
BRANCH   7   8
HETATM    8  C           1     -23.428  -7.107 -18.869  0.00  0.00     0.138 C 
BRANCH   8   9
HETATM    9  N           1     -24.345  -7.263 -20.006  0.00  0.00    -0.227 N 
HETATM   10  C           1     -24.068  -8.075 -20.937  0.00  0.00     0.665 C 
HETATM   11  N           1     -24.858  -8.209 -21.917  0.00  0.00    -0.235 N 
HETATM   12  N           1     -22.971  -8.772 -20.885  0.00  0.00    -0.235 N 
HETATM   13  H           1     -25.743  -7.646 -21.958  0.00  0.00     0.174 HD
HETATM   14  H           1     -24.628  -8.883 -22.688  0.00  0.00     0.174 HD
HETATM   15  H           1     -22.320  -8.662 -20.075  0.00  0.00     0.174 HD
HETATM   16  H           1     -22.742  -9.443 -21.653  0.00  0.00     0.174 HD
HETATM   17  H           1     -25.231  -6.700 -20.047  0.00  0.00     0.177 HD
ENDBRANCH   8   9
ENDBRANCH   7   8
ENDBRANCH   6   7
ENDBRANCH   5   6
BRANCH   5  18
HETATM   18  N           1     -25.363  -6.873 -15.321  0.00  0.00    -0.067 N 
HETATM   19  H           1     -25.966  -7.431 -14.675  0.00  0.00     0.275 HD
HETATM   20  H           1     -24.896  -6.107 -14.787  0.00  0.00     0.275 HD
HETATM   21  H           1     -24.639  -7.495 -15.746  0.00  0.00     0.275 HD
ENDBRANCH   5  18
ENDBRANCH   1   5
BRANCH   2  22
HETATM   22  C           1     -29.799  -7.269 -17.312  0.00  0.00     0.187 C 
BRANCH  22  23
HETATM   23  C           1     -30.070  -8.101 -18.540  0.00  0.00     0.196 C 
HETATM   24  O           1     -31.224  -8.158 -19.016  0.00  0.00    -0.646 OA
HETATM   25  O           1     -29.139  -8.734 -19.084  0.00  0.00    -0.646 OA
ENDBRANCH  22  23
BRANCH  22  26
HETATM   26  C           1     -30.812  -6.133 -17.234  0.00  0.00     0.066 C 
BRANCH  26  27
HETATM   27  C           1     -30.450  -5.206 -16.081  0.00  0.00     0.273 C 
BRANCH  27  28
HETATM   28  N           1     -31.644  -4.597 -15.561  0.00  0.00     0.100 N 
HETATM   29  H           1     -31.451  -3.626 -15.315  0.00  0.00     0.317 HD
BRANCH  28  30
HETATM   30  C           1     -32.643  -4.640 -16.594  0.00  0.00     0.343 C 
BRANCH  30  31
HETATM   31  C           1     -32.647  -3.331 -17.344  0.00  0.00     0.209 C 
HETATM   32  O           1     -31.646  -2.991 -18.012  0.00  0.00    -0.646 OA
HETATM   33  O           1     -33.650  -2.587 -17.297  0.00  0.00    -0.646 OA
ENDBRANCH  30  31
BRANCH  30  34
HETATM   34  C           1     -34.012  -4.871 -15.966  0.00  0.00     0.211 C 
BRANCH  34  35
HETATM   35  O           1     -34.131  -4.092 -14.807  0.00  0.00    -0.398 OA
HETATM   36  H           1     -33.414  -3.482 -14.811  0.00  0.00     0.209 HD
ENDBRANCH  34  35
ENDBRANCH  30  34
ENDBRANCH  28  30
ENDBRANCH  27  28
ENDBRANCH  26  27
ENDBRANCH  22  26
ENDBRANCH   2  22
TORSDOF 15
ENDMDL
MODEL 9
REMARK VINA RESULT:      -5.9     13.143     16.157
REMARK  15 active torsions:
REMARK  status: ('A' for Active; 'I' for Inactive)
REMARK    1  A    between atoms: C_1  and  C_2 
REMARK    2  A    between atoms: C_1  and  C_20 
REMARK    3  A    between atoms: C_1  and  N_32 
REMARK       I    between atoms: C_2  and  N_3 
REMARK    4  A    between atoms: N_3  and  C_12 
REMARK    5  A    between atoms: C_6  and  C_7 
REMARK    6  A    between atoms: C_7  and  C_8 
REMARK    7  A    between atoms: C_7  and  N_17 
REMARK    8  A    between atoms: C_8  and  O_29 
REMARK       I    between atoms: C_9  and  N_10 
REMARK       I    between atoms: C_9  and  N_30 
REMARK    9  A    between atoms: N_10  and  C_18 
REMARK   10  A    between atoms: C_11  and  C_12 
REMARK   11  A    between atoms: C_12  and  C_13 
REMARK   12  A    between atoms: C_13  and  C_14 
REMARK   13  A    between atoms: C_14  and  N_17 
REMARK   14  A    between atoms: C_18  and  C_19 
REMARK   15  A    between atoms: C_19  and  C_20 
ROOT
HETATM    1  C           1     -20.498  -6.496  -5.269  0.00  0.00     0.249 C 
HETATM    2  N           1     -19.938  -7.739  -5.386  0.00  0.00    -0.345 N 
HETATM    3  O           1     -21.050  -6.177  -4.243  0.00  0.00    -0.271 OA
HETATM    4  H           1     -19.474  -8.007  -6.245  0.00  0.00     0.163 HD
ENDROOT
BRANCH   1   5
HETATM    5  C           1     -20.426  -5.525  -6.421  0.00  0.00     0.274 C 
BRANCH   5   6
HETATM    6  C           1     -21.825  -5.021  -6.749  0.00  0.00     0.044 C 
BRANCH   6   7
HETATM    7  C           1     -21.729  -3.680  -7.465  0.00  0.00     0.023 C 
BRANCH   7   8
HETATM    8  C           1     -22.325  -3.805  -8.861  0.00  0.00     0.138 C 
BRANCH   8   9
HETATM    9  N           1     -23.760  -3.495  -8.811  0.00  0.00    -0.227 N 
HETATM   10  C           1     -24.515  -3.828  -9.772  0.00  0.00     0.665 C 
HETATM   11  N           1     -25.751  -3.562  -9.730  0.00  0.00    -0.235 N 
HETATM   12  N           1     -24.017  -4.445 -10.804  0.00  0.00    -0.235 N 
HETATM   13  H           1     -26.152  -3.064  -8.896  0.00  0.00     0.174 HD
HETATM   14  H           1     -26.376  -3.838 -10.527  0.00  0.00     0.174 HD
HETATM   15  H           1     -22.996  -4.665 -10.839  0.00  0.00     0.174 HD
HETATM   16  H           1     -24.638  -4.720 -11.597  0.00  0.00     0.174 HD
HETATM   17  H           1     -24.162  -2.998  -7.977  0.00  0.00     0.177 HD
ENDBRANCH   8   9
ENDBRANCH   7   8
ENDBRANCH   6   7
ENDBRANCH   5   6
BRANCH   5  18
HETATM   18  N           1     -19.848  -6.214  -7.621  0.00  0.00    -0.067 N 
HETATM   19  H           1     -18.870  -5.882  -7.777  0.00  0.00     0.275 HD
HETATM   20  H           1     -20.430  -5.995  -8.460  0.00  0.00     0.275 HD
HETATM   21  H           1     -19.844  -7.247  -7.460  0.00  0.00     0.275 HD
ENDBRANCH   5  18
ENDBRANCH   1   5
BRANCH   2  22
HETATM   22  C           1     -20.006  -8.673  -4.279  0.00  0.00     0.187 C 
BRANCH  22  23
HETATM   23  C           1     -18.640  -9.261  -4.031  0.00  0.00     0.196 C 
HETATM   24  O           1     -18.010  -9.797  -4.969  0.00  0.00    -0.646 OA
HETATM   25  O           1     -18.137  -9.214  -2.888  0.00  0.00    -0.646 OA
ENDBRANCH  22  23
BRANCH  22  26
HETATM   26  C           1     -20.987  -9.789  -4.617  0.00  0.00     0.066 C 
BRANCH  26  27
HETATM   27  C           1     -21.342 -10.555  -3.349  0.00  0.00     0.273 C 
BRANCH  27  28
HETATM   28  N           1     -22.033  -9.682  -2.438  0.00  0.00     0.100 N 
HETATM   29  H           1     -23.022  -9.929  -2.416  0.00  0.00     0.317 HD
BRANCH  28  30
HETATM   30  C           1     -21.461  -9.872  -1.133  0.00  0.00     0.343 C 
BRANCH  30  31
HETATM   31  C           1     -22.484 -10.508  -0.224  0.00  0.00     0.209 C 
HETATM   32  O           1     -22.172 -11.500   0.471  0.00  0.00    -0.646 OA
HETATM   33  O           1     -23.643 -10.044  -0.167  0.00  0.00    -0.646 OA
ENDBRANCH  30  31
BRANCH  30  34
HETATM   34  C           1     -21.043  -8.523  -0.562  0.00  0.00     0.211 C 
BRANCH  34  35
HETATM   35  O           1     -21.142  -8.556   0.836  0.00  0.00    -0.398 OA
HETATM   36  H           1     -20.912  -7.698   1.148  0.00  0.00     0.209 HD
ENDBRANCH  34  35
ENDBRANCH  30  34
ENDBRANCH  28  30
ENDBRANCH  27  28
ENDBRANCH  26  27
ENDBRANCH  22  26
ENDBRANCH   2  22
TORSDOF 15
ENDMDL
