MODEL 1
REMARK VINA RESULT:      -6.9      0.000      0.000
REMARK  7 active torsions:
REMARK  status: ('A' for Active; 'I' for Inactive)
REMARK    1  A    between atoms: N_1  and  C_11 
REMARK    2  A    between atoms: N_4  and  C_19 
REMARK       I    between atoms: N_4  and  C_5 
REMARK    3  A    between atoms: C_5  and  C_11 
REMARK    4  A    between atoms: C_11  and  C_21 
REMARK    5  A    between atoms: C_14  and  C_21 
REMARK    6  A    between atoms: C_15  and  C_19 
REMARK    7  A    between atoms: C_18  and  C_19 
ROOT
HETATM    1  C           1     -34.526  -2.429 -11.903  0.00  0.00     0.280 C 
ENDROOT
BRANCH   1   2
HETATM    2  N           1     -33.867  -1.518 -10.912  0.00  0.00    -0.066 N 
HETATM    3  H           1     -33.808  -0.552 -11.310  0.00  0.00     0.275 HD
HETATM    4  H           1     -34.431  -1.496 -10.031  0.00  0.00     0.275 HD
HETATM    5  H           1     -32.905  -1.867 -10.702  0.00  0.00     0.275 HD
ENDBRANCH   1   2
BRANCH   1   6
HETATM    6  C           1     -35.374  -1.613 -12.848  0.00  0.00     0.249 C 
HETATM    7  O           1     -36.507  -1.323 -12.546  0.00  0.00    -0.271 OA
HETATM    8  N           1     -34.860  -1.202 -14.049  0.00  0.00    -0.344 N 
HETATM    9  H           1     -33.911  -1.445 -14.302  0.00  0.00     0.163 HD
BRANCH   8  10
HETATM   10  C           1     -35.674  -0.418 -14.957  0.00  0.00     0.189 C 
BRANCH  10  11
HETATM   11  C           1     -35.061   0.965 -15.125  0.00  0.00     0.010 C 
HETATM   12  C           1     -34.618   1.494 -13.768  0.00  0.00     0.012 C 
HETATM   13  C           1     -36.094   1.909 -15.724  0.00  0.00     0.012 C 
ENDBRANCH  10  11
BRANCH  10  14
HETATM   14  C           1     -35.737  -1.107 -16.298  0.00  0.00     0.197 C 
HETATM   15  O           1     -34.787  -1.827 -16.675  0.00  0.00    -0.646 OA
HETATM   16  O           1     -36.737  -0.957 -17.032  0.00  0.00    -0.646 OA
ENDBRANCH  10  14
ENDBRANCH   8  10
ENDBRANCH   1   6
BRANCH   1  17
HETATM   17  C           1     -35.406  -3.430 -11.166  0.00  0.00     0.101 C 
BRANCH  17  18
HETATM   18  C           1     -34.681  -4.733 -11.036  0.00  0.00     0.028 A 
HETATM   19  C           1     -33.430  -4.985 -11.548  0.00  0.00     0.114 A 
HETATM   20  N           1     -33.160  -6.280 -11.201  0.00  0.00    -0.360 N 
HETATM   21  H           1     -32.285  -6.814 -11.428  0.00  0.00     0.166 HD
HETATM   22  C           1     -34.238  -6.752 -10.507  0.00  0.00     0.180 A 
HETATM   23  N           1     -35.174  -5.838 -10.391  0.00  0.00    -0.355 N 
ATOM     24  HN          1     -36.075  -5.931  -9.923  1.00  0.00     0.166 HD
ENDBRANCH  17  18
ENDBRANCH   1  17
TORSDOF 7
ENDMDL
MODEL 2
REMARK VINA RESULT:      -6.7      3.242      5.690
REMARK  7 active torsions:
REMARK  status: ('A' for Active; 'I' for Inactive)
REMARK    1  A    between atoms: N_1  and  C_11 
REMARK    2  A    between atoms: N_4  and  C_19 
REMARK       I    between atoms: N_4  and  C_5 
REMARK    3  A    between atoms: C_5  and  C_11 
REMARK    4  A    between atoms: C_11  and  C_21 
REMARK    5  A    between atoms: C_14  and  C_21 
REMARK    6  A    between atoms: C_15  and  C_19 
REMARK    7  A    between atoms: C_18  and  C_19 
ROOT
HETATM    1  C           1     -36.539  -0.222 -11.836  0.00  0.00     0.280 C 
ENDROOT
BRANCH   1   2
HETATM    2  N           1     -37.696  -0.208 -12.790  0.00  0.00    -0.066 N 
HETATM    3  H           1     -37.542   0.529 -13.515  0.00  0.00     0.275 HD
HETATM    4  H           1     -37.775  -1.141 -13.255  0.00  0.00     0.275 HD
HETATM    5  H           1     -38.577  -0.004 -12.266  0.00  0.00     0.275 HD
ENDBRANCH   1   2
BRANCH   1   6
HETATM    6  C           1     -35.391  -0.984 -12.451  0.00  0.00     0.249 C 
HETATM    7  O           1     -34.805  -0.529 -13.404  0.00  0.00    -0.271 OA
HETATM    8  N           1     -35.014  -2.193 -11.930  0.00  0.00    -0.344 N 
HETATM    9  H           1     -35.506  -2.575 -11.132  0.00  0.00     0.163 HD
BRANCH   8  10
HETATM   10  C           1     -33.911  -2.926 -12.521  0.00  0.00     0.189 C 
BRANCH  10  11
HETATM   11  C           1     -33.096  -3.592 -11.421  0.00  0.00     0.010 C 
HETATM   12  C           1     -32.173  -4.636 -12.034  0.00  0.00     0.012 C 
HETATM   13  C           1     -34.035  -4.265 -10.430  0.00  0.00     0.012 C 
ENDBRANCH  10  11
BRANCH  10  14
HETATM   14  C           1     -34.452  -3.981 -13.455  0.00  0.00     0.197 C 
HETATM   15  O           1     -34.218  -3.910 -14.680  0.00  0.00    -0.646 OA
HETATM   16  O           1     -35.136  -4.925 -13.002  0.00  0.00    -0.646 OA
ENDBRANCH  10  14
ENDBRANCH   8  10
ENDBRANCH   1   6
BRANCH   1  17
HETATM   17  C           1     -36.960  -0.898 -10.537  0.00  0.00     0.101 C 
BRANCH  17  18
HETATM   18  C           1     -36.980   0.112  -9.432  0.00  0.00     0.028 A 
HETATM   19  C           1     -37.788   1.223  -9.403  0.00  0.00     0.114 A 
HETATM   20  N           1     -37.480   1.854  -8.230  0.00  0.00    -0.360 N 
HETATM   21  H           1     -37.907   2.745  -7.874  0.00  0.00     0.166 HD
HETATM   22  C           1     -36.516   1.115  -7.607  0.00  0.00     0.180 A 
HETATM   23  N           1     -36.193   0.054  -8.311  0.00  0.00    -0.355 N 
ATOM     24  HN          1     -35.503  -0.660  -8.074  1.00  0.00     0.166 HD
ENDBRANCH  17  18
ENDBRANCH   1  17
TORSDOF 7
ENDMDL
MODEL 3
REMARK VINA RESULT:      -6.7     12.990     14.682
REMARK  7 active torsions:
REMARK  status: ('A' for Active; 'I' for Inactive)
REMARK    1  A    between atoms: N_1  and  C_11 
REMARK    2  A    between atoms: N_4  and  C_19 
REMARK       I    between atoms: N_4  and  C_5 
REMARK    3  A    between atoms: C_5  and  C_11 
REMARK    4  A    between atoms: C_11  and  C_21 
REMARK    5  A    between atoms: C_14  and  C_21 
REMARK    6  A    between atoms: C_15  and  C_19 
REMARK    7  A    between atoms: C_18  and  C_19 
ROOT
HETATM    1  C           1     -21.170  -5.688  -6.941  0.00  0.00     0.280 C 
ENDROOT
BRANCH   1   2
HETATM    2  N           1     -19.898  -6.189  -7.555  0.00  0.00    -0.066 N 
HETATM    3  H           1     -20.031  -6.308  -8.585  0.00  0.00     0.275 HD
HETATM    4  H           1     -19.132  -5.500  -7.381  0.00  0.00     0.275 HD
HETATM    5  H           1     -19.643  -7.109  -7.128  0.00  0.00     0.275 HD
ENDBRANCH   1   2
BRANCH   1   6
HETATM    6  C           1     -21.688  -4.520  -7.744  0.00  0.00     0.249 C 
HETATM    7  O           1     -21.653  -3.404  -7.281  0.00  0.00    -0.271 OA
HETATM    8  N           1     -22.200  -4.724  -8.997  0.00  0.00    -0.344 N 
HETATM    9  H           1     -22.230  -5.658  -9.385  0.00  0.00     0.163 HD
BRANCH   8  10
HETATM   10  C           1     -22.698  -3.602  -9.769  0.00  0.00     0.189 C 
BRANCH  10  11
HETATM   11  C           1     -21.914  -3.491 -11.070  0.00  0.00     0.010 C 
HETATM   12  C           1     -22.237  -4.683 -11.962  0.00  0.00     0.012 C 
HETATM   13  C           1     -20.423  -3.478 -10.764  0.00  0.00     0.012 C 
ENDBRANCH  10  11
BRANCH  10  14
HETATM   14  C           1     -24.159  -3.816 -10.080  0.00  0.00     0.197 C 
HETATM   15  O           1     -24.814  -2.920 -10.654  0.00  0.00    -0.646 OA
HETATM   16  O           1     -24.715  -4.890  -9.762  0.00  0.00    -0.646 OA
ENDBRANCH  10  14
ENDBRANCH   8  10
ENDBRANCH   1   6
BRANCH   1  17
HETATM   17  C           1     -20.901  -5.240  -5.510  0.00  0.00     0.101 C 
BRANCH  17  18
HETATM   18  C           1     -21.193  -6.369  -4.570  0.00  0.00     0.028 A 
HETATM   19  C           1     -21.381  -6.228  -3.215  0.00  0.00     0.114 A 
HETATM   20  N           1     -21.618  -7.495  -2.758  0.00  0.00    -0.360 N 
HETATM   21  H           1     -21.806  -7.770  -1.762  0.00  0.00     0.166 HD
HETATM   22  C           1     -21.564  -8.336  -3.832  0.00  0.00     0.180 A 
HETATM   23  N           1     -21.308  -7.683  -4.943  0.00  0.00    -0.355 N 
ATOM     24  HN          1     -21.215  -8.071  -5.882  1.00  0.00     0.166 HD
ENDBRANCH  17  18
ENDBRANCH   1  17
TORSDOF 7
ENDMDL
MODEL 4
REMARK VINA RESULT:      -6.4     14.064     16.889
REMARK  7 active torsions:
REMARK  status: ('A' for Active; 'I' for Inactive)
REMARK    1  A    between atoms: N_1  and  C_11 
REMARK    2  A    between atoms: N_4  and  C_19 
REMARK       I    between atoms: N_4  and  C_5 
REMARK    3  A    between atoms: C_5  and  C_11 
REMARK    4  A    between atoms: C_11  and  C_21 
REMARK    5  A    between atoms: C_14  and  C_21 
REMARK    6  A    between atoms: C_15  and  C_19 
REMARK    7  A    between atoms: C_18  and  C_19 
ROOT
HETATM    1  C           1     -21.216  -4.784  -6.541  0.00  0.00     0.280 C 
ENDROOT
BRANCH   1   2
HETATM    2  N           1     -19.770  -4.579  -6.202  0.00  0.00    -0.066 N 
HETATM    3  H           1     -19.625  -3.597  -5.870  0.00  0.00     0.275 HD
HETATM    4  H           1     -19.491  -5.245  -5.446  0.00  0.00     0.275 HD
HETATM    5  H           1     -19.185  -4.749  -7.051  0.00  0.00     0.275 HD
ENDBRANCH   1   2
BRANCH   1   6
HETATM    6  C           1     -21.820  -5.778  -5.579  0.00  0.00     0.249 C 
HETATM    7  O           1     -23.019  -5.913  -5.523  0.00  0.00    -0.271 OA
HETATM    8  N           1     -21.009  -6.526  -4.768  0.00  0.00    -0.344 N 
HETATM    9  H           1     -20.005  -6.413  -4.814  0.00  0.00     0.163 HD
BRANCH   8  10
HETATM   10  C           1     -21.590  -7.481  -3.843  0.00  0.00     0.189 C 
BRANCH  10  11
HETATM   11  C           1     -20.757  -8.756  -3.839  0.00  0.00     0.010 C 
HETATM   12  C           1     -19.630  -8.630  -4.855  0.00  0.00     0.012 C 
HETATM   13  C           1     -21.640  -9.940  -4.206  0.00  0.00     0.012 C 
ENDBRANCH  10  11
BRANCH  10  14
HETATM   14  C           1     -21.609  -6.888  -2.455  0.00  0.00     0.197 C 
HETATM   15  O           1     -22.329  -5.898  -2.209  0.00  0.00    -0.646 OA
HETATM   16  O           1     -20.902  -7.387  -1.553  0.00  0.00    -0.646 OA
ENDBRANCH  10  14
ENDBRANCH   8  10
ENDBRANCH   1   6
BRANCH   1  17
HETATM   17  C           1     -21.333  -5.318  -7.963  0.00  0.00     0.101 C 
BRANCH  17  18
HETATM   18  C           1     -22.378  -4.543  -8.703  0.00  0.00     0.028 A 
HETATM   19  C           1     -22.276  -4.152 -10.017  0.00  0.00     0.114 A 
HETATM   20  N           1     -23.438  -3.480 -10.277  0.00  0.00    -0.360 N 
HETATM   21  H           1     -23.708  -3.037 -11.190  0.00  0.00     0.166 HD
HETATM   22  C           1     -24.183  -3.490  -9.132  0.00  0.00     0.180 A 
HETATM   23  N           1     -23.567  -4.126  -8.163  0.00  0.00    -0.355 N 
ATOM     24  HN          1     -23.901  -4.276  -7.210  1.00  0.00     0.166 HD
ENDBRANCH  17  18
ENDBRANCH   1  17
TORSDOF 7
ENDMDL
MODEL 5
REMARK VINA RESULT:      -6.0     14.106     16.674
REMARK  7 active torsions:
REMARK  status: ('A' for Active; 'I' for Inactive)
REMARK    1  A    between atoms: N_1  and  C_11 
REMARK    2  A    between atoms: N_4  and  C_19 
REMARK       I    between atoms: N_4  and  C_5 
REMARK    3  A    between atoms: C_5  and  C_11 
REMARK    4  A    between atoms: C_11  and  C_21 
REMARK    5  A    between atoms: C_14  and  C_21 
REMARK    6  A    between atoms: C_15  and  C_19 
REMARK    7  A    between atoms: C_18  and  C_19 
ROOT
HETATM    1  C           1     -22.267  -5.145  -7.546  0.00  0.00     0.280 C 
ENDROOT
BRANCH   1   2
HETATM    2  N           1     -23.343  -4.454  -6.764  0.00  0.00    -0.066 N 
HETATM    3  H           1     -22.916  -3.715  -6.159  0.00  0.00     0.275 HD
HETATM    4  H           1     -24.024  -4.012  -7.423  0.00  0.00     0.275 HD
HETATM    5  H           1     -23.840  -5.150  -6.163  0.00  0.00     0.275 HD
ENDBRANCH   1   2
BRANCH   1   6
HETATM    6  C           1     -21.264  -5.749  -6.594  0.00  0.00     0.249 C 
HETATM    7  O           1     -20.114  -5.377  -6.611  0.00  0.00    -0.271 OA
HETATM    8  N           1     -21.656  -6.719  -5.711  0.00  0.00    -0.344 N 
HETATM    9  H           1     -22.619  -7.030  -5.696  0.00  0.00     0.163 HD
BRANCH   8  10
HETATM   10  C           1     -20.693  -7.299  -4.796  0.00  0.00     0.189 C 
BRANCH  10  11
HETATM   11  C           1     -21.355  -7.543  -3.447  0.00  0.00     0.010 C 
HETATM   12  C           1     -21.815  -6.216  -2.859  0.00  0.00     0.012 C 
HETATM   13  C           1     -20.356  -8.196  -2.502  0.00  0.00     0.012 C 
ENDBRANCH  10  11
BRANCH  10  14
HETATM   14  C           1     -20.195  -8.610  -5.356  0.00  0.00     0.197 C 
HETATM   15  O           1     -18.978  -8.767  -5.590  0.00  0.00    -0.646 OA
HETATM   16  O           1     -21.001  -9.537  -5.586  0.00  0.00    -0.646 OA
ENDBRANCH  10  14
ENDBRANCH   8  10
ENDBRANCH   1   6
BRANCH   1  17
HETATM   17  C           1     -21.568  -4.135  -8.448  0.00  0.00     0.101 C 
BRANCH  17  18
HETATM   18  C           1     -21.996  -4.351  -9.866  0.00  0.00     0.028 A 
HETATM   19  C           1     -21.177  -4.204 -10.960  0.00  0.00     0.114 A 
HETATM   20  N           1     -21.969  -4.495 -12.037  0.00  0.00    -0.360 N 
HETATM   21  H           1     -21.675  -4.484 -13.044  0.00  0.00     0.166 HD
HETATM   22  C           1     -23.212  -4.800 -11.561  0.00  0.00     0.180 A 
HETATM   23  N           1     -23.259  -4.721 -10.251  0.00  0.00    -0.355 N 
ATOM     24  HN          1     -24.063  -4.897  -9.648  1.00  0.00     0.166 HD
ENDBRANCH  17  18
ENDBRANCH   1  17
TORSDOF 7
ENDMDL
MODEL 6
REMARK VINA RESULT:      -5.9     15.928     18.680
REMARK  7 active torsions:
REMARK  status: ('A' for Active; 'I' for Inactive)
REMARK    1  A    between atoms: N_1  and  C_11 
REMARK    2  A    between atoms: N_4  and  C_19 
REMARK       I    between atoms: N_4  and  C_5 
REMARK    3  A    between atoms: C_5  and  C_11 
REMARK    4  A    between atoms: C_11  and  C_21 
REMARK    5  A    between atoms: C_14  and  C_21 
REMARK    6  A    between atoms: C_15  and  C_19 
REMARK    7  A    between atoms: C_18  and  C_19 
ROOT
HETATM    1  C           1     -20.554  -7.659  -4.478  0.00  0.00     0.280 C 
ENDROOT
BRANCH   1   2
HETATM    2  N           1     -21.033  -8.441  -5.664  0.00  0.00    -0.066 N 
HETATM    3  H           1     -21.817  -9.069  -5.374  0.00  0.00     0.275 HD
HETATM    4  H           1     -21.371  -7.782  -6.402  0.00  0.00     0.275 HD
HETATM    5  H           1     -20.247  -9.016  -6.043  0.00  0.00     0.275 HD
ENDBRANCH   1   2
BRANCH   1   6
HETATM    6  C           1     -20.610  -8.530  -3.247  0.00  0.00     0.249 C 
HETATM    7  O           1     -19.673  -9.239  -2.965  0.00  0.00    -0.271 OA
HETATM    8  N           1     -21.723  -8.518  -2.450  0.00  0.00    -0.344 N 
HETATM    9  H           1     -22.507  -7.924  -2.686  0.00  0.00     0.163 HD
BRANCH   8  10
HETATM   10  C           1     -21.777  -9.355  -1.267  0.00  0.00     0.189 C 
BRANCH  10  11
HETATM   11  C           1     -22.266  -8.531  -0.083  0.00  0.00     0.010 C 
HETATM   12  C           1     -22.459  -7.084  -0.516  0.00  0.00     0.012 C 
HETATM   13  C           1     -21.237  -8.592   1.037  0.00  0.00     0.012 C 
ENDBRANCH  10  11
BRANCH  10  14
HETATM   14  C           1     -22.727 -10.503  -1.507  0.00  0.00     0.197 C 
HETATM   15  O           1     -22.644 -11.173  -2.558  0.00  0.00    -0.646 OA
HETATM   16  O           1     -23.598 -10.782  -0.655  0.00  0.00    -0.646 OA
ENDBRANCH  10  14
ENDBRANCH   8  10
ENDBRANCH   1   6
BRANCH   1  17
HETATM   17  C           1     -21.446  -6.440  -4.279  0.00  0.00     0.101 C 
BRANCH  17  18
HETATM   18  C           1     -21.307  -5.522  -5.453  0.00  0.00     0.028 A 
HETATM   19  C           1     -20.131  -4.927  -5.844  0.00  0.00     0.114 A 
HETATM   20  N           1     -20.459  -4.183  -6.944  0.00  0.00    -0.360 N 
HETATM   21  H           1     -19.803  -3.589  -7.510  0.00  0.00     0.166 HD
HETATM   22  C           1     -21.795  -4.353  -7.170  0.00  0.00     0.180 A 
HETATM   23  N           1     -22.335  -5.157  -6.284  0.00  0.00    -0.355 N 
ATOM     24  HN          1     -23.311  -5.449  -6.225  1.00  0.00     0.166 HD
ENDBRANCH  17  18
ENDBRANCH   1  17
TORSDOF 7
ENDMDL
MODEL 7
REMARK VINA RESULT:      -5.5     14.923     17.650
REMARK  7 active torsions:
REMARK  status: ('A' for Active; 'I' for Inactive)
REMARK    1  A    between atoms: N_1  and  C_11 
REMARK    2  A    between atoms: N_4  and  C_19 
REMARK       I    between atoms: N_4  and  C_5 
REMARK    3  A    between atoms: C_5  and  C_11 
REMARK    4  A    between atoms: C_11  and  C_21 
REMARK    5  A    between atoms: C_14  and  C_21 
REMARK    6  A    between atoms: C_15  and  C_19 
REMARK    7  A    between atoms: C_18  and  C_19 
ROOT
HETATM    1  C           1     -20.739  -5.531  -6.182  0.00  0.00     0.280 C 
ENDROOT
BRANCH   1   2
HETATM    2  N           1     -20.151  -4.537  -5.226  0.00  0.00    -0.066 N 
HETATM    3  H           1     -19.206  -4.865  -4.919  0.00  0.00     0.275 HD
HETATM    4  H           1     -20.059  -3.610  -5.701  0.00  0.00     0.275 HD
HETATM    5  H           1     -20.774  -4.442  -4.393  0.00  0.00     0.275 HD
ENDBRANCH   1   2
BRANCH   1   6
HETATM    6  C           1     -20.185  -6.903  -5.883  0.00  0.00     0.249 C 
HETATM    7  O           1     -19.302  -7.361  -6.568  0.00  0.00    -0.271 OA
HETATM    8  N           1     -20.683  -7.629  -4.834  0.00  0.00    -0.344 N 
HETATM    9  H           1     -21.423  -7.246  -4.260  0.00  0.00     0.163 HD
BRANCH   8  10
HETATM   10  C           1     -20.151  -8.947  -4.547  0.00  0.00     0.189 C 
BRANCH  10  11
HETATM   11  C           1     -19.985  -9.111  -3.042  0.00  0.00     0.010 C 
HETATM   12  C           1     -20.509  -7.869  -2.334  0.00  0.00     0.012 C 
HETATM   13  C           1     -18.511  -9.299  -2.712  0.00  0.00     0.012 C 
ENDBRANCH  10  11
BRANCH  10  14
HETATM   14  C           1     -21.104  -9.997  -5.065  0.00  0.00     0.197 C 
HETATM   15  O           1     -21.051 -10.353  -6.261  0.00  0.00    -0.646 OA
HETATM   16  O           1     -21.946 -10.510  -4.296  0.00  0.00    -0.646 OA
ENDBRANCH  10  14
ENDBRANCH   8  10
ENDBRANCH   1   6
BRANCH   1  17
HETATM   17  C           1     -20.380  -5.138  -7.609  0.00  0.00     0.101 C 
BRANCH  17  18
HETATM   18  C           1     -21.596  -4.606  -8.302  0.00  0.00     0.028 A 
HETATM   19  C           1     -21.689  -4.385  -9.655  0.00  0.00     0.114 A 
HETATM   20  N           1     -22.954  -3.904  -9.849  0.00  0.00    -0.360 N 
HETATM   21  H           1     -23.378  -3.624 -10.768  0.00  0.00     0.166 HD
HETATM   22  C           1     -23.565  -3.852  -8.628  0.00  0.00     0.180 A 
HETATM   23  N           1     -22.767  -4.271  -7.673  0.00  0.00    -0.355 N 
ATOM     24  HN          1     -22.974  -4.333  -6.676  1.00  0.00     0.166 HD
ENDBRANCH  17  18
ENDBRANCH   1  17
TORSDOF 7
ENDMDL
MODEL 8
REMARK VINA RESULT:      -5.3     16.526     19.402
REMARK  7 active torsions:
REMARK  status: ('A' for Active; 'I' for Inactive)
REMARK    1  A    between atoms: N_1  and  C_11 
REMARK    2  A    between atoms: N_4  and  C_19 
REMARK       I    between atoms: N_4  and  C_5 
REMARK    3  A    between atoms: C_5  and  C_11 
REMARK    4  A    between atoms: C_11  and  C_21 
REMARK    5  A    between atoms: C_14  and  C_21 
REMARK    6  A    between atoms: C_15  and  C_19 
REMARK    7  A    between atoms: C_18  and  C_19 
ROOT
HETATM    1  C           1     -21.018  -8.453  -4.132  0.00  0.00     0.280 C 
ENDROOT
BRANCH   1   2
HETATM    2  N           1     -21.543  -9.786  -4.574  0.00  0.00    -0.066 N 
HETATM    3  H           1     -22.395  -9.648  -5.164  0.00  0.00     0.275 HD
HETATM    4  H           1     -20.811 -10.281  -5.133  0.00  0.00     0.275 HD
HETATM    5  H           1     -21.788 -10.360  -3.736  0.00  0.00     0.275 HD
ENDBRANCH   1   2
BRANCH   1   6
HETATM    6  C           1     -20.921  -8.427  -2.626  0.00  0.00     0.249 C 
HETATM    7  O           1     -20.498  -7.444  -2.064  0.00  0.00    -0.271 OA
HETATM    8  N           1     -21.313  -9.517  -1.895  0.00  0.00    -0.344 N 
HETATM    9  H           1     -21.667 -10.339  -2.365  0.00  0.00     0.163 HD
BRANCH   8  10
HETATM   10  C           1     -21.220  -9.492  -0.449  0.00  0.00     0.189 C 
BRANCH  10  11
HETATM   11  C           1     -22.615  -9.603   0.153  0.00  0.00     0.010 C 
HETATM   12  C           1     -23.486 -10.473  -0.743  0.00  0.00     0.012 C 
HETATM   13  C           1     -23.230  -8.215   0.266  0.00  0.00     0.012 C 
ENDBRANCH  10  11
BRANCH  10  14
HETATM   14  C           1     -20.376 -10.652   0.021  0.00  0.00     0.197 C 
HETATM   15  O           1     -19.564 -11.190  -0.761  0.00  0.00    -0.646 OA
HETATM   16  O           1     -20.491 -11.074   1.192  0.00  0.00    -0.646 OA
ENDBRANCH  10  14
ENDBRANCH   8  10
ENDBRANCH   1   6
BRANCH   1  17
HETATM   17  C           1     -21.965  -7.355  -4.600  0.00  0.00     0.101 C 
BRANCH  17  18
HETATM   18  C           1     -21.302  -6.548  -5.673  0.00  0.00     0.028 A 
HETATM   19  C           1     -21.828  -5.406  -6.228  0.00  0.00     0.114 A 
HETATM   20  N           1     -20.905  -5.004  -7.153  0.00  0.00    -0.360 N 
HETATM   21  H           1     -20.974  -4.160  -7.773  0.00  0.00     0.166 HD
HETATM   22  C           1     -19.877  -5.903  -7.123  0.00  0.00     0.180 A 
HETATM   23  N           1     -20.090  -6.849  -6.237  0.00  0.00    -0.355 N 
ATOM     24  HN          1     -19.483  -7.638  -6.016  1.00  0.00     0.166 HD
ENDBRANCH  17  18
ENDBRANCH   1  17
TORSDOF 7
ENDMDL
MODEL 9
REMARK VINA RESULT:      -5.2     15.494     18.295
REMARK  7 active torsions:
REMARK  status: ('A' for Active; 'I' for Inactive)
REMARK    1  A    between atoms: N_1  and  C_11 
REMARK    2  A    between atoms: N_4  and  C_19 
REMARK       I    between atoms: N_4  and  C_5 
REMARK    3  A    between atoms: C_5  and  C_11 
REMARK    4  A    between atoms: C_11  and  C_21 
REMARK    5  A    between atoms: C_14  and  C_21 
REMARK    6  A    between atoms: C_15  and  C_19 
REMARK    7  A    between atoms: C_18  and  C_19 
ROOT
HETATM    1  C           1     -21.536  -6.154  -4.833  0.00  0.00     0.280 C 
ENDROOT
BRANCH   1   2
HETATM    2  N           1     -21.702  -5.989  -3.352  0.00  0.00    -0.066 N 
HETATM    3  H           1     -20.769  -5.812  -2.914  0.00  0.00     0.275 HD
HETATM    4  H           1     -22.334  -5.179  -3.160  0.00  0.00     0.275 HD
HETATM    5  H           1     -22.116  -6.859  -2.948  0.00  0.00     0.275 HD
ENDBRANCH   1   2
BRANCH   1   6
HETATM    6  C           1     -21.184  -7.589  -5.141  0.00  0.00     0.249 C 
HETATM    7  O           1     -21.289  -8.008  -6.270  0.00  0.00    -0.271 OA
HETATM    8  N           1     -20.746  -8.417  -4.142  0.00  0.00    -0.344 N 
HETATM    9  H           1     -20.658  -8.066  -3.198  0.00  0.00     0.163 HD
BRANCH   8  10
HETATM   10  C           1     -20.407  -9.795  -4.438  0.00  0.00     0.189 C 
BRANCH  10  11
HETATM   11  C           1     -18.942 -10.042  -4.104  0.00  0.00     0.010 C 
HETATM   12  C           1     -18.550  -9.208  -2.892  0.00  0.00     0.012 C 
HETATM   13  C           1     -18.077  -9.648  -5.292  0.00  0.00     0.012 C 
ENDBRANCH  10  11
BRANCH  10  14
HETATM   14  C           1     -21.273 -10.714  -3.612  0.00  0.00     0.197 C 
HETATM   15  O           1     -21.100 -11.950  -3.664  0.00  0.00    -0.646 OA
HETATM   16  O           1     -22.165 -10.237  -2.876  0.00  0.00    -0.646 OA
ENDBRANCH  10  14
ENDBRANCH   8  10
ENDBRANCH   1   6
BRANCH   1  17
HETATM   17  C           1     -20.421  -5.240  -5.324  0.00  0.00     0.101 C 
BRANCH  17  18
HETATM   18  C           1     -20.768  -4.713  -6.681  0.00  0.00     0.028 A 
HETATM   19  C           1     -19.853  -4.444  -7.672  0.00  0.00     0.114 A 
HETATM   20  N           1     -20.596  -3.988  -8.725  0.00  0.00    -0.360 N 
HETATM   21  H           1     -20.227  -3.685  -9.660  0.00  0.00     0.166 HD
HETATM   22  C           1     -21.906  -3.997  -8.338  0.00  0.00     0.180 A 
HETATM   23  N           1     -22.041  -4.431  -7.106  0.00  0.00    -0.355 N 
ATOM     24  HN          1     -22.907  -4.535  -6.577  1.00  0.00     0.166 HD
ENDBRANCH  17  18
ENDBRANCH   1  17
TORSDOF 7
ENDMDL
