MODEL 1
REMARK VINA RESULT:      -7.4      0.000      0.000
REMARK  10 active torsions:
REMARK  status: ('A' for Active; 'I' for Inactive)
REMARK    1  A    between atoms: C_1  and  C_6 
REMARK    2  A    between atoms: C_1  and  C_2 
REMARK    3  A    between atoms: C_1  and  N_19 
REMARK    4  A    between atoms: C_2  and  C_17 
REMARK       I    between atoms: C_6  and  N_8 
REMARK    5  A    between atoms: N_8  and  C_25 
REMARK    6  A    between atoms: C_11  and  C_25 
REMARK    7  A    between atoms: P_20  and  O_27 
REMARK    8  A    between atoms: P_20  and  O_22 
REMARK    9  A    between atoms: C_25  and  C_26 
REMARK   10  A    between atoms: C_26  and  O_27 
ROOT
HETATM    1  C           1     -34.173  -2.540 -12.126  0.00  0.00     0.249 C 
HETATM    2  O           1     -33.678  -2.153 -11.094  0.00  0.00    -0.271 OA
HETATM    3  N           1     -34.859  -1.665 -12.926  0.00  0.00    -0.343 N 
HETATM    4  H           1     -35.273  -1.989 -13.790  0.00  0.00     0.163 HD
ENDROOT
BRANCH   1   5
HETATM    5  C           1     -34.037  -3.986 -12.532  0.00  0.00     0.278 C 
BRANCH   5   6
HETATM    6  C           1     -32.963  -4.654 -11.684  0.00  0.00     0.081 C 
BRANCH   6   7
HETATM    7  C           1     -33.555  -5.821 -10.957  0.00  0.00    -0.056 A 
HETATM    8  C           1     -32.866  -7.034 -10.908  0.00  0.00     0.007 A 
HETATM    9  C           1     -33.418  -8.121 -10.231  0.00  0.00     0.001 A 
HETATM   10  C           1     -34.657  -7.998  -9.604  0.00  0.00     0.000 A 
HETATM   11  C           1     -35.346  -6.786  -9.655  0.00  0.00     0.001 A 
HETATM   12  C           1     -34.795  -5.697 -10.331  0.00  0.00     0.007 A 
ENDBRANCH   6   7
ENDBRANCH   5   6
BRANCH   5  13
HETATM   13  N           1     -33.649  -4.063 -13.979  0.00  0.00    -0.066 N 
HETATM   14  H           1     -34.500  -4.240 -14.559  0.00  0.00     0.275 HD
HETATM   15  H           1     -33.209  -3.162 -14.272  0.00  0.00     0.275 HD
HETATM   16  H           1     -32.967  -4.843 -14.116  0.00  0.00     0.275 HD
ENDBRANCH   5  13
ENDBRANCH   1   5
BRANCH   3  17
HETATM   17  C           1     -34.990  -0.275 -12.534  0.00  0.00     0.210 C 
BRANCH  17  18
HETATM   18  C           1     -36.279  -0.087 -11.772  0.00  0.00     0.198 C 
HETATM   19  O           1     -36.267   0.466 -10.650  0.00  0.00    -0.646 OA
HETATM   20  O           1     -37.359  -0.483 -12.261  0.00  0.00    -0.646 OA
ENDBRANCH  17  18
BRANCH  17  21
HETATM   21  C           1     -35.005   0.603 -13.778  0.00  0.00     0.217 C 
BRANCH  21  22
HETATM   22  O           1     -35.021  -0.206 -14.923  0.00  0.00    -0.287 OA
BRANCH  22  23
HETATM   23  P           1     -36.343  -0.103 -15.844  0.00  0.00     0.406 P 
HETATM   24  O           1     -36.121  -0.834 -17.111  0.00  0.00    -0.624 OA
HETATM   25  O           1     -36.629   1.319 -16.139  0.00  0.00    -0.624 OA
BRANCH  23  26
HETATM   26  O           1     -37.597  -0.754 -15.060  0.00  0.00    -0.300 OA
HETATM   27  H           1     -38.354  -0.301 -15.392  0.00  0.00     0.223 HD
ENDBRANCH  23  26
ENDBRANCH  22  23
ENDBRANCH  21  22
ENDBRANCH  17  21
ENDBRANCH   3  17
TORSDOF 10
ENDMDL
MODEL 2
REMARK VINA RESULT:      -7.0     15.143     17.289
REMARK  10 active torsions:
REMARK  status: ('A' for Active; 'I' for Inactive)
REMARK    1  A    between atoms: C_1  and  C_6 
REMARK    2  A    between atoms: C_1  and  C_2 
REMARK    3  A    between atoms: C_1  and  N_19 
REMARK    4  A    between atoms: C_2  and  C_17 
REMARK       I    between atoms: C_6  and  N_8 
REMARK    5  A    between atoms: N_8  and  C_25 
REMARK    6  A    between atoms: C_11  and  C_25 
REMARK    7  A    between atoms: P_20  and  O_27 
REMARK    8  A    between atoms: P_20  and  O_22 
REMARK    9  A    between atoms: C_25  and  C_26 
REMARK   10  A    between atoms: C_26  and  O_27 
ROOT
HETATM    1  C           1     -21.559  -5.629  -5.578  0.00  0.00     0.249 C 
HETATM    2  O           1     -20.376  -5.391  -5.522  0.00  0.00    -0.271 OA
HETATM    3  N           1     -22.166  -6.323  -4.565  0.00  0.00    -0.343 N 
HETATM    4  H           1     -23.157  -6.522  -4.612  0.00  0.00     0.163 HD
ENDROOT
BRANCH   1   5
HETATM    5  C           1     -22.367  -5.163  -6.763  0.00  0.00     0.278 C 
BRANCH   5   6
HETATM    6  C           1     -21.726  -3.915  -7.357  0.00  0.00     0.081 C 
BRANCH   6   7
HETATM    7  C           1     -21.646  -4.056  -8.845  0.00  0.00    -0.056 A 
HETATM    8  C           1     -22.815  -4.144  -9.601  0.00  0.00     0.007 A 
HETATM    9  C           1     -22.740  -4.275 -10.987  0.00  0.00     0.001 A 
HETATM   10  C           1     -21.497  -4.319 -11.619  0.00  0.00     0.000 A 
HETATM   11  C           1     -20.328  -4.232 -10.862  0.00  0.00     0.001 A 
HETATM   12  C           1     -20.402  -4.100  -9.475  0.00  0.00     0.007 A 
ENDBRANCH   6   7
ENDBRANCH   5   6
BRANCH   5  13
HETATM   13  N           1     -23.764  -4.843  -6.320  0.00  0.00    -0.066 N 
HETATM   14  H           1     -23.969  -3.836  -6.513  0.00  0.00     0.275 HD
HETATM   15  H           1     -24.443  -5.442  -6.843  0.00  0.00     0.275 HD
HETATM   16  H           1     -23.856  -5.027  -5.296  0.00  0.00     0.275 HD
ENDBRANCH   5  13
ENDBRANCH   1   5
BRANCH   3  17
HETATM   17  C           1     -21.389  -6.772  -3.426  0.00  0.00     0.210 C 
BRANCH  17  18
HETATM   18  C           1     -20.939  -8.195  -3.653  0.00  0.00     0.198 C 
HETATM   19  O           1     -21.782  -9.086  -3.895  0.00  0.00    -0.646 OA
HETATM   20  O           1     -19.724  -8.483  -3.598  0.00  0.00    -0.646 OA
ENDBRANCH  17  18
BRANCH  17  21
HETATM   21  C           1     -22.246  -6.705  -2.169  0.00  0.00     0.217 C 
BRANCH  21  22
HETATM   22  O           1     -21.501  -7.156  -1.071  0.00  0.00    -0.287 OA
BRANCH  22  23
HETATM   23  P           1     -22.273  -8.139  -0.048  0.00  0.00     0.406 P 
HETATM   24  O           1     -21.457  -8.323   1.172  0.00  0.00    -0.624 OA
HETATM   25  O           1     -22.493  -9.451  -0.697  0.00  0.00    -0.624 OA
BRANCH  23  26
HETATM   26  O           1     -23.697  -7.489   0.351  0.00  0.00    -0.300 OA
HETATM   27  H           1     -24.102  -8.120   0.922  0.00  0.00     0.223 HD
ENDBRANCH  23  26
ENDBRANCH  22  23
ENDBRANCH  21  22
ENDBRANCH  17  21
ENDBRANCH   3  17
TORSDOF 10
ENDMDL
MODEL 3
REMARK VINA RESULT:      -7.0     13.455     15.349
REMARK  10 active torsions:
REMARK  status: ('A' for Active; 'I' for Inactive)
REMARK    1  A    between atoms: C_1  and  C_6 
REMARK    2  A    between atoms: C_1  and  C_2 
REMARK    3  A    between atoms: C_1  and  N_19 
REMARK    4  A    between atoms: C_2  and  C_17 
REMARK       I    between atoms: C_6  and  N_8 
REMARK    5  A    between atoms: N_8  and  C_25 
REMARK    6  A    between atoms: C_11  and  C_25 
REMARK    7  A    between atoms: P_20  and  O_27 
REMARK    8  A    between atoms: P_20  and  O_22 
REMARK    9  A    between atoms: C_25  and  C_26 
REMARK   10  A    between atoms: C_26  and  O_27 
ROOT
HETATM    1  C           1     -21.025  -6.048  -6.130  0.00  0.00     0.249 C 
HETATM    2  O           1     -21.033  -7.064  -6.784  0.00  0.00    -0.271 OA
HETATM    3  N           1     -21.273  -4.844  -6.733  0.00  0.00    -0.343 N 
HETATM    4  H           1     -21.267  -3.993  -6.185  0.00  0.00     0.163 HD
ENDROOT
BRANCH   1   5
HETATM    5  C           1     -20.743  -6.107  -4.649  0.00  0.00     0.278 C 
BRANCH   5   6
HETATM    6  C           1     -22.040  -6.362  -3.893  0.00  0.00     0.081 C 
BRANCH   6   7
HETATM    7  C           1     -21.740  -7.069  -2.608  0.00  0.00    -0.056 A 
HETATM    8  C           1     -22.391  -6.688  -1.435  0.00  0.00     0.007 A 
HETATM    9  C           1     -22.110  -7.346  -0.237  0.00  0.00     0.001 A 
HETATM   10  C           1     -21.178  -8.384  -0.213  0.00  0.00     0.000 A 
HETATM   11  C           1     -20.527  -8.763  -1.386  0.00  0.00     0.001 A 
HETATM   12  C           1     -20.807  -8.105  -2.584  0.00  0.00     0.007 A 
ENDBRANCH   6   7
ENDBRANCH   5   6
BRANCH   5  13
HETATM   13  N           1     -20.152  -4.803  -4.201  0.00  0.00    -0.066 N 
HETATM   14  H           1     -20.337  -4.669  -3.181  0.00  0.00     0.275 HD
HETATM   15  H           1     -19.121  -4.810  -4.370  0.00  0.00     0.275 HD
HETATM   16  H           1     -20.588  -4.021  -4.739  0.00  0.00     0.275 HD
ENDBRANCH   5  13
ENDBRANCH   1   5
BRANCH   3  17
HETATM   17  C           1     -21.543  -4.788  -8.156  0.00  0.00     0.210 C 
BRANCH  17  18
HETATM   18  C           1     -20.283  -4.405  -8.893  0.00  0.00     0.198 C 
HETATM   19  O           1     -20.171  -4.656 -10.113  0.00  0.00    -0.646 OA
HETATM   20  O           1     -19.351  -3.837  -8.285  0.00  0.00    -0.646 OA
ENDBRANCH  17  18
BRANCH  17  21
HETATM   21  C           1     -22.623  -3.750  -8.427  0.00  0.00     0.217 C 
BRANCH  21  22
HETATM   22  O           1     -23.686  -4.349  -9.118  0.00  0.00    -0.287 OA
BRANCH  22  23
HETATM   23  P           1     -23.817  -3.966 -10.681  0.00  0.00     0.406 P 
HETATM   24  O           1     -25.089  -3.244 -10.908  0.00  0.00    -0.624 OA
HETATM   25  O           1     -23.801  -5.202 -11.495  0.00  0.00    -0.624 OA
BRANCH  23  26
HETATM   26  O           1     -22.579  -3.021 -11.109  0.00  0.00    -0.300 OA
HETATM   27  H           1     -21.845  -3.606 -11.197  0.00  0.00     0.223 HD
ENDBRANCH  23  26
ENDBRANCH  22  23
ENDBRANCH  21  22
ENDBRANCH  17  21
ENDBRANCH   3  17
TORSDOF 10
ENDMDL
MODEL 4
REMARK VINA RESULT:      -6.7      2.595      4.258
REMARK  10 active torsions:
REMARK  status: ('A' for Active; 'I' for Inactive)
REMARK    1  A    between atoms: C_1  and  C_6 
REMARK    2  A    between atoms: C_1  and  C_2 
REMARK    3  A    between atoms: C_1  and  N_19 
REMARK    4  A    between atoms: C_2  and  C_17 
REMARK       I    between atoms: C_6  and  N_8 
REMARK    5  A    between atoms: N_8  and  C_25 
REMARK    6  A    between atoms: C_11  and  C_25 
REMARK    7  A    between atoms: P_20  and  O_27 
REMARK    8  A    between atoms: P_20  and  O_22 
REMARK    9  A    between atoms: C_25  and  C_26 
REMARK   10  A    between atoms: C_26  and  O_27 
ROOT
HETATM    1  C           1     -35.067  -0.114 -13.382  0.00  0.00     0.249 C 
HETATM    2  O           1     -34.654   0.976 -13.702  0.00  0.00    -0.271 OA
HETATM    3  N           1     -35.461  -1.005 -14.344  0.00  0.00    -0.343 N 
HETATM    4  H           1     -35.806  -1.918 -14.077  0.00  0.00     0.163 HD
ENDROOT
BRANCH   1   5
HETATM    5  C           1     -35.149  -0.491 -11.924  0.00  0.00     0.278 C 
BRANCH   5   6
HETATM    6  C           1     -35.933  -1.789 -11.777  0.00  0.00     0.081 C 
BRANCH   6   7
HETATM    7  C           1     -34.985  -2.922 -11.543  0.00  0.00    -0.056 A 
HETATM    8  C           1     -33.608  -2.699 -11.582  0.00  0.00     0.007 A 
HETATM    9  C           1     -32.724  -3.755 -11.365  0.00  0.00     0.001 A 
HETATM   10  C           1     -33.215  -5.035 -11.108  0.00  0.00     0.000 A 
HETATM   11  C           1     -34.591  -5.258 -11.070  0.00  0.00     0.001 A 
HETATM   12  C           1     -35.477  -4.202 -11.287  0.00  0.00     0.007 A 
ENDBRANCH   6   7
ENDBRANCH   5   6
BRANCH   5  13
HETATM   13  N           1     -35.843   0.600 -11.164  0.00  0.00    -0.066 N 
HETATM   14  H           1     -36.878   0.470 -11.234  0.00  0.00     0.275 HD
HETATM   15  H           1     -35.556   0.563 -10.159  0.00  0.00     0.275 HD
HETATM   16  H           1     -35.580   1.527 -11.567  0.00  0.00     0.275 HD
ENDBRANCH   5  13
ENDBRANCH   1   5
BRANCH   3  17
HETATM   17  C           1     -35.383  -0.641 -15.746  0.00  0.00     0.210 C 
BRANCH  17  18
HETATM   18  C           1     -36.743  -0.201 -16.228  0.00  0.00     0.198 C 
HETATM   19  O           1     -37.536  -1.038 -16.711  0.00  0.00    -0.646 OA
HETATM   20  O           1     -37.078   1.000 -16.145  0.00  0.00    -0.646 OA
ENDBRANCH  17  18
BRANCH  17  21
HETATM   21  C           1     -34.922  -1.844 -16.557  0.00  0.00     0.217 C 
BRANCH  21  22
HETATM   22  O           1     -35.103  -3.013 -15.805  0.00  0.00    -0.287 OA
BRANCH  22  23
HETATM   23  P           1     -33.899  -4.088 -15.869  0.00  0.00     0.406 P 
HETATM   24  O           1     -33.150  -4.068 -14.593  0.00  0.00    -0.624 OA
HETATM   25  O           1     -32.988  -3.743 -16.982  0.00  0.00    -0.624 OA
BRANCH  23  26
HETATM   26  O           1     -34.510  -5.564 -16.110  0.00  0.00    -0.300 OA
HETATM   27  H           1     -33.867  -6.155 -15.755  0.00  0.00     0.223 HD
ENDBRANCH  23  26
ENDBRANCH  22  23
ENDBRANCH  21  22
ENDBRANCH  17  21
ENDBRANCH   3  17
TORSDOF 10
ENDMDL
MODEL 5
REMARK VINA RESULT:      -6.5      5.007      6.780
REMARK  10 active torsions:
REMARK  status: ('A' for Active; 'I' for Inactive)
REMARK    1  A    between atoms: C_1  and  C_6 
REMARK    2  A    between atoms: C_1  and  C_2 
REMARK    3  A    between atoms: C_1  and  N_19 
REMARK    4  A    between atoms: C_2  and  C_17 
REMARK       I    between atoms: C_6  and  N_8 
REMARK    5  A    between atoms: N_8  and  C_25 
REMARK    6  A    between atoms: C_11  and  C_25 
REMARK    7  A    between atoms: P_20  and  O_27 
REMARK    8  A    between atoms: P_20  and  O_22 
REMARK    9  A    between atoms: C_25  and  C_26 
REMARK   10  A    between atoms: C_26  and  O_27 
ROOT
HETATM    1  C           1     -33.766  -4.480 -15.409  0.00  0.00     0.249 C 
HETATM    2  O           1     -34.905  -4.879 -15.468  0.00  0.00    -0.271 OA
HETATM    3  N           1     -33.268  -4.005 -14.225  0.00  0.00    -0.343 N 
HETATM    4  H           1     -32.314  -3.670 -14.175  0.00  0.00     0.163 HD
ENDROOT
BRANCH   1   5
HETATM    5  C           1     -32.894  -4.505 -16.639  0.00  0.00     0.278 C 
BRANCH   5   6
HETATM    6  C           1     -31.428  -4.492 -16.225  0.00  0.00     0.081 C 
BRANCH   6   7
HETATM    7  C           1     -30.647  -5.401 -17.121  0.00  0.00    -0.056 A 
HETATM    8  C           1     -29.464  -4.954 -17.708  0.00  0.00     0.007 A 
HETATM    9  C           1     -28.737  -5.801 -18.544  0.00  0.00     0.001 A 
HETATM   10  C           1     -29.193  -7.095 -18.793  0.00  0.00     0.000 A 
HETATM   11  C           1     -30.377  -7.542 -18.207  0.00  0.00     0.001 A 
HETATM   12  C           1     -31.105  -6.695 -17.371  0.00  0.00     0.007 A 
ENDBRANCH   6   7
ENDBRANCH   5   6
BRANCH   5  13
HETATM   13  N           1     -33.184  -3.298 -17.482  0.00  0.00    -0.066 N 
HETATM   14  H           1     -32.439  -2.580 -17.332  0.00  0.00     0.275 HD
HETATM   15  H           1     -33.205  -3.572 -18.490  0.00  0.00     0.275 HD
HETATM   16  H           1     -34.111  -2.899 -17.211  0.00  0.00     0.275 HD
ENDBRANCH   5  13
ENDBRANCH   1   5
BRANCH   3  17
HETATM   17  C           1     -34.107  -3.981 -13.043  0.00  0.00     0.210 C 
BRANCH  17  18
HETATM   18  C           1     -34.887  -2.689 -13.005  0.00  0.00     0.198 C 
HETATM   19  O           1     -34.761  -1.855 -13.928  0.00  0.00    -0.646 OA
HETATM   20  O           1     -35.660  -2.452 -12.052  0.00  0.00    -0.646 OA
ENDBRANCH  17  18
BRANCH  17  21
HETATM   21  C           1     -33.235  -4.082 -11.799  0.00  0.00     0.217 C 
BRANCH  21  22
HETATM   22  O           1     -33.065  -5.430 -11.455  0.00  0.00    -0.287 OA
BRANCH  22  23
HETATM   23  P           1     -34.404  -6.225 -11.029  0.00  0.00     0.406 P 
HETATM   24  O           1     -35.311  -5.311 -10.298  0.00  0.00    -0.624 OA
HETATM   25  O           1     -34.044  -7.364 -10.155  0.00  0.00    -0.624 OA
BRANCH  23  26
HETATM   26  O           1     -35.147  -6.775 -12.354  0.00  0.00    -0.300 OA
HETATM   27  H           1     -36.067  -6.736 -12.151  0.00  0.00     0.223 HD
ENDBRANCH  23  26
ENDBRANCH  22  23
ENDBRANCH  21  22
ENDBRANCH  17  21
ENDBRANCH   3  17
TORSDOF 10
ENDMDL
MODEL 6
REMARK VINA RESULT:      -6.5     15.873     18.048
REMARK  10 active torsions:
REMARK  status: ('A' for Active; 'I' for Inactive)
REMARK    1  A    between atoms: C_1  and  C_6 
REMARK    2  A    between atoms: C_1  and  C_2 
REMARK    3  A    between atoms: C_1  and  N_19 
REMARK    4  A    between atoms: C_2  and  C_17 
REMARK       I    between atoms: C_6  and  N_8 
REMARK    5  A    between atoms: N_8  and  C_25 
REMARK    6  A    between atoms: C_11  and  C_25 
REMARK    7  A    between atoms: P_20  and  O_27 
REMARK    8  A    between atoms: P_20  and  O_22 
REMARK    9  A    between atoms: C_25  and  C_26 
REMARK   10  A    between atoms: C_26  and  O_27 
ROOT
HETATM    1  C           1     -20.593  -7.390  -5.372  0.00  0.00     0.249 C 
HETATM    2  O           1     -19.589  -7.664  -5.987  0.00  0.00    -0.271 OA
HETATM    3  N           1     -20.856  -8.012  -4.180  0.00  0.00    -0.343 N 
HETATM    4  H           1     -21.696  -7.783  -3.665  0.00  0.00     0.163 HD
ENDROOT
BRANCH   1   5
HETATM    5  C           1     -21.555  -6.364  -5.917  0.00  0.00     0.278 C 
BRANCH   5   6
HETATM    6  C           1     -20.807  -5.071  -6.211  0.00  0.00     0.081 C 
BRANCH   6   7
HETATM    7  C           1     -21.057  -4.661  -7.629  0.00  0.00    -0.056 A 
HETATM    8  C           1     -22.281  -4.095  -7.986  0.00  0.00     0.007 A 
HETATM    9  C           1     -22.514  -3.714  -9.307  0.00  0.00     0.001 A 
HETATM   10  C           1     -21.524  -3.899 -10.272  0.00  0.00     0.000 A 
HETATM   11  C           1     -20.301  -4.467  -9.915  0.00  0.00     0.001 A 
HETATM   12  C           1     -20.067  -4.848  -8.594  0.00  0.00     0.007 A 
ENDBRANCH   6   7
ENDBRANCH   5   6
BRANCH   5  13
HETATM   13  N           1     -22.629  -6.099  -4.903  0.00  0.00    -0.066 N 
HETATM   14  H           1     -22.206  -6.066  -3.948  0.00  0.00     0.275 HD
HETATM   15  H           1     -23.089  -5.184  -5.112  0.00  0.00     0.275 HD
HETATM   16  H           1     -23.341  -6.864  -4.942  0.00  0.00     0.275 HD
ENDBRANCH   5  13
ENDBRANCH   1   5
BRANCH   3  17
HETATM   17  C           1     -19.931  -8.999  -3.658  0.00  0.00     0.210 C 
BRANCH  17  18
HETATM   18  C           1     -20.433 -10.384  -3.987  0.00  0.00     0.198 C 
HETATM   19  O           1     -20.113 -10.925  -5.067  0.00  0.00    -0.646 OA
HETATM   20  O           1     -21.170 -10.990  -3.180  0.00  0.00    -0.646 OA
ENDBRANCH  17  18
BRANCH  17  21
HETATM   21  C           1     -19.826  -8.845  -2.146  0.00  0.00     0.217 C 
BRANCH  21  22
HETATM   22  O           1     -20.610  -7.760  -1.731  0.00  0.00    -0.287 OA
BRANCH  22  23
HETATM   23  P           1     -21.781  -8.099  -0.671  0.00  0.00     0.406 P 
HETATM   24  O           1     -22.768  -6.997  -0.657  0.00  0.00    -0.624 OA
HETATM   25  O           1     -21.195  -8.255   0.678  0.00  0.00    -0.624 OA
BRANCH  23  26
HETATM   26  O           1     -22.515  -9.472  -1.103  0.00  0.00    -0.300 OA
HETATM   27  H           1     -22.809  -9.856  -0.294  0.00  0.00     0.223 HD
ENDBRANCH  23  26
ENDBRANCH  22  23
ENDBRANCH  21  22
ENDBRANCH  17  21
ENDBRANCH   3  17
TORSDOF 10
ENDMDL
MODEL 7
REMARK VINA RESULT:      -6.4     14.920     17.585
REMARK  10 active torsions:
REMARK  status: ('A' for Active; 'I' for Inactive)
REMARK    1  A    between atoms: C_1  and  C_6 
REMARK    2  A    between atoms: C_1  and  C_2 
REMARK    3  A    between atoms: C_1  and  N_19 
REMARK    4  A    between atoms: C_2  and  C_17 
REMARK       I    between atoms: C_6  and  N_8 
REMARK    5  A    between atoms: N_8  and  C_25 
REMARK    6  A    between atoms: C_11  and  C_25 
REMARK    7  A    between atoms: P_20  and  O_27 
REMARK    8  A    between atoms: P_20  and  O_22 
REMARK    9  A    between atoms: C_25  and  C_26 
REMARK   10  A    between atoms: C_26  and  O_27 
ROOT
HETATM    1  C           1     -21.734  -6.075  -5.382  0.00  0.00     0.249 C 
HETATM    2  O           1     -22.935  -6.077  -5.251  0.00  0.00    -0.271 OA
HETATM    3  N           1     -20.975  -7.019  -4.742  0.00  0.00    -0.343 N 
HETATM    4  H           1     -19.969  -7.017  -4.852  0.00  0.00     0.163 HD
ENDROOT
BRANCH   1   5
HETATM    5  C           1     -21.072  -5.034  -6.249  0.00  0.00     0.278 C 
BRANCH   5   6
HETATM    6  C           1     -20.563  -5.685  -7.528  0.00  0.00     0.081 C 
BRANCH   6   7
HETATM    7  C           1     -21.034  -4.898  -8.711  0.00  0.00    -0.056 A 
HETATM    8  C           1     -20.170  -4.662  -9.780  0.00  0.00     0.007 A 
HETATM    9  C           1     -20.609  -3.928 -10.882  0.00  0.00     0.001 A 
HETATM   10  C           1     -21.911  -3.430 -10.915  0.00  0.00     0.000 A 
HETATM   11  C           1     -22.774  -3.665  -9.845  0.00  0.00     0.001 A 
HETATM   12  C           1     -22.336  -4.399  -8.743  0.00  0.00     0.007 A 
ENDBRANCH   6   7
ENDBRANCH   5   6
BRANCH   5  13
HETATM   13  N           1     -19.919  -4.426  -5.506  0.00  0.00    -0.066 N 
HETATM   14  H           1     -19.194  -4.107  -6.188  0.00  0.00     0.275 HD
HETATM   15  H           1     -20.255  -3.608  -4.949  0.00  0.00     0.275 HD
HETATM   16  H           1     -19.504  -5.138  -4.864  0.00  0.00     0.275 HD
ENDBRANCH   5  13
ENDBRANCH   1   5
BRANCH   3  17
HETATM   17  C           1     -21.612  -8.019  -3.909  0.00  0.00     0.210 C 
BRANCH  17  18
HETATM   18  C           1     -21.213  -7.803  -2.469  0.00  0.00     0.198 C 
HETATM   19  O           1     -21.977  -7.187  -1.694  0.00  0.00    -0.646 OA
HETATM   20  O           1     -20.119  -8.239  -2.051  0.00  0.00    -0.646 OA
ENDBRANCH  17  18
BRANCH  17  21
HETATM   21  C           1     -21.170  -9.407  -4.354  0.00  0.00     0.217 C 
BRANCH  21  22
HETATM   22  O           1     -20.292  -9.292  -5.440  0.00  0.00    -0.287 OA
BRANCH  22  23
HETATM   23  P           1     -18.820  -9.921  -5.229  0.00  0.00     0.406 P 
HETATM   24  O           1     -17.990  -9.648  -6.424  0.00  0.00    -0.624 OA
HETATM   25  O           1     -18.931 -11.383  -5.030  0.00  0.00    -0.624 OA
BRANCH  23  26
HETATM   26  O           1     -18.130  -9.250  -3.931  0.00  0.00    -0.300 OA
HETATM   27  H           1     -17.648  -8.512  -4.266  0.00  0.00     0.223 HD
ENDBRANCH  23  26
ENDBRANCH  22  23
ENDBRANCH  21  22
ENDBRANCH  17  21
ENDBRANCH   3  17
TORSDOF 10
ENDMDL
MODEL 8
REMARK VINA RESULT:      -6.4     14.798     17.413
REMARK  10 active torsions:
REMARK  status: ('A' for Active; 'I' for Inactive)
REMARK    1  A    between atoms: C_1  and  C_6 
REMARK    2  A    between atoms: C_1  and  C_2 
REMARK    3  A    between atoms: C_1  and  N_19 
REMARK    4  A    between atoms: C_2  and  C_17 
REMARK       I    between atoms: C_6  and  N_8 
REMARK    5  A    between atoms: N_8  and  C_25 
REMARK    6  A    between atoms: C_11  and  C_25 
REMARK    7  A    between atoms: P_20  and  O_27 
REMARK    8  A    between atoms: P_20  and  O_22 
REMARK    9  A    between atoms: C_25  and  C_26 
REMARK   10  A    between atoms: C_26  and  O_27 
ROOT
HETATM    1  C           1     -21.715  -5.890  -5.413  0.00  0.00     0.249 C 
HETATM    2  O           1     -22.923  -5.929  -5.412  0.00  0.00    -0.271 OA
HETATM    3  N           1     -21.005  -6.684  -4.552  0.00  0.00    -0.343 N 
HETATM    4  H           1     -19.994  -6.653  -4.552  0.00  0.00     0.163 HD
ENDROOT
BRANCH   1   5
HETATM    5  C           1     -20.990  -4.968  -6.361  0.00  0.00     0.278 C 
BRANCH   5   6
HETATM    6  C           1     -20.661  -5.715  -7.647  0.00  0.00     0.081 C 
BRANCH   6   7
HETATM    7  C           1     -21.063  -4.883  -8.824  0.00  0.00    -0.056 A 
HETATM    8  C           1     -22.359  -4.374  -8.908  0.00  0.00     0.007 A 
HETATM    9  C           1     -22.733  -3.599 -10.006  0.00  0.00     0.001 A 
HETATM   10  C           1     -21.813  -3.334 -11.020  0.00  0.00     0.000 A 
HETATM   11  C           1     -20.518  -3.844 -10.936  0.00  0.00     0.001 A 
HETATM   12  C           1     -20.142  -4.619  -9.838  0.00  0.00     0.007 A 
ENDBRANCH   6   7
ENDBRANCH   5   6
BRANCH   5  13
HETATM   13  N           1     -19.719  -4.493  -5.721  0.00  0.00    -0.066 N 
HETATM   14  H           1     -19.920  -4.160  -4.751  0.00  0.00     0.275 HD
HETATM   15  H           1     -19.032  -5.280  -5.682  0.00  0.00     0.275 HD
HETATM   16  H           1     -19.318  -3.709  -6.283  0.00  0.00     0.275 HD
ENDBRANCH   5  13
ENDBRANCH   1   5
BRANCH   3  17
HETATM   17  C           1     -21.703  -7.570  -3.640  0.00  0.00     0.210 C 
BRANCH  17  18
HETATM   18  C           1     -21.682  -6.981  -2.251  0.00  0.00     0.198 C 
HETATM   19  O           1     -21.022  -7.536  -1.346  0.00  0.00    -0.646 OA
HETATM   20  O           1     -22.325  -5.938  -2.004  0.00  0.00    -0.646 OA
ENDBRANCH  17  18
BRANCH  17  21
HETATM   21  C           1     -21.013  -8.928  -3.625  0.00  0.00     0.217 C 
BRANCH  21  22
HETATM   22  O           1     -21.976  -9.943  -3.717  0.00  0.00    -0.287 OA
BRANCH  22  23
HETATM   23  P           1     -22.026 -10.983  -2.482  0.00  0.00     0.406 P 
HETATM   24  O           1     -21.479 -12.289  -2.914  0.00  0.00    -0.624 OA
HETATM   25  O           1     -23.428 -11.157  -2.041  0.00  0.00    -0.624 OA
BRANCH  23  26
HETATM   26  O           1     -21.143 -10.408  -1.259  0.00  0.00    -0.300 OA
HETATM   27  H           1     -20.979  -9.506  -1.479  0.00  0.00     0.223 HD
ENDBRANCH  23  26
ENDBRANCH  22  23
ENDBRANCH  21  22
ENDBRANCH  17  21
ENDBRANCH   3  17
TORSDOF 10
ENDMDL
MODEL 9
REMARK VINA RESULT:      -6.3      4.514      6.034
REMARK  10 active torsions:
REMARK  status: ('A' for Active; 'I' for Inactive)
REMARK    1  A    between atoms: C_1  and  C_6 
REMARK    2  A    between atoms: C_1  and  C_2 
REMARK    3  A    between atoms: C_1  and  N_19 
REMARK    4  A    between atoms: C_2  and  C_17 
REMARK       I    between atoms: C_6  and  N_8 
REMARK    5  A    between atoms: N_8  and  C_25 
REMARK    6  A    between atoms: C_11  and  C_25 
REMARK    7  A    between atoms: P_20  and  O_27 
REMARK    8  A    between atoms: P_20  and  O_22 
REMARK    9  A    between atoms: C_25  and  C_26 
REMARK   10  A    between atoms: C_26  and  O_27 
ROOT
HETATM    1  C           1     -34.148  -3.573 -16.143  0.00  0.00     0.249 C 
HETATM    2  O           1     -34.659  -4.263 -15.293  0.00  0.00    -0.271 OA
HETATM    3  N           1     -34.605  -2.299 -16.357  0.00  0.00    -0.343 N 
HETATM    4  H           1     -34.177  -1.721 -17.068  0.00  0.00     0.163 HD
ENDROOT
BRANCH   1   5
HETATM    5  C           1     -33.006  -4.113 -16.968  0.00  0.00     0.278 C 
BRANCH   5   6
HETATM    6  C           1     -32.001  -4.805 -16.057  0.00  0.00     0.081 C 
BRANCH   6   7
HETATM    7  C           1     -30.924  -5.432 -16.885  0.00  0.00    -0.056 A 
HETATM    8  C           1     -31.106  -6.710 -17.414  0.00  0.00     0.007 A 
HETATM    9  C           1     -30.102  -7.294 -18.185  0.00  0.00     0.001 A 
HETATM   10  C           1     -28.916  -6.602 -18.429  0.00  0.00     0.000 A 
HETATM   11  C           1     -28.734  -5.324 -17.899  0.00  0.00     0.001 A 
HETATM   12  C           1     -29.738  -4.739 -17.127  0.00  0.00     0.007 A 
ENDBRANCH   6   7
ENDBRANCH   5   6
BRANCH   5  13
HETATM   13  N           1     -32.331  -2.982 -17.687  0.00  0.00    -0.066 N 
HETATM   14  H           1     -33.018  -2.211 -17.846  0.00  0.00     0.275 HD
HETATM   15  H           1     -31.535  -2.626 -17.110  0.00  0.00     0.275 HD
HETATM   16  H           1     -31.970  -3.321 -18.607  0.00  0.00     0.275 HD
ENDBRANCH   5  13
ENDBRANCH   1   5
BRANCH   3  17
HETATM   17  C           1     -35.703  -1.781 -15.564  0.00  0.00     0.210 C 
BRANCH  17  18
HETATM   18  C           1     -36.490  -0.787 -16.382  0.00  0.00     0.198 C 
HETATM   19  O           1     -37.635  -1.078 -16.790  0.00  0.00    -0.646 OA
HETATM   20  O           1     -35.996   0.330 -16.653  0.00  0.00    -0.646 OA
ENDBRANCH  17  18
BRANCH  17  21
HETATM   21  C           1     -35.151  -1.092 -14.323  0.00  0.00     0.217 C 
BRANCH  21  22
HETATM   22  O           1     -35.838  -1.549 -13.190  0.00  0.00    -0.287 OA
BRANCH  22  23
HETATM   23  P           1     -34.935  -2.258 -12.054  0.00  0.00     0.406 P 
HETATM   24  O           1     -35.795  -3.100 -11.193  0.00  0.00    -0.624 OA
HETATM   25  O           1     -34.276  -1.221 -11.229  0.00  0.00    -0.624 OA
BRANCH  23  26
HETATM   26  O           1     -33.812  -3.181 -12.759  0.00  0.00    -0.300 OA
HETATM   27  H           1     -34.103  -4.067 -12.620  0.00  0.00     0.223 HD
ENDBRANCH  23  26
ENDBRANCH  22  23
ENDBRANCH  21  22
ENDBRANCH  17  21
ENDBRANCH   3  17
TORSDOF 10
ENDMDL
