MODEL 1
REMARK VINA RESULT:      -5.9      0.000      0.000
REMARK  6 active torsions:
REMARK  status: ('A' for Active; 'I' for Inactive)
REMARK    1  A    between atoms: C_1  and  C_15 
REMARK    2  A    between atoms: C_1  and  C_11 
REMARK    3  A    between atoms: C_1  and  N_3 
REMARK       I    between atoms: N_3  and  C_12 
REMARK    4  A    between atoms: C_5  and  C_15 
REMARK    5  A    between atoms: N_8  and  C_9 
REMARK    6  A    between atoms: C_9  and  C_12 
ROOT
HETATM    1  N           1     -26.887  -6.594 -17.166  0.00  0.00    -0.345 N 
HETATM    2  O           1     -25.292  -5.625 -15.942  0.00  0.00    -0.272 OA
HETATM    3  C           1     -25.578  -6.416 -16.807  0.00  0.00     0.243 C 
HETATM    4  H           1     -27.128  -7.257 -17.892  0.00  0.00     0.163 HD
ENDROOT
BRANCH   1   5
HETATM    5  C           1     -27.930  -5.830 -16.508  0.00  0.00     0.189 C 
BRANCH   5   6
HETATM    6  C           1     -29.120  -5.682 -17.447  0.00  0.00     0.014 C 
HETATM    7  C           1     -29.087  -4.303 -18.092  0.00  0.00     0.012 C 
BRANCH   6   8
HETATM    8  C           1     -29.048  -6.751 -18.528  0.00  0.00     0.002 C 
HETATM    9  C           1     -30.266  -7.659 -18.429  0.00  0.00     0.005 C 
ENDBRANCH   6   8
ENDBRANCH   5   6
BRANCH   5  10
HETATM   10  C           1     -28.364  -6.551 -15.255  0.00  0.00     0.197 C 
HETATM   11  O           1     -29.208  -6.030 -14.494  0.00  0.00    -0.646 OA
HETATM   12  O           1     -27.879  -7.670 -14.978  0.00  0.00    -0.646 OA
ENDBRANCH   5  10
ENDBRANCH   1   5
BRANCH   3  13
HETATM   13  C           1     -24.494  -7.210 -17.493  0.00  0.00     0.332 C 
BRANCH  13  14
HETATM   14  N           1     -23.788  -8.069 -16.485  0.00  0.00    -0.071 N 
HETATM   15  H           1     -23.743  -9.053 -16.835  0.00  0.00     0.274 HD
HETATM   16  H           1     -22.820  -7.707 -16.337  0.00  0.00     0.274 HD
HETATM   17  H           1     -24.313  -8.046 -15.581  0.00  0.00     0.274 HD
ENDBRANCH  13  14
ENDBRANCH   3  13
TORSDOF 6
ENDMDL
MODEL 2
REMARK VINA RESULT:      -5.7      2.134      3.131
REMARK  6 active torsions:
REMARK  status: ('A' for Active; 'I' for Inactive)
REMARK    1  A    between atoms: C_1  and  C_15 
REMARK    2  A    between atoms: C_1  and  C_11 
REMARK    3  A    between atoms: C_1  and  N_3 
REMARK       I    between atoms: N_3  and  C_12 
REMARK    4  A    between atoms: C_5  and  C_15 
REMARK    5  A    between atoms: N_8  and  C_9 
REMARK    6  A    between atoms: C_9  and  C_12 
ROOT
HETATM    1  N           1     -27.913  -6.717 -17.186  0.00  0.00    -0.345 N 
HETATM    2  O           1     -27.974  -7.505 -15.097  0.00  0.00    -0.272 OA
HETATM    3  C           1     -27.315  -7.042 -15.997  0.00  0.00     0.243 C 
HETATM    4  H           1     -27.361  -6.329 -17.940  0.00  0.00     0.163 HD
ENDROOT
BRANCH   1   5
HETATM    5  C           1     -29.336  -6.928 -17.363  0.00  0.00     0.189 C 
BRANCH   5   6
HETATM    6  C           1     -30.035  -5.582 -17.500  0.00  0.00     0.014 C 
HETATM    7  C           1     -30.429  -5.073 -16.120  0.00  0.00     0.012 C 
BRANCH   6   8
HETATM    8  C           1     -29.091  -4.586 -18.160  0.00  0.00     0.002 C 
HETATM    9  C           1     -29.031  -3.313 -17.326  0.00  0.00     0.005 C 
ENDBRANCH   6   8
ENDBRANCH   5   6
BRANCH   5  10
HETATM   10  C           1     -29.571  -7.747 -18.609  0.00  0.00     0.197 C 
HETATM   11  O           1     -28.639  -7.931 -19.421  0.00  0.00    -0.646 OA
HETATM   12  O           1     -30.698  -8.242 -18.828  0.00  0.00    -0.646 OA
ENDBRANCH   5  10
ENDBRANCH   1   5
BRANCH   3  13
HETATM   13  C           1     -25.834  -6.821 -15.813  0.00  0.00     0.332 C 
BRANCH  13  14
HETATM   14  N           1     -25.124  -7.080 -17.110  0.00  0.00    -0.071 N 
HETATM   15  H           1     -24.652  -6.204 -17.430  0.00  0.00     0.274 HD
HETATM   16  H           1     -24.411  -7.831 -16.973  0.00  0.00     0.274 HD
HETATM   17  H           1     -25.818  -7.385 -17.831  0.00  0.00     0.274 HD
ENDBRANCH  13  14
ENDBRANCH   3  13
TORSDOF 6
ENDMDL
MODEL 3
REMARK VINA RESULT:      -5.6      1.833      2.388
REMARK  6 active torsions:
REMARK  status: ('A' for Active; 'I' for Inactive)
REMARK    1  A    between atoms: C_1  and  C_15 
REMARK    2  A    between atoms: C_1  and  C_11 
REMARK    3  A    between atoms: C_1  and  N_3 
REMARK       I    between atoms: N_3  and  C_12 
REMARK    4  A    between atoms: C_5  and  C_15 
REMARK    5  A    between atoms: N_8  and  C_9 
REMARK    6  A    between atoms: C_9  and  C_12 
ROOT
HETATM    1  N           1     -26.505  -6.637 -18.213  0.00  0.00    -0.345 N 
HETATM    2  O           1     -24.284  -6.419 -18.151  0.00  0.00    -0.272 OA
HETATM    3  C           1     -25.259  -6.796 -18.757  0.00  0.00     0.243 C 
HETATM    4  H           1     -27.323  -6.952 -18.720  0.00  0.00     0.163 HD
ENDROOT
BRANCH   1   5
HETATM    5  C           1     -26.655  -6.014 -16.912  0.00  0.00     0.189 C 
BRANCH   5   6
HETATM    6  C           1     -28.031  -5.369 -16.814  0.00  0.00     0.014 C 
HETATM    7  C           1     -27.873  -3.863 -16.654  0.00  0.00     0.012 C 
BRANCH   6   8
HETATM    8  C           1     -28.821  -5.666 -18.081  0.00  0.00     0.002 C 
HETATM    9  C           1     -29.682  -4.461 -18.437  0.00  0.00     0.005 C 
ENDBRANCH   6   8
ENDBRANCH   5   6
BRANCH   5  10
HETATM   10  C           1     -26.513  -7.063 -15.835  0.00  0.00     0.197 C 
HETATM   11  O           1     -25.377  -7.420 -15.456  0.00  0.00    -0.646 OA
HETATM   12  O           1     -27.532  -7.574 -15.323  0.00  0.00    -0.646 OA
ENDBRANCH   5  10
ENDBRANCH   1   5
BRANCH   3  13
HETATM   13  C           1     -25.104  -7.443 -20.111  0.00  0.00     0.332 C 
BRANCH  13  14
HETATM   14  N           1     -23.737  -8.051 -20.221  0.00  0.00    -0.071 N 
HETATM   15  H           1     -23.763  -8.847 -20.899  0.00  0.00     0.274 HD
HETATM   16  H           1     -23.060  -7.330 -20.558  0.00  0.00     0.274 HD
HETATM   17  H           1     -23.435  -8.402 -19.284  0.00  0.00     0.274 HD
ENDBRANCH  13  14
ENDBRANCH   3  13
TORSDOF 6
ENDMDL
MODEL 4
REMARK VINA RESULT:      -5.2      8.503      9.875
REMARK  6 active torsions:
REMARK  status: ('A' for Active; 'I' for Inactive)
REMARK    1  A    between atoms: C_1  and  C_15 
REMARK    2  A    between atoms: C_1  and  C_11 
REMARK    3  A    between atoms: C_1  and  N_3 
REMARK       I    between atoms: N_3  and  C_12 
REMARK    4  A    between atoms: C_5  and  C_15 
REMARK    5  A    between atoms: N_8  and  C_9 
REMARK    6  A    between atoms: C_9  and  C_12 
ROOT
HETATM    1  N           1     -22.666  -4.533  -8.751  0.00  0.00    -0.345 N 
HETATM    2  O           1     -21.594  -3.151  -7.363  0.00  0.00    -0.272 OA
HETATM    3  C           1     -22.022  -4.261  -7.573  0.00  0.00     0.243 C 
HETATM    4  H           1     -23.025  -5.463  -8.928  0.00  0.00     0.163 HD
ENDROOT
BRANCH   1   5
HETATM    5  C           1     -22.831  -3.491  -9.745  0.00  0.00     0.189 C 
BRANCH   5   6
HETATM    6  C           1     -22.003  -3.830 -10.978  0.00  0.00     0.014 C 
HETATM    7  C           1     -21.159  -2.623 -11.368  0.00  0.00     0.012 C 
BRANCH   6   8
HETATM    8  C           1     -21.090  -5.008 -10.666  0.00  0.00     0.002 C 
HETATM    9  C           1     -19.655  -4.517 -10.524  0.00  0.00     0.005 C 
ENDBRANCH   6   8
ENDBRANCH   5   6
BRANCH   5  10
HETATM   10  C           1     -24.287  -3.391 -10.130  0.00  0.00     0.197 C 
HETATM   11  O           1     -24.684  -3.879 -11.210  0.00  0.00    -0.646 OA
HETATM   12  O           1     -25.097  -2.820  -9.367  0.00  0.00    -0.646 OA
ENDBRANCH   5  10
ENDBRANCH   1   5
BRANCH   3  13
HETATM   13  C           1     -21.850  -5.346  -6.539  0.00  0.00     0.332 C 
BRANCH  13  14
HETATM   14  N           1     -20.921  -6.398  -7.068  0.00  0.00    -0.071 N 
HETATM   15  H           1     -20.295  -5.979  -7.793  0.00  0.00     0.274 HD
HETATM   16  H           1     -20.342  -6.777  -6.286  0.00  0.00     0.274 HD
HETATM   17  H           1     -21.479  -7.171  -7.497  0.00  0.00     0.274 HD
ENDBRANCH  13  14
ENDBRANCH   3  13
TORSDOF 6
ENDMDL
MODEL 5
REMARK VINA RESULT:      -5.1      2.574      3.417
REMARK  6 active torsions:
REMARK  status: ('A' for Active; 'I' for Inactive)
REMARK    1  A    between atoms: C_1  and  C_15 
REMARK    2  A    between atoms: C_1  and  C_11 
REMARK    3  A    between atoms: C_1  and  N_3 
REMARK       I    between atoms: N_3  and  C_12 
REMARK    4  A    between atoms: C_5  and  C_15 
REMARK    5  A    between atoms: N_8  and  C_9 
REMARK    6  A    between atoms: C_9  and  C_12 
ROOT
HETATM    1  N           1     -27.579  -6.922 -19.232  0.00  0.00    -0.345 N 
HETATM    2  O           1     -26.033  -5.975 -20.535  0.00  0.00    -0.272 OA
HETATM    3  C           1     -26.696  -6.952 -20.277  0.00  0.00     0.243 C 
HETATM    4  H           1     -28.135  -7.739 -19.016  0.00  0.00     0.163 HD
ENDROOT
BRANCH   1   5
HETATM    5  C           1     -27.721  -5.719 -18.436  0.00  0.00     0.189 C 
BRANCH   5   6
HETATM    6  C           1     -29.184  -5.297 -18.409  0.00  0.00     0.014 C 
HETATM    7  C           1     -30.052  -6.503 -18.079  0.00  0.00     0.012 C 
BRANCH   6   8
HETATM    8  C           1     -29.382  -4.222 -17.348  0.00  0.00     0.002 C 
HETATM    9  C           1     -30.737  -3.556 -17.545  0.00  0.00     0.005 C 
ENDBRANCH   6   8
ENDBRANCH   5   6
BRANCH   5  10
HETATM   10  C           1     -27.250  -5.991 -17.028  0.00  0.00     0.197 C 
HETATM   11  O           1     -26.428  -5.223 -16.483  0.00  0.00    -0.646 OA
HETATM   12  O           1     -27.682  -6.986 -16.406  0.00  0.00    -0.646 OA
ENDBRANCH   5  10
ENDBRANCH   1   5
BRANCH   3  13
HETATM   13  C           1     -26.550  -8.203 -21.106  0.00  0.00     0.332 C 
BRANCH  13  14
HETATM   14  N           1     -27.800  -9.025 -20.997  0.00  0.00    -0.071 N 
HETATM   15  H           1     -27.589  -9.917 -20.494  0.00  0.00     0.274 HD
HETATM   16  H           1     -28.524  -8.489 -20.467  0.00  0.00     0.274 HD
HETATM   17  H           1     -28.158  -9.243 -21.955  0.00  0.00     0.274 HD
ENDBRANCH  13  14
ENDBRANCH   3  13
TORSDOF 6
ENDMDL
MODEL 6
REMARK VINA RESULT:      -5.0      9.317     10.966
REMARK  6 active torsions:
REMARK  status: ('A' for Active; 'I' for Inactive)
REMARK    1  A    between atoms: C_1  and  C_15 
REMARK    2  A    between atoms: C_1  and  C_11 
REMARK    3  A    between atoms: C_1  and  N_3 
REMARK       I    between atoms: N_3  and  C_12 
REMARK    4  A    between atoms: C_5  and  C_15 
REMARK    5  A    between atoms: N_8  and  C_9 
REMARK    6  A    between atoms: C_9  and  C_12 
ROOT
HETATM    1  N           1     -22.461  -4.174  -8.699  0.00  0.00    -0.345 N 
HETATM    2  O           1     -23.813  -5.250 -10.113  0.00  0.00    -0.272 OA
HETATM    3  C           1     -23.574  -4.241  -9.494  0.00  0.00     0.243 C 
HETATM    4  H           1     -22.260  -3.328  -8.181  0.00  0.00     0.163 HD
ENDROOT
BRANCH   1   5
HETATM    5  C           1     -21.570  -5.314  -8.601  0.00  0.00     0.189 C 
BRANCH   5   6
HETATM    6  C           1     -20.168  -4.900  -9.028  0.00  0.00     0.014 C 
HETATM    7  C           1     -20.197  -4.435 -10.478  0.00  0.00     0.012 C 
BRANCH   6   8
HETATM    8  C           1     -19.683  -3.763  -8.140  0.00  0.00     0.002 C 
HETATM    9  C           1     -18.426  -4.197  -7.398  0.00  0.00     0.005 C 
ENDBRANCH   6   8
ENDBRANCH   5   6
BRANCH   5  10
HETATM   10  C           1     -21.537  -5.803  -7.174  0.00  0.00     0.197 C 
HETATM   11  O           1     -22.224  -5.231  -6.300  0.00  0.00    -0.646 OA
HETATM   12  O           1     -20.823  -6.782  -6.865  0.00  0.00    -0.646 OA
ENDBRANCH   5  10
ENDBRANCH   1   5
BRANCH   3  13
HETATM   13  C           1     -24.500  -3.055  -9.597  0.00  0.00     0.332 C 
BRANCH  13  14
HETATM   14  N           1     -25.923  -3.531  -9.623  0.00  0.00    -0.071 N 
HETATM   15  H           1     -26.092  -4.076 -10.499  0.00  0.00     0.274 HD
HETATM   16  H           1     -26.101  -4.140  -8.793  0.00  0.00     0.274 HD
HETATM   17  H           1     -26.566  -2.707  -9.597  0.00  0.00     0.274 HD
ENDBRANCH  13  14
ENDBRANCH   3  13
TORSDOF 6
ENDMDL
MODEL 7
REMARK VINA RESULT:      -4.9      2.324      2.811
REMARK  6 active torsions:
REMARK  status: ('A' for Active; 'I' for Inactive)
REMARK    1  A    between atoms: C_1  and  C_15 
REMARK    2  A    between atoms: C_1  and  C_11 
REMARK    3  A    between atoms: C_1  and  N_3 
REMARK       I    between atoms: N_3  and  C_12 
REMARK    4  A    between atoms: C_5  and  C_15 
REMARK    5  A    between atoms: N_8  and  C_9 
REMARK    6  A    between atoms: C_9  and  C_12 
ROOT
HETATM    1  N           1     -26.821  -6.261 -17.803  0.00  0.00    -0.345 N 
HETATM    2  O           1     -26.760  -6.528 -20.019  0.00  0.00    -0.272 OA
HETATM    3  C           1     -26.163  -6.546 -18.969  0.00  0.00     0.243 C 
HETATM    4  H           1     -26.321  -6.276 -16.923  0.00  0.00     0.163 HD
ENDROOT
BRANCH   1   5
HETATM    5  C           1     -28.234  -5.938 -17.828  0.00  0.00     0.189 C 
BRANCH   5   6
HETATM    6  C           1     -28.979  -6.841 -16.854  0.00  0.00     0.014 C 
HETATM    7  C           1     -29.015  -6.183 -15.481  0.00  0.00     0.012 C 
BRANCH   6   8
HETATM    8  C           1     -30.401  -7.059 -17.351  0.00  0.00     0.002 C 
HETATM    9  C           1     -30.368  -7.807 -18.677  0.00  0.00     0.005 C 
ENDBRANCH   6   8
ENDBRANCH   5   6
BRANCH   5  10
HETATM   10  C           1     -28.427  -4.496 -17.425  0.00  0.00     0.197 C 
HETATM   11  O           1     -27.598  -3.941 -16.672  0.00  0.00    -0.646 OA
HETATM   12  O           1     -29.416  -3.856 -17.845  0.00  0.00    -0.646 OA
ENDBRANCH   5  10
ENDBRANCH   1   5
BRANCH   3  13
HETATM   13  C           1     -24.693  -6.883 -18.942  0.00  0.00     0.332 C 
BRANCH  13  14
HETATM   14  N           1     -24.411  -7.977 -19.930  0.00  0.00    -0.071 N 
HETATM   15  H           1     -23.718  -7.639 -20.636  0.00  0.00     0.274 HD
HETATM   16  H           1     -24.023  -8.807 -19.430  0.00  0.00     0.274 HD
HETATM   17  H           1     -25.298  -8.244 -20.415  0.00  0.00     0.274 HD
ENDBRANCH  13  14
ENDBRANCH   3  13
TORSDOF 6
ENDMDL
MODEL 8
REMARK VINA RESULT:      -4.9      9.020     10.472
REMARK  6 active torsions:
REMARK  status: ('A' for Active; 'I' for Inactive)
REMARK    1  A    between atoms: C_1  and  C_15 
REMARK    2  A    between atoms: C_1  and  C_11 
REMARK    3  A    between atoms: C_1  and  N_3 
REMARK       I    between atoms: N_3  and  C_12 
REMARK    4  A    between atoms: C_5  and  C_15 
REMARK    5  A    between atoms: N_8  and  C_9 
REMARK    6  A    between atoms: C_9  and  C_12 
ROOT
HETATM    1  N           1     -21.369  -4.130  -8.293  0.00  0.00    -0.345 N 
HETATM    2  O           1     -20.651  -6.141  -7.642  0.00  0.00    -0.272 OA
HETATM    3  C           1     -20.877  -4.991  -7.349  0.00  0.00     0.243 C 
HETATM    4  H           1     -21.559  -3.166  -8.048  0.00  0.00     0.163 HD
ENDROOT
BRANCH   1   5
HETATM    5  C           1     -21.618  -4.597  -9.642  0.00  0.00     0.189 C 
BRANCH   5   6
HETATM    6  C           1     -22.877  -3.933 -10.184  0.00  0.00     0.014 C 
HETATM    7  C           1     -23.517  -4.838 -11.228  0.00  0.00     0.012 C 
BRANCH   6   8
HETATM    8  C           1     -23.858  -3.699  -9.044  0.00  0.00     0.002 C 
HETATM    9  C           1     -25.175  -3.178  -9.603  0.00  0.00     0.005 C 
ENDBRANCH   6   8
ENDBRANCH   5   6
BRANCH   5  10
HETATM   10  C           1     -20.444  -4.242 -10.521  0.00  0.00     0.197 C 
HETATM   11  O           1     -19.490  -5.040 -10.644  0.00  0.00    -0.646 OA
HETATM   12  O           1     -20.425  -3.148 -11.127  0.00  0.00    -0.646 OA
ENDBRANCH   5  10
ENDBRANCH   1   5
BRANCH   3  13
HETATM   13  C           1     -20.619  -4.505  -5.945  0.00  0.00     0.332 C 
BRANCH  13  14
HETATM   14  N           1     -20.878  -5.619  -4.973  0.00  0.00    -0.071 N 
HETATM   15  H           1     -20.025  -6.218  -4.894  0.00  0.00     0.274 HD
HETATM   16  H           1     -21.110  -5.218  -4.037  0.00  0.00     0.274 HD
HETATM   17  H           1     -21.679  -6.198  -5.314  0.00  0.00     0.274 HD
ENDBRANCH  13  14
ENDBRANCH   3  13
TORSDOF 6
ENDMDL
MODEL 9
REMARK VINA RESULT:      -4.8     12.684     14.168
REMARK  6 active torsions:
REMARK  status: ('A' for Active; 'I' for Inactive)
REMARK    1  A    between atoms: C_1  and  C_15 
REMARK    2  A    between atoms: C_1  and  C_11 
REMARK    3  A    between atoms: C_1  and  N_3 
REMARK       I    between atoms: N_3  and  C_12 
REMARK    4  A    between atoms: C_5  and  C_15 
REMARK    5  A    between atoms: N_8  and  C_9 
REMARK    6  A    between atoms: C_9  and  C_12 
ROOT
HETATM    1  N           1     -21.803  -6.450  -5.334  0.00  0.00    -0.345 N 
HETATM    2  O           1     -20.281  -5.040  -6.159  0.00  0.00    -0.272 OA
HETATM    3  C           1     -21.437  -5.387  -6.116  0.00  0.00     0.243 C 
HETATM    4  H           1     -22.772  -6.741  -5.297  0.00  0.00     0.163 HD
ENDROOT
BRANCH   1   5
HETATM    5  C           1     -20.804  -7.157  -4.556  0.00  0.00     0.189 C 
BRANCH   5   6
HETATM    6  C           1     -21.404  -7.574  -3.220  0.00  0.00     0.014 C 
HETATM    7  C           1     -20.332  -8.246  -2.372  0.00  0.00     0.012 C 
BRANCH   6   8
HETATM    8  C           1     -21.928  -6.343  -2.493  0.00  0.00     0.002 C 
HETATM    9  C           1     -22.329  -6.721  -1.073  0.00  0.00     0.005 C 
ENDBRANCH   6   8
ENDBRANCH   5   6
BRANCH   5  10
HETATM   10  C           1     -20.357  -8.384  -5.312  0.00  0.00     0.197 C 
HETATM   11  O           1     -19.153  -8.525  -5.619  0.00  0.00    -0.646 OA
HETATM   12  O           1     -21.190  -9.260  -5.631  0.00  0.00    -0.646 OA
ENDBRANCH   5  10
ENDBRANCH   1   5
BRANCH   3  13
HETATM   13  C           1     -22.477  -4.652  -6.924  0.00  0.00     0.332 C 
BRANCH  13  14
HETATM   14  N           1     -21.891  -3.375  -7.451  0.00  0.00    -0.071 N 
HETATM   15  H           1     -20.921  -3.554  -7.800  0.00  0.00     0.274 HD
HETATM   16  H           1     -22.482  -3.017  -8.234  0.00  0.00     0.274 HD
HETATM   17  H           1     -21.858  -2.665  -6.684  0.00  0.00     0.274 HD
ENDBRANCH  13  14
ENDBRANCH   3  13
TORSDOF 6
ENDMDL
