MODEL 1
REMARK VINA RESULT:      -5.3      0.000      0.000
REMARK  4 active torsions:
REMARK  status: ('A' for Active; 'I' for Inactive)
REMARK       I    between atoms: C_2  and  N_14 
REMARK    1  A    between atoms: C_2  and  C_3 
REMARK    2  A    between atoms: C_3  and  N_5 
REMARK    3  A    between atoms: C_11  and  C_13 
REMARK    4  A    between atoms: C_13  and  N_14 
ROOT
HETATM    1  C           1     -28.689  -6.319 -18.105  0.00  0.00     0.248 C 
HETATM    2  O           1     -28.441  -5.319 -18.736  0.00  0.00    -0.271 OA
HETATM    3  H           1     -28.096  -7.518 -16.525  0.00  0.00     0.163 HD
HETATM    4  N           1     -27.889  -6.680 -17.055  0.00  0.00    -0.349 N 
ENDROOT
BRANCH   1   5
HETATM    5  C           1     -29.881  -7.168 -18.473  0.00  0.00     0.270 C 
HETATM    6  C           1     -30.981  -6.978 -17.437  0.00  0.00     0.050 C 
BRANCH   5   7
HETATM    7  N           1     -29.473  -8.611 -18.510  0.00  0.00    -0.067 N 
HETATM    8  H           1     -29.051  -8.830 -19.440  0.00  0.00     0.275 HD
HETATM    9  H           1     -28.772  -8.794 -17.758  0.00  0.00     0.275 HD
HETATM   10  H           1     -30.313  -9.214 -18.358  0.00  0.00     0.275 HD
ENDBRANCH   5   7
ENDBRANCH   1   5
BRANCH   4  11
HETATM   11  C           1     -26.744  -5.864 -16.701  0.00  0.00     0.235 C 
BRANCH  11  12
HETATM   12  C           1     -25.571  -6.755 -16.372  0.00  0.00     0.191 C 
HETATM   13  O           1     -25.581  -7.439 -15.326  0.00  0.00    -0.647 OA
HETATM   14  O           1     -24.591  -6.809 -17.145  0.00  0.00    -0.647 OA
ENDBRANCH  11  12
ENDBRANCH   4  11
TORSDOF 4
ENDMDL
MODEL 2
REMARK VINA RESULT:      -5.3      2.234      2.697
REMARK  4 active torsions:
REMARK  status: ('A' for Active; 'I' for Inactive)
REMARK       I    between atoms: C_2  and  N_14 
REMARK    1  A    between atoms: C_2  and  C_3 
REMARK    2  A    between atoms: C_3  and  N_5 
REMARK    3  A    between atoms: C_11  and  C_13 
REMARK    4  A    between atoms: C_13  and  N_14 
ROOT
HETATM    1  C           1     -28.799  -4.526 -16.815  0.00  0.00     0.248 C 
HETATM    2  O           1     -28.020  -3.643 -16.547  0.00  0.00    -0.271 OA
HETATM    3  H           1     -29.000  -6.546 -17.223  0.00  0.00     0.163 HD
HETATM    4  N           1     -28.348  -5.805 -16.999  0.00  0.00    -0.349 N 
ENDROOT
BRANCH   1   5
HETATM    5  C           1     -30.272  -4.220 -16.946  0.00  0.00     0.270 C 
HETATM    6  C           1     -31.043  -5.514 -17.170  0.00  0.00     0.050 C 
BRANCH   5   7
HETATM    7  N           1     -30.488  -3.301 -18.111  0.00  0.00    -0.067 N 
HETATM    8  H           1     -31.034  -2.466 -17.800  0.00  0.00     0.275 HD
HETATM    9  H           1     -29.564  -2.992 -18.488  0.00  0.00     0.275 HD
HETATM   10  H           1     -31.018  -3.806 -18.858  0.00  0.00     0.275 HD
ENDBRANCH   5   7
ENDBRANCH   1   5
BRANCH   4  11
HETATM   11  C           1     -26.933  -6.100 -16.873  0.00  0.00     0.235 C 
BRANCH  11  12
HETATM   12  C           1     -26.716  -7.050 -15.721  0.00  0.00     0.191 C 
HETATM   13  O           1     -25.557  -7.395 -15.406  0.00  0.00    -0.647 OA
HETATM   14  O           1     -27.696  -7.490 -15.082  0.00  0.00    -0.647 OA
ENDBRANCH  11  12
ENDBRANCH   4  11
TORSDOF 4
ENDMDL
MODEL 3
REMARK VINA RESULT:      -5.1      2.125      2.480
REMARK  4 active torsions:
REMARK  status: ('A' for Active; 'I' for Inactive)
REMARK       I    between atoms: C_2  and  N_14 
REMARK    1  A    between atoms: C_2  and  C_3 
REMARK    2  A    between atoms: C_3  and  N_5 
REMARK    3  A    between atoms: C_11  and  C_13 
REMARK    4  A    between atoms: C_13  and  N_14 
ROOT
HETATM    1  C           1     -29.560  -6.469 -16.961  0.00  0.00     0.248 C 
HETATM    2  O           1     -29.605  -7.573 -17.451  0.00  0.00    -0.271 OA
HETATM    3  H           1     -28.593  -5.262 -15.586  0.00  0.00     0.163 HD
HETATM    4  N           1     -28.632  -6.186 -15.996  0.00  0.00    -0.349 N 
ENDROOT
BRANCH   1   5
HETATM    5  C           1     -30.527  -5.402 -17.414  0.00  0.00     0.270 C 
HETATM    6  C           1     -29.750  -4.203 -17.943  0.00  0.00     0.050 C 
BRANCH   5   7
HETATM    7  N           1     -31.377  -4.975 -16.256  0.00  0.00    -0.067 N 
HETATM    8  H           1     -31.757  -5.819 -15.772  0.00  0.00     0.275 HD
HETATM    9  H           1     -30.799  -4.420 -15.585  0.00  0.00     0.275 HD
HETATM   10  H           1     -32.168  -4.386 -16.603  0.00  0.00     0.275 HD
ENDBRANCH   5   7
ENDBRANCH   1   5
BRANCH   4  11
HETATM   11  C           1     -27.702  -7.211 -15.561  0.00  0.00     0.235 C 
BRANCH  11  12
HETATM   12  C           1     -26.288  -6.746 -15.804  0.00  0.00     0.191 C 
HETATM   13  O           1     -26.079  -5.667 -16.399  0.00  0.00    -0.647 OA
HETATM   14  O           1     -25.326  -7.439 -15.410  0.00  0.00    -0.647 OA
ENDBRANCH  11  12
ENDBRANCH   4  11
TORSDOF 4
ENDMDL
MODEL 4
REMARK VINA RESULT:      -5.0      9.345     11.501
REMARK  4 active torsions:
REMARK  status: ('A' for Active; 'I' for Inactive)
REMARK       I    between atoms: C_2  and  N_14 
REMARK    1  A    between atoms: C_2  and  C_3 
REMARK    2  A    between atoms: C_3  and  N_5 
REMARK    3  A    between atoms: C_11  and  C_13 
REMARK    4  A    between atoms: C_13  and  N_14 
ROOT
HETATM    1  C           1     -22.089  -4.607  -7.376  0.00  0.00     0.248 C 
HETATM    2  O           1     -22.923  -4.759  -6.515  0.00  0.00    -0.271 OA
HETATM    3  H           1     -21.768  -4.099  -9.357  0.00  0.00     0.163 HD
HETATM    4  N           1     -22.467  -4.227  -8.635  0.00  0.00    -0.349 N 
ENDROOT
BRANCH   1   5
HETATM    5  C           1     -20.631  -4.836  -7.062  0.00  0.00     0.270 C 
HETATM    6  C           1     -19.770  -4.071  -8.059  0.00  0.00     0.050 C 
BRANCH   5   7
HETATM    7  N           1     -20.323  -6.300  -7.158  0.00  0.00    -0.067 N 
HETATM    8  H           1     -21.216  -6.843  -7.192  0.00  0.00     0.275 HD
HETATM    9  H           1     -19.771  -6.485  -8.025  0.00  0.00     0.275 HD
HETATM   10  H           1     -19.769  -6.595  -6.323  0.00  0.00     0.275 HD
ENDBRANCH   5   7
ENDBRANCH   1   5
BRANCH   4  11
HETATM   11  C           1     -23.868  -4.007  -8.937  0.00  0.00     0.235 C 
BRANCH  11  12
HETATM   12  C           1     -24.002  -3.444 -10.330  0.00  0.00     0.191 C 
HETATM   13  O           1     -25.135  -3.194 -10.797  0.00  0.00    -0.647 OA
HETATM   14  O           1     -22.981  -3.228 -11.017  0.00  0.00    -0.647 OA
ENDBRANCH  11  12
ENDBRANCH   4  11
TORSDOF 4
ENDMDL
MODEL 5
REMARK VINA RESULT:      -4.7      2.828      3.460
REMARK  4 active torsions:
REMARK  status: ('A' for Active; 'I' for Inactive)
REMARK       I    between atoms: C_2  and  N_14 
REMARK    1  A    between atoms: C_2  and  C_3 
REMARK    2  A    between atoms: C_3  and  N_5 
REMARK    3  A    between atoms: C_11  and  C_13 
REMARK    4  A    between atoms: C_13  and  N_14 
ROOT
HETATM    1  C           1     -26.282  -6.685 -19.290  0.00  0.00     0.248 C 
HETATM    2  O           1     -27.388  -6.302 -19.589  0.00  0.00    -0.271 OA
HETATM    3  H           1     -24.952  -6.980 -17.732  0.00  0.00     0.163 HD
HETATM    4  N           1     -25.879  -6.659 -17.983  0.00  0.00    -0.349 N 
ENDROOT
BRANCH   1   5
HETATM    5  C           1     -25.345  -7.193 -20.359  0.00  0.00     0.270 C 
HETATM    6  C           1     -25.119  -6.101 -21.398  0.00  0.00     0.050 C 
BRANCH   5   7
HETATM    7  N           1     -25.948  -8.395 -21.022  0.00  0.00    -0.067 N 
HETATM    8  H           1     -26.362  -8.117 -21.940  0.00  0.00     0.275 HD
HETATM    9  H           1     -25.208  -9.116 -21.178  0.00  0.00     0.275 HD
HETATM   10  H           1     -26.696  -8.792 -20.409  0.00  0.00     0.275 HD
ENDBRANCH   5   7
ENDBRANCH   1   5
BRANCH   4  11
HETATM   11  C           1     -26.779  -6.171 -16.956  0.00  0.00     0.235 C 
BRANCH  11  12
HETATM   12  C           1     -26.664  -7.042 -15.729  0.00  0.00     0.191 C 
HETATM   13  O           1     -27.695  -7.428 -15.137  0.00  0.00    -0.647 OA
HETATM   14  O           1     -25.537  -7.377 -15.304  0.00  0.00    -0.647 OA
ENDBRANCH  11  12
ENDBRANCH   4  11
TORSDOF 4
ENDMDL
MODEL 6
REMARK VINA RESULT:      -4.6      2.772      4.384
REMARK  4 active torsions:
REMARK  status: ('A' for Active; 'I' for Inactive)
REMARK       I    between atoms: C_2  and  N_14 
REMARK    1  A    between atoms: C_2  and  C_3 
REMARK    2  A    between atoms: C_3  and  N_5 
REMARK    3  A    between atoms: C_11  and  C_13 
REMARK    4  A    between atoms: C_13  and  N_14 
ROOT
HETATM    1  C           1     -26.160  -6.614 -19.339  0.00  0.00     0.248 C 
HETATM    2  O           1     -26.864  -6.551 -20.319  0.00  0.00    -0.271 OA
HETATM    3  H           1     -26.113  -6.481 -17.274  0.00  0.00     0.163 HD
HETATM    4  N           1     -26.701  -6.429 -18.096  0.00  0.00    -0.349 N 
ENDROOT
BRANCH   1   5
HETATM    5  C           1     -24.685  -6.896 -19.486  0.00  0.00     0.270 C 
HETATM    6  C           1     -24.464  -7.863 -20.642  0.00  0.00     0.050 C 
BRANCH   5   7
HETATM    7  N           1     -24.165  -7.506 -18.219  0.00  0.00    -0.067 N 
HETATM    8  H           1     -23.143  -7.698 -18.317  0.00  0.00     0.275 HD
HETATM    9  H           1     -24.320  -6.846 -17.424  0.00  0.00     0.275 HD
HETATM   10  H           1     -24.671  -8.402 -18.031  0.00  0.00     0.275 HD
ENDBRANCH   5   7
ENDBRANCH   1   5
BRANCH   4  11
HETATM   11  C           1     -28.119  -6.157 -17.955  0.00  0.00     0.235 C 
BRANCH  11  12
HETATM   12  C           1     -28.316  -4.744 -17.464  0.00  0.00     0.191 C 
HETATM   13  O           1     -29.163  -4.005 -18.011  0.00  0.00    -0.647 OA
HETATM   14  O           1     -27.633  -4.313 -16.511  0.00  0.00    -0.647 OA
ENDBRANCH  11  12
ENDBRANCH   4  11
TORSDOF 4
ENDMDL
MODEL 7
REMARK VINA RESULT:      -4.6      3.310      5.182
REMARK  4 active torsions:
REMARK  status: ('A' for Active; 'I' for Inactive)
REMARK       I    between atoms: C_2  and  N_14 
REMARK    1  A    between atoms: C_2  and  C_3 
REMARK    2  A    between atoms: C_3  and  N_5 
REMARK    3  A    between atoms: C_11  and  C_13 
REMARK    4  A    between atoms: C_13  and  N_14 
ROOT
HETATM    1  C           1     -30.255  -6.460 -17.072  0.00  0.00     0.248 C 
HETATM    2  O           1     -30.851  -7.042 -17.947  0.00  0.00    -0.271 OA
HETATM    3  H           1     -30.340  -4.910 -15.704  0.00  0.00     0.163 HD
HETATM    4  N           1     -30.838  -5.397 -16.437  0.00  0.00    -0.349 N 
ENDROOT
BRANCH   1   5
HETATM    5  C           1     -28.868  -6.907 -16.678  0.00  0.00     0.270 C 
HETATM    6  C           1     -28.347  -6.018 -15.556  0.00  0.00     0.050 C 
BRANCH   5   7
HETATM    7  N           1     -27.955  -6.801 -17.863  0.00  0.00    -0.067 N 
HETATM    8  H           1     -28.488  -7.020 -18.735  0.00  0.00     0.275 HD
HETATM    9  H           1     -27.573  -5.831 -17.924  0.00  0.00     0.275 HD
HETATM   10  H           1     -27.167  -7.480 -17.757  0.00  0.00     0.275 HD
ENDBRANCH   5   7
ENDBRANCH   1   5
BRANCH   4  11
HETATM   11  C           1     -32.171  -4.969 -16.816  0.00  0.00     0.235 C 
BRANCH  11  12
HETATM   12  C           1     -32.116  -3.556 -17.344  0.00  0.00     0.191 C 
HETATM   13  O           1     -33.175  -2.931 -17.568  0.00  0.00    -0.647 OA
HETATM   14  O           1     -31.012  -3.012 -17.558  0.00  0.00    -0.647 OA
ENDBRANCH  11  12
ENDBRANCH   4  11
TORSDOF 4
ENDMDL
MODEL 8
REMARK VINA RESULT:      -4.6      2.829      3.669
REMARK  4 active torsions:
REMARK  status: ('A' for Active; 'I' for Inactive)
REMARK       I    between atoms: C_2  and  N_14 
REMARK    1  A    between atoms: C_2  and  C_3 
REMARK    2  A    between atoms: C_3  and  N_5 
REMARK    3  A    between atoms: C_11  and  C_13 
REMARK    4  A    between atoms: C_13  and  N_14 
ROOT
HETATM    1  C           1     -27.887  -6.076 -18.353  0.00  0.00     0.248 C 
HETATM    2  O           1     -28.565  -5.301 -18.985  0.00  0.00    -0.271 OA
HETATM    3  H           1     -26.317  -7.422 -18.445  0.00  0.00     0.163 HD
HETATM    4  N           1     -26.886  -6.773 -18.973  0.00  0.00    -0.349 N 
ENDROOT
BRANCH   1   5
HETATM    5  C           1     -28.142  -6.273 -16.878  0.00  0.00     0.270 C 
HETATM    6  C           1     -28.314  -4.917 -16.206  0.00  0.00     0.050 C 
BRANCH   5   7
HETATM    7  N           1     -26.979  -6.991 -16.262  0.00  0.00    -0.067 N 
HETATM    8  H           1     -27.270  -7.956 -15.987  0.00  0.00     0.275 HD
HETATM    9  H           1     -26.198  -7.048 -16.954  0.00  0.00     0.275 HD
HETATM   10  H           1     -26.656  -6.470 -15.415  0.00  0.00     0.275 HD
ENDBRANCH   5   7
ENDBRANCH   1   5
BRANCH   4  11
HETATM   11  C           1     -26.641  -6.583 -20.390  0.00  0.00     0.235 C 
BRANCH  11  12
HETATM   12  C           1     -26.193  -7.887 -21.004  0.00  0.00     0.191 C 
HETATM   13  O           1     -27.038  -8.677 -21.477  0.00  0.00    -0.647 OA
HETATM   14  O           1     -24.978  -8.176 -21.039  0.00  0.00    -0.647 OA
ENDBRANCH  11  12
ENDBRANCH   4  11
TORSDOF 4
ENDMDL
MODEL 9
REMARK VINA RESULT:      -4.5     10.587     11.938
REMARK  4 active torsions:
REMARK  status: ('A' for Active; 'I' for Inactive)
REMARK       I    between atoms: C_2  and  N_14 
REMARK    1  A    between atoms: C_2  and  C_3 
REMARK    2  A    between atoms: C_3  and  N_5 
REMARK    3  A    between atoms: C_11  and  C_13 
REMARK    4  A    between atoms: C_13  and  N_14 
ROOT
HETATM    1  C           1     -22.653  -4.389  -7.742  0.00  0.00     0.248 C 
HETATM    2  O           1     -23.321  -4.577  -6.752  0.00  0.00    -0.271 OA
HETATM    3  H           1     -20.730  -4.170  -8.474  0.00  0.00     0.163 HD
HETATM    4  N           1     -21.290  -4.327  -7.645  0.00  0.00    -0.349 N 
ENDROOT
BRANCH   1   5
HETATM    5  C           1     -23.324  -4.224  -9.084  0.00  0.00     0.270 C 
HETATM    6  C           1     -22.325  -3.657 -10.085  0.00  0.00     0.050 C 
BRANCH   5   7
HETATM    7  N           1     -24.484  -3.283  -8.950  0.00  0.00    -0.067 N 
HETATM    8  H           1     -24.673  -3.105  -7.938  0.00  0.00     0.275 HD
HETATM    9  H           1     -24.258  -2.381  -9.426  0.00  0.00     0.275 HD
HETATM   10  H           1     -25.330  -3.709  -9.393  0.00  0.00     0.275 HD
ENDBRANCH   5   7
ENDBRANCH   1   5
BRANCH   4  11
HETATM   11  C           1     -20.646  -4.486  -6.355  0.00  0.00     0.235 C 
BRANCH  11  12
HETATM   12  C           1     -20.273  -5.934  -6.153  0.00  0.00     0.191 C 
HETATM   13  O           1     -19.638  -6.545  -7.039  0.00  0.00    -0.647 OA
HETATM   14  O           1     -20.600  -6.522  -5.100  0.00  0.00    -0.647 OA
ENDBRANCH  11  12
ENDBRANCH   4  11
TORSDOF 4
ENDMDL
