MODEL 1
REMARK VINA RESULT:      -5.9      0.000      0.000
REMARK  9 active torsions:
REMARK  status: ('A' for Active; 'I' for Inactive)
REMARK    1  A    between atoms: N_1  and  C_2 
REMARK       I    between atoms: N_1  and  C_6 
REMARK    2  A    between atoms: C_2  and  C_15 
REMARK    3  A    between atoms: C_2  and  C_3 
REMARK    4  A    between atoms: C_5  and  C_7 
REMARK    5  A    between atoms: C_5  and  C_10 
REMARK    6  A    between atoms: C_6  and  C_7 
REMARK    7  A    between atoms: C_7  and  N_18 
REMARK    8  A    between atoms: C_10  and  C_11 
REMARK       I    between atoms: C_11  and  N_12 
REMARK    9  A    between atoms: Se_14  and  C_15 
ROOT
HETATM    1  C           1     -28.874  -6.467 -17.310  0.00  0.00     0.275 C 
ENDROOT
BRANCH   1   2
HETATM    2  C           1     -29.286  -5.152 -16.661  0.00  0.00     0.052 C 
BRANCH   2   3
HETATM    3  C           1     -30.774  -4.918 -16.886  0.00  0.00     0.105 C 
BRANCH   3   4
HETATM    4  C           1     -30.984  -3.547 -17.480  0.00  0.00     0.215 C 
HETATM    5  N           1     -29.908  -2.741 -17.740  0.00  0.00    -0.370 N 
HETATM    6  H           1     -30.048  -1.823 -18.138  0.00  0.00     0.159 HD
HETATM    7  H           1     -28.971  -3.066 -17.534  0.00  0.00     0.159 HD
HETATM    8  O           1     -32.102  -3.160 -17.727  0.00  0.00    -0.274 OA
ENDBRANCH   3   4
ENDBRANCH   2   3
ENDBRANCH   1   2
BRANCH   1   9
HETATM    9  C           1     -28.209  -6.189 -18.635  0.00  0.00     0.249 C 
HETATM   10  N           1     -27.305  -7.080 -19.149  0.00  0.00    -0.345 N 
HETATM   11  H           1     -27.083  -7.926 -18.639  0.00  0.00     0.163 HD
HETATM   12  O           1     -28.475  -5.180 -19.244  0.00  0.00    -0.271 OA
BRANCH  10  13
HETATM   13  C           1     -26.666  -6.812 -20.423  0.00  0.00     0.185 C 
BRANCH  13  14
HETATM   14  C           1     -25.271  -6.252 -20.181  0.00  0.00     0.039 C 
BRANCH  14  15
HETATM   15 Se           1     -24.515  -7.060 -18.577  0.00  0.00     0.000 Se
HETATM   16  H           1     -24.580  -8.435 -19.097  0.00  0.00     0.000 HD
ENDBRANCH  14  15
ENDBRANCH  13  14
BRANCH  13  17
HETATM   17  C           1     -26.565  -8.094 -21.213  0.00  0.00     0.196 C 
HETATM   18  O           1     -27.578  -8.806 -21.381  0.00  0.00    -0.646 OA
HETATM   19  O           1     -25.468  -8.443 -21.699  0.00  0.00    -0.646 OA
ENDBRANCH  13  17
ENDBRANCH  10  13
ENDBRANCH   1   9
BRANCH   1  20
HETATM   20  N           1     -27.914  -7.188 -16.411  0.00  0.00    -0.066 N 
HETATM   21  H           1     -27.185  -7.663 -16.989  0.00  0.00     0.275 HD
HETATM   22  H           1     -27.456  -6.503 -15.769  0.00  0.00     0.275 HD
HETATM   23  H           1     -28.431  -7.900 -15.848  0.00  0.00     0.275 HD
ENDBRANCH   1  20
TORSDOF 9
ENDMDL
MODEL 2
REMARK VINA RESULT:      -5.7     12.559     13.844
REMARK  9 active torsions:
REMARK  status: ('A' for Active; 'I' for Inactive)
REMARK    1  A    between atoms: N_1  and  C_2 
REMARK       I    between atoms: N_1  and  C_6 
REMARK    2  A    between atoms: C_2  and  C_15 
REMARK    3  A    between atoms: C_2  and  C_3 
REMARK    4  A    between atoms: C_5  and  C_7 
REMARK    5  A    between atoms: C_5  and  C_10 
REMARK    6  A    between atoms: C_6  and  C_7 
REMARK    7  A    between atoms: C_7  and  N_18 
REMARK    8  A    between atoms: C_10  and  C_11 
REMARK       I    between atoms: C_11  and  N_12 
REMARK    9  A    between atoms: Se_14  and  C_15 
ROOT
HETATM    1  C           1     -21.183  -5.889  -6.785  0.00  0.00     0.275 C 
ENDROOT
BRANCH   1   2
HETATM    2  C           1     -21.128  -5.628  -5.286  0.00  0.00     0.052 C 
BRANCH   2   3
HETATM    3  C           1     -22.079  -6.578  -4.569  0.00  0.00     0.105 C 
BRANCH   3   4
HETATM    4  C           1     -21.708  -6.656  -3.108  0.00  0.00     0.215 C 
HETATM    5  N           1     -22.344  -5.857  -2.197  0.00  0.00    -0.370 N 
HETATM    6  H           1     -22.096  -5.909  -1.218  0.00  0.00     0.159 HD
HETATM    7  H           1     -23.065  -5.215  -2.503  0.00  0.00     0.159 HD
HETATM    8  O           1     -20.848  -7.423  -2.744  0.00  0.00    -0.274 OA
ENDBRANCH   3   4
ENDBRANCH   2   3
ENDBRANCH   1   2
BRANCH   1   9
HETATM    9  C           1     -21.716  -4.666  -7.491  0.00  0.00     0.249 C 
HETATM   10  N           1     -22.288  -4.785  -8.729  0.00  0.00    -0.345 N 
HETATM   11  H           1     -22.354  -5.693  -9.171  0.00  0.00     0.163 HD
HETATM   12  O           1     -21.638  -3.583  -6.962  0.00  0.00    -0.271 OA
BRANCH  10  13
HETATM   13  C           1     -22.800  -3.609  -9.406  0.00  0.00     0.185 C 
BRANCH  13  14
HETATM   14  C           1     -22.083  -3.441 -10.740  0.00  0.00     0.039 C 
BRANCH  14  15
HETATM   15 Se           1     -20.378  -4.385 -10.685  0.00  0.00     0.000 Se
HETATM   16  H           1     -19.647  -3.269 -10.066  0.00  0.00     0.000 HD
ENDBRANCH  14  15
ENDBRANCH  13  14
BRANCH  13  17
HETATM   17  C           1     -24.280  -3.773  -9.647  0.00  0.00     0.196 C 
HETATM   18  O           1     -25.040  -2.784  -9.564  0.00  0.00    -0.646 OA
HETATM   19  O           1     -24.747  -4.897  -9.931  0.00  0.00    -0.646 OA
ENDBRANCH  13  17
ENDBRANCH  10  13
ENDBRANCH   1   9
BRANCH   1  20
HETATM   20  N           1     -19.804  -6.195  -7.289  0.00  0.00    -0.066 N 
HETATM   21  H           1     -19.820  -6.260  -8.332  0.00  0.00     0.275 HD
HETATM   22  H           1     -19.150  -5.434  -6.998  0.00  0.00     0.275 HD
HETATM   23  H           1     -19.480  -7.104  -6.888  0.00  0.00     0.275 HD
ENDBRANCH   1  20
TORSDOF 9
ENDMDL
MODEL 3
REMARK VINA RESULT:      -5.7      3.024      5.911
REMARK  9 active torsions:
REMARK  status: ('A' for Active; 'I' for Inactive)
REMARK    1  A    between atoms: N_1  and  C_2 
REMARK       I    between atoms: N_1  and  C_6 
REMARK    2  A    between atoms: C_2  and  C_15 
REMARK    3  A    between atoms: C_2  and  C_3 
REMARK    4  A    between atoms: C_5  and  C_7 
REMARK    5  A    between atoms: C_5  and  C_10 
REMARK    6  A    between atoms: C_6  and  C_7 
REMARK    7  A    between atoms: C_7  and  N_18 
REMARK    8  A    between atoms: C_10  and  C_11 
REMARK       I    between atoms: C_11  and  N_12 
REMARK    9  A    between atoms: Se_14  and  C_15 
ROOT
HETATM    1  C           1     -25.014  -6.753 -17.208  0.00  0.00     0.275 C 
ENDROOT
BRANCH   1   2
HETATM    2  C           1     -25.274  -6.789 -18.708  0.00  0.00     0.052 C 
BRANCH   2   3
HETATM    3  C           1     -24.054  -7.358 -19.422  0.00  0.00     0.105 C 
BRANCH   3   4
HETATM    4  C           1     -24.483  -7.996 -20.720  0.00  0.00     0.215 C 
HETATM    5  N           1     -23.544  -8.497 -21.580  0.00  0.00    -0.370 N 
HETATM    6  H           1     -23.831  -8.924 -22.450  0.00  0.00     0.159 HD
HETATM    7  H           1     -22.560  -8.440 -21.344  0.00  0.00     0.159 HD
HETATM    8  O           1     -25.657  -8.064 -21.001  0.00  0.00    -0.274 OA
ENDBRANCH   3   4
ENDBRANCH   2   3
ENDBRANCH   1   2
BRANCH   1   9
HETATM    9  C           1     -26.317  -6.924 -16.466  0.00  0.00     0.249 C 
HETATM   10  N           1     -27.500  -6.603 -17.076  0.00  0.00    -0.345 N 
HETATM   11  H           1     -27.500  -6.252 -18.025  0.00  0.00     0.163 HD
HETATM   12  O           1     -26.316  -7.344 -15.333  0.00  0.00    -0.271 OA
BRANCH  10  13
HETATM   13  C           1     -28.751  -6.766 -16.362  0.00  0.00     0.185 C 
BRANCH  13  14
HETATM   14  C           1     -29.193  -5.421 -15.800  0.00  0.00     0.039 C 
BRANCH  14  15
HETATM   15 Se           1     -28.635  -3.997 -17.008  0.00  0.00     0.000 Se
HETATM   16  H           1     -27.294  -3.862 -16.418  0.00  0.00     0.000 HD
ENDBRANCH  14  15
ENDBRANCH  13  14
BRANCH  13  17
HETATM   17  C           1     -29.805  -7.287 -17.309  0.00  0.00     0.196 C 
HETATM   18  O           1     -30.954  -6.795 -17.296  0.00  0.00    -0.646 OA
HETATM   19  O           1     -29.528  -8.209 -18.105  0.00  0.00    -0.646 OA
ENDBRANCH  13  17
ENDBRANCH  10  13
ENDBRANCH   1   9
BRANCH   1  20
HETATM   20  N           1     -24.080  -7.867 -16.837  0.00  0.00    -0.066 N 
HETATM   21  H           1     -23.998  -8.534 -17.636  0.00  0.00     0.275 HD
HETATM   22  H           1     -23.138  -7.472 -16.615  0.00  0.00     0.275 HD
HETATM   23  H           1     -24.452  -8.369 -15.999  0.00  0.00     0.275 HD
ENDBRANCH   1  20
TORSDOF 9
ENDMDL
MODEL 4
REMARK VINA RESULT:      -5.5     14.043     15.302
REMARK  9 active torsions:
REMARK  status: ('A' for Active; 'I' for Inactive)
REMARK    1  A    between atoms: N_1  and  C_2 
REMARK       I    between atoms: N_1  and  C_6 
REMARK    2  A    between atoms: C_2  and  C_15 
REMARK    3  A    between atoms: C_2  and  C_3 
REMARK    4  A    between atoms: C_5  and  C_7 
REMARK    5  A    between atoms: C_5  and  C_10 
REMARK    6  A    between atoms: C_6  and  C_7 
REMARK    7  A    between atoms: C_7  and  N_18 
REMARK    8  A    between atoms: C_10  and  C_11 
REMARK       I    between atoms: C_11  and  N_12 
REMARK    9  A    between atoms: Se_14  and  C_15 
ROOT
HETATM    1  C           1     -20.450  -4.987  -6.568  0.00  0.00     0.275 C 
ENDROOT
BRANCH   1   2
HETATM    2  C           1     -21.214  -3.798  -7.136  0.00  0.00     0.052 C 
BRANCH   2   3
HETATM    3  C           1     -21.424  -3.998  -8.632  0.00  0.00     0.105 C 
BRANCH   3   4
HETATM    4  C           1     -22.888  -3.837  -8.960  0.00  0.00     0.215 C 
HETATM    5  N           1     -23.835  -4.081  -8.003  0.00  0.00    -0.370 N 
HETATM    6  H           1     -24.816  -3.973  -8.223  0.00  0.00     0.159 HD
HETATM    7  H           1     -23.553  -4.369  -7.074  0.00  0.00     0.159 HD
HETATM    8  O           1     -23.224  -3.492 -10.069  0.00  0.00    -0.274 OA
ENDBRANCH   3   4
ENDBRANCH   2   3
ENDBRANCH   1   2
BRANCH   1   9
HETATM    9  C           1     -21.356  -5.780  -5.658  0.00  0.00     0.249 C 
HETATM   10  N           1     -20.825  -6.702  -4.796  0.00  0.00    -0.345 N 
HETATM   11  H           1     -19.825  -6.851  -4.769  0.00  0.00     0.163 HD
HETATM   12  O           1     -22.551  -5.601  -5.690  0.00  0.00    -0.271 OA
BRANCH  10  13
HETATM   13  C           1     -21.696  -7.463  -3.922  0.00  0.00     0.185 C 
BRANCH  13  14
HETATM   14  C           1     -21.244  -8.918  -3.899  0.00  0.00     0.039 C 
BRANCH  14  15
HETATM   15 Se           1     -19.513  -9.074  -4.781  0.00  0.00     0.000 Se
HETATM   16  H           1     -20.008  -9.952  -5.854  0.00  0.00     0.000 HD
ENDBRANCH  14  15
ENDBRANCH  13  14
BRANCH  13  17
HETATM   17  C           1     -21.631  -6.893  -2.527  0.00  0.00     0.196 C 
HETATM   18  O           1     -20.876  -7.411  -1.675  0.00  0.00    -0.646 OA
HETATM   19  O           1     -22.331  -5.904  -2.223  0.00  0.00    -0.646 OA
ENDBRANCH  13  17
ENDBRANCH  10  13
ENDBRANCH   1   9
BRANCH   1  20
HETATM   20  N           1     -19.981  -5.863  -7.691  0.00  0.00    -0.066 N 
HETATM   21  H           1     -18.937  -5.889  -7.701  0.00  0.00     0.275 HD
HETATM   22  H           1     -20.352  -6.831  -7.557  0.00  0.00     0.275 HD
HETATM   23  H           1     -20.329  -5.481  -8.599  0.00  0.00     0.275 HD
ENDBRANCH   1  20
TORSDOF 9
ENDMDL
MODEL 5
REMARK VINA RESULT:      -5.4      3.051      6.836
REMARK  9 active torsions:
REMARK  status: ('A' for Active; 'I' for Inactive)
REMARK    1  A    between atoms: N_1  and  C_2 
REMARK       I    between atoms: N_1  and  C_6 
REMARK    2  A    between atoms: C_2  and  C_15 
REMARK    3  A    between atoms: C_2  and  C_3 
REMARK    4  A    between atoms: C_5  and  C_7 
REMARK    5  A    between atoms: C_5  and  C_10 
REMARK    6  A    between atoms: C_6  and  C_7 
REMARK    7  A    between atoms: C_7  and  N_18 
REMARK    8  A    between atoms: C_10  and  C_11 
REMARK       I    between atoms: C_11  and  N_12 
REMARK    9  A    between atoms: Se_14  and  C_15 
ROOT
HETATM    1  C           1     -24.966  -6.889 -19.723  0.00  0.00     0.275 C 
ENDROOT
BRANCH   1   2
HETATM    2  C           1     -24.998  -7.973 -20.792  0.00  0.00     0.052 C 
BRANCH   2   3
HETATM    3  C           1     -24.058  -7.593 -21.929  0.00  0.00     0.105 C 
BRANCH   3   4
HETATM    4  C           1     -22.882  -8.539 -21.946  0.00  0.00     0.215 C 
HETATM    5  N           1     -22.020  -8.580 -20.884  0.00  0.00    -0.370 N 
HETATM    6  H           1     -21.232  -9.214 -20.895  0.00  0.00     0.159 HD
HETATM    7  H           1     -22.173  -7.976 -20.085  0.00  0.00     0.159 HD
HETATM    8  O           1     -22.701  -9.260 -22.899  0.00  0.00    -0.274 OA
ENDBRANCH   3   4
ENDBRANCH   2   3
ENDBRANCH   1   2
BRANCH   1   9
HETATM    9  C           1     -26.377  -6.489 -19.368  0.00  0.00     0.249 C 
HETATM   10  N           1     -26.735  -6.333 -18.055  0.00  0.00    -0.345 N 
HETATM   11  H           1     -26.054  -6.486 -17.323  0.00  0.00     0.163 HD
HETATM   12  O           1     -27.191  -6.306 -20.242  0.00  0.00    -0.271 OA
BRANCH  10  13
HETATM   13  C           1     -28.092  -5.949 -17.715  0.00  0.00     0.185 C 
BRANCH  13  14
HETATM   14  C           1     -28.851  -7.169 -17.210  0.00  0.00     0.039 C 
BRANCH  14  15
HETATM   15 Se           1     -30.749  -6.961 -17.602  0.00  0.00     0.000 Se
HETATM   16  H           1     -31.192  -7.422 -16.277  0.00  0.00     0.000 HD
ENDBRANCH  14  15
ENDBRANCH  13  14
BRANCH  13  17
HETATM   17  C           1     -28.059  -4.894 -16.637  0.00  0.00     0.196 C 
HETATM   18  O           1     -27.919  -3.690 -16.944  0.00  0.00    -0.646 OA
HETATM   19  O           1     -28.174  -5.223 -15.437  0.00  0.00    -0.646 OA
ENDBRANCH  13  17
ENDBRANCH  10  13
ENDBRANCH   1   9
BRANCH   1  20
HETATM   20  N           1     -24.274  -7.413 -18.500  0.00  0.00    -0.066 N 
HETATM   21  H           1     -24.862  -7.224 -17.658  0.00  0.00     0.275 HD
HETATM   22  H           1     -24.126  -8.443 -18.598  0.00  0.00     0.275 HD
HETATM   23  H           1     -23.349  -6.939 -18.393  0.00  0.00     0.275 HD
ENDBRANCH   1  20
TORSDOF 9
ENDMDL
MODEL 6
REMARK VINA RESULT:      -5.3      2.867      5.469
REMARK  9 active torsions:
REMARK  status: ('A' for Active; 'I' for Inactive)
REMARK    1  A    between atoms: N_1  and  C_2 
REMARK       I    between atoms: N_1  and  C_6 
REMARK    2  A    between atoms: C_2  and  C_15 
REMARK    3  A    between atoms: C_2  and  C_3 
REMARK    4  A    between atoms: C_5  and  C_7 
REMARK    5  A    between atoms: C_5  and  C_10 
REMARK    6  A    between atoms: C_6  and  C_7 
REMARK    7  A    between atoms: C_7  and  N_18 
REMARK    8  A    between atoms: C_10  and  C_11 
REMARK       I    between atoms: C_11  and  N_12 
REMARK    9  A    between atoms: Se_14  and  C_15 
ROOT
HETATM    1  C           1     -25.455  -6.502 -19.453  0.00  0.00     0.275 C 
ENDROOT
BRANCH   1   2
HETATM    2  C           1     -26.534  -6.721 -20.506  0.00  0.00     0.052 C 
BRANCH   2   3
HETATM    3  C           1     -26.446  -8.147 -21.034  0.00  0.00     0.105 C 
BRANCH   3   4
HETATM    4  C           1     -27.790  -8.820 -20.893  0.00  0.00     0.215 C 
HETATM    5  N           1     -28.660  -8.414 -19.919  0.00  0.00    -0.370 N 
HETATM    6  H           1     -29.560  -8.864 -19.824  0.00  0.00     0.159 HD
HETATM    7  H           1     -28.403  -7.660 -19.293  0.00  0.00     0.159 HD
HETATM    8  O           1     -28.096  -9.719 -21.641  0.00  0.00    -0.274 OA
ENDBRANCH   3   4
ENDBRANCH   2   3
ENDBRANCH   1   2
BRANCH   1   9
HETATM    9  C           1     -26.099  -6.328 -18.100  0.00  0.00     0.249 C 
HETATM   10  N           1     -27.456  -6.170 -18.002  0.00  0.00    -0.345 N 
HETATM   11  H           1     -28.027  -6.170 -18.837  0.00  0.00     0.163 HD
HETATM   12  O           1     -25.417  -6.328 -17.102  0.00  0.00    -0.271 OA
BRANCH  10  13
HETATM   13  C           1     -28.074  -6.001 -16.701  0.00  0.00     0.185 C 
BRANCH  13  14
HETATM   14  C           1     -29.344  -5.175 -16.847  0.00  0.00     0.039 C 
BRANCH  14  15
HETATM   15 Se           1     -28.874  -3.319 -17.214  0.00  0.00     0.000 Se
HETATM   16  H           1     -30.151  -3.004 -17.875  0.00  0.00     0.000 HD
ENDBRANCH  14  15
ENDBRANCH  13  14
BRANCH  13  17
HETATM   17  C           1     -28.416  -7.355 -16.129  0.00  0.00     0.196 C 
HETATM   18  O           1     -29.164  -8.131 -16.764  0.00  0.00    -0.646 OA
HETATM   19  O           1     -27.953  -7.702 -15.021  0.00  0.00    -0.646 OA
ENDBRANCH  13  17
ENDBRANCH  10  13
ENDBRANCH   1   9
BRANCH   1  20
HETATM   20  N           1     -24.541  -7.691 -19.421  0.00  0.00    -0.066 N 
HETATM   21  H           1     -24.308  -7.979 -20.397  0.00  0.00     0.275 HD
HETATM   22  H           1     -23.663  -7.442 -18.912  0.00  0.00     0.275 HD
HETATM   23  H           1     -25.015  -8.481 -18.928  0.00  0.00     0.275 HD
ENDBRANCH   1  20
TORSDOF 9
ENDMDL
MODEL 7
REMARK VINA RESULT:      -5.3      2.371      6.313
REMARK  9 active torsions:
REMARK  status: ('A' for Active; 'I' for Inactive)
REMARK    1  A    between atoms: N_1  and  C_2 
REMARK       I    between atoms: N_1  and  C_6 
REMARK    2  A    between atoms: C_2  and  C_15 
REMARK    3  A    between atoms: C_2  and  C_3 
REMARK    4  A    between atoms: C_5  and  C_7 
REMARK    5  A    between atoms: C_5  and  C_10 
REMARK    6  A    between atoms: C_6  and  C_7 
REMARK    7  A    between atoms: C_7  and  N_18 
REMARK    8  A    between atoms: C_10  and  C_11 
REMARK       I    between atoms: C_11  and  N_12 
REMARK    9  A    between atoms: Se_14  and  C_15 
ROOT
HETATM    1  C           1     -26.543  -6.013 -18.599  0.00  0.00     0.275 C 
ENDROOT
BRANCH   1   2
HETATM    2  C           1     -26.136  -6.671 -19.910  0.00  0.00     0.052 C 
BRANCH   2   3
HETATM    3  C           1     -24.740  -7.264 -19.770  0.00  0.00     0.105 C 
BRANCH   3   4
HETATM    4  C           1     -24.431  -8.117 -20.976  0.00  0.00     0.215 C 
HETATM    5  N           1     -23.217  -8.740 -21.081  0.00  0.00    -0.370 N 
HETATM    6  H           1     -23.010  -9.312 -21.889  0.00  0.00     0.159 HD
HETATM    7  H           1     -22.526  -8.629 -20.349  0.00  0.00     0.159 HD
HETATM    8  O           1     -25.256  -8.249 -21.849  0.00  0.00    -0.274 OA
ENDBRANCH   3   4
ENDBRANCH   2   3
ENDBRANCH   1   2
BRANCH   1   9
HETATM    9  C           1     -28.048  -5.978 -18.497  0.00  0.00     0.249 C 
HETATM   10  N           1     -28.668  -4.932 -17.868  0.00  0.00    -0.345 N 
HETATM   11  H           1     -28.118  -4.181 -17.472  0.00  0.00     0.163 HD
HETATM   12  O           1     -28.706  -6.874 -18.972  0.00  0.00    -0.271 OA
BRANCH  10  13
HETATM   13  C           1     -30.115  -4.900 -17.771  0.00  0.00     0.185 C 
BRANCH  13  14
HETATM   14  C           1     -30.561  -5.734 -16.578  0.00  0.00     0.039 C 
BRANCH  14  15
HETATM   15 Se           1     -29.162  -5.725 -15.220  0.00  0.00     0.000 Se
HETATM   16  H           1     -29.726  -6.857 -14.466  0.00  0.00     0.000 HD
ENDBRANCH  14  15
ENDBRANCH  13  14
BRANCH  13  17
HETATM   17  C           1     -30.574  -3.474 -17.589  0.00  0.00     0.196 C 
HETATM   18  O           1     -31.795  -3.204 -17.605  0.00  0.00    -0.646 OA
HETATM   19  O           1     -29.735  -2.563 -17.422  0.00  0.00    -0.646 OA
ENDBRANCH  13  17
ENDBRANCH  10  13
ENDBRANCH   1   9
BRANCH   1  20
HETATM   20  N           1     -25.983  -6.800 -17.451  0.00  0.00    -0.066 N 
HETATM   21  H           1     -25.877  -6.176 -16.620  0.00  0.00     0.275 HD
HETATM   22  H           1     -26.633  -7.584 -17.217  0.00  0.00     0.275 HD
HETATM   23  H           1     -25.051  -7.189 -17.717  0.00  0.00     0.275 HD
ENDBRANCH   1  20
TORSDOF 9
ENDMDL
MODEL 8
REMARK VINA RESULT:      -5.2     12.889     13.889
REMARK  9 active torsions:
REMARK  status: ('A' for Active; 'I' for Inactive)
REMARK    1  A    between atoms: N_1  and  C_2 
REMARK       I    between atoms: N_1  and  C_6 
REMARK    2  A    between atoms: C_2  and  C_15 
REMARK    3  A    between atoms: C_2  and  C_3 
REMARK    4  A    between atoms: C_5  and  C_7 
REMARK    5  A    between atoms: C_5  and  C_10 
REMARK    6  A    between atoms: C_6  and  C_7 
REMARK    7  A    between atoms: C_7  and  N_18 
REMARK    8  A    between atoms: C_10  and  C_11 
REMARK       I    between atoms: C_11  and  N_12 
REMARK    9  A    between atoms: Se_14  and  C_15 
ROOT
HETATM    1  C           1     -20.873  -4.041  -8.208  0.00  0.00     0.275 C 
ENDROOT
BRANCH   1   2
HETATM    2  C           1     -22.381  -4.106  -8.415  0.00  0.00     0.052 C 
BRANCH   2   3
HETATM    3  C           1     -22.692  -4.052  -9.905  0.00  0.00     0.105 C 
BRANCH   3   4
HETATM    4  C           1     -24.122  -3.613 -10.105  0.00  0.00     0.215 C 
HETATM    5  N           1     -24.842  -3.124  -9.049  0.00  0.00    -0.370 N 
HETATM    6  H           1     -25.800  -2.830  -9.183  0.00  0.00     0.159 HD
HETATM    7  H           1     -24.415  -3.057  -8.133  0.00  0.00     0.159 HD
HETATM    8  O           1     -24.630  -3.693 -11.199  0.00  0.00    -0.274 OA
ENDBRANCH   3   4
ENDBRANCH   2   3
ENDBRANCH   1   2
BRANCH   1   9
HETATM    9  C           1     -20.502  -4.806  -6.962  0.00  0.00     0.249 C 
HETATM   10  N           1     -21.363  -5.737  -6.447  0.00  0.00    -0.345 N 
HETATM   11  H           1     -22.250  -5.913  -6.902  0.00  0.00     0.163 HD
HETATM   12  O           1     -19.443  -4.597  -6.418  0.00  0.00    -0.271 OA
BRANCH  10  13
HETATM   13  C           1     -21.005  -6.472  -5.249  0.00  0.00     0.185 C 
BRANCH  13  14
HETATM   14  C           1     -22.232  -6.613  -4.357  0.00  0.00     0.039 C 
BRANCH  14  15
HETATM   15 Se           1     -21.718  -6.339  -2.497  0.00  0.00     0.000 Se
HETATM   16  H           1     -22.434  -5.060  -2.366  0.00  0.00     0.000 HD
ENDBRANCH  14  15
ENDBRANCH  13  14
BRANCH  13  17
HETATM   17  C           1     -20.500  -7.841  -5.632  0.00  0.00     0.196 C 
HETATM   18  O           1     -21.300  -8.798  -5.728  0.00  0.00    -0.646 OA
HETATM   19  O           1     -19.283  -8.019  -5.853  0.00  0.00    -0.646 OA
ENDBRANCH  13  17
ENDBRANCH  10  13
ENDBRANCH   1   9
BRANCH   1  20
HETATM   20  N           1     -20.180  -4.649  -9.391  0.00  0.00    -0.066 N 
HETATM   21  H           1     -20.476  -4.153 -10.262  0.00  0.00     0.275 HD
HETATM   22  H           1     -19.146  -4.559  -9.274  0.00  0.00     0.275 HD
HETATM   23  H           1     -20.435  -5.660  -9.462  0.00  0.00     0.275 HD
ENDBRANCH   1  20
TORSDOF 9
ENDMDL
MODEL 9
REMARK VINA RESULT:      -4.9     14.860     16.144
REMARK  9 active torsions:
REMARK  status: ('A' for Active; 'I' for Inactive)
REMARK    1  A    between atoms: N_1  and  C_2 
REMARK       I    between atoms: N_1  and  C_6 
REMARK    2  A    between atoms: C_2  and  C_15 
REMARK    3  A    between atoms: C_2  and  C_3 
REMARK    4  A    between atoms: C_5  and  C_7 
REMARK    5  A    between atoms: C_5  and  C_10 
REMARK    6  A    between atoms: C_6  and  C_7 
REMARK    7  A    between atoms: C_7  and  N_18 
REMARK    8  A    between atoms: C_10  and  C_11 
REMARK       I    between atoms: C_11  and  N_12 
REMARK    9  A    between atoms: Se_14  and  C_15 
ROOT
HETATM    1  C           1     -20.906  -5.711  -5.895  0.00  0.00     0.275 C 
ENDROOT
BRANCH   1   2
HETATM    2  C           1     -22.097  -5.093  -6.615  0.00  0.00     0.052 C 
BRANCH   2   3
HETATM    3  C           1     -21.619  -3.949  -7.500  0.00  0.00     0.105 C 
BRANCH   3   4
HETATM    4  C           1     -22.583  -3.764  -8.647  0.00  0.00     0.215 C 
HETATM    5  N           1     -23.932  -3.830  -8.425  0.00  0.00    -0.370 N 
HETATM    6  H           1     -24.577  -3.706  -9.193  0.00  0.00     0.159 HD
HETATM    7  H           1     -24.283  -4.003  -7.491  0.00  0.00     0.159 HD
HETATM    8  O           1     -22.163  -3.557  -9.761  0.00  0.00    -0.274 OA
ENDBRANCH   3   4
ENDBRANCH   2   3
ENDBRANCH   1   2
BRANCH   1   9
HETATM    9  C           1     -21.396  -6.691  -4.857  0.00  0.00     0.249 C 
HETATM   10  N           1     -20.803  -6.737  -3.624  0.00  0.00    -0.345 N 
HETATM   11  H           1     -20.036  -6.113  -3.407  0.00  0.00     0.163 HD
HETATM   12  O           1     -22.312  -7.435  -5.115  0.00  0.00    -0.271 OA
BRANCH  10  13
HETATM   13  C           1     -21.274  -7.679  -2.628  0.00  0.00     0.185 C 
BRANCH  13  14
HETATM   14  C           1     -20.083  -8.400  -2.010  0.00  0.00     0.039 C 
BRANCH  14  15
HETATM   15 Se           1     -20.381 -10.325  -2.080  0.00  0.00     0.000 Se
HETATM   16  H           1     -18.951 -10.666  -2.015  0.00  0.00     0.000 HD
ENDBRANCH  14  15
ENDBRANCH  13  14
BRANCH  13  17
HETATM   17  C           1     -22.028  -6.937  -1.551  0.00  0.00     0.196 C 
HETATM   18  O           1     -22.583  -5.848  -1.815  0.00  0.00    -0.646 OA
HETATM   19  O           1     -22.098  -7.411  -0.397  0.00  0.00    -0.646 OA
ENDBRANCH  13  17
ENDBRANCH  10  13
ENDBRANCH   1   9
BRANCH   1  20
HETATM   20  N           1     -20.039  -6.427  -6.887  0.00  0.00    -0.066 N 
HETATM   21  H           1     -19.047  -6.123  -6.767  0.00  0.00     0.275 HD
HETATM   22  H           1     -20.109  -7.458  -6.731  0.00  0.00     0.275 HD
HETATM   23  H           1     -20.358  -6.200  -7.856  0.00  0.00     0.275 HD
ENDBRANCH   1  20
TORSDOF 9
ENDMDL
