MODEL 1
REMARK VINA RESULT:      -6.7      0.000      0.000
REMARK  8 active torsions:
REMARK  status: ('A' for Active; 'I' for Inactive)
REMARK    1  A    between atoms: C_4  and  C_16 
REMARK    2  A    between atoms: N_6  and  C_16 
REMARK       I    between atoms: N_6  and  C_13 
REMARK    3  A    between atoms: C_10  and  C_11 
REMARK    4  A    between atoms: C_11  and  C_12 
REMARK    5  A    between atoms: C_12  and  C_13 
REMARK    6  A    between atoms: C_12  and  N_25 
REMARK    7  A    between atoms: C_16  and  C_17 
REMARK    8  A    between atoms: C_17  and  C_18 
ROOT
HETATM    1  N           1     -28.561  -7.314 -16.780  0.00  0.00    -0.344 N 
HETATM    2  H           1     -28.596  -7.816 -15.902  0.00  0.00     0.163 HD
HETATM    3  C           1     -29.703  -7.132 -17.512  0.00  0.00     0.249 C 
HETATM    4  O           1     -30.026  -7.950 -18.341  0.00  0.00    -0.271 OA
ENDROOT
BRANCH   1   5
HETATM    5  C           1     -27.299  -6.786 -17.262  0.00  0.00     0.191 C 
BRANCH   5   6
HETATM    6  C           1     -26.812  -5.710 -16.322  0.00  0.00     0.197 C 
HETATM    7  O           1     -25.601  -5.647 -16.020  0.00  0.00    -0.646 OA
HETATM    8  O           1     -27.620  -4.884 -15.846  0.00  0.00    -0.646 OA
ENDBRANCH   5   6
BRANCH   5   9
HETATM    9  C           1     -27.495  -6.195 -18.652  0.00  0.00     0.094 C 
BRANCH   9  10
HETATM   10  C           1     -26.579  -6.878 -19.619  0.00  0.00     0.028 A 
HETATM   11  C           1     -25.217  -6.697 -19.666  0.00  0.00     0.114 A 
HETATM   12  N           1     -24.787  -7.503 -20.684  0.00  0.00    -0.360 N 
HETATM   13  H           1     -23.794  -7.619 -21.008  0.00  0.00     0.166 HD
HETATM   14  C           1     -25.884  -8.127 -21.205  0.00  0.00     0.180 A 
HETATM   15  N           1     -26.982  -7.769 -20.580  0.00  0.00    -0.354 N 
ATOM     16  HN          1     -27.933  -8.085 -20.769  1.00  0.00     0.166 HD
ENDBRANCH   9  10
ENDBRANCH   5   9
ENDBRANCH   1   5
BRANCH   3  17
HETATM   17  C           1     -30.560  -5.912 -17.283  0.00  0.00     0.284 C 
BRANCH  17  18
HETATM   18  C           1     -30.092  -4.783 -18.193  0.00  0.00     0.155 C 
BRANCH  18  19
HETATM   19  C           1     -30.576  -3.462 -17.647  0.00  0.00     0.175 C 
HETATM   20  O           1     -29.749  -2.590 -17.300  0.00  0.00    -0.648 OA
HETATM   21  O           1     -31.801  -3.240 -17.540  0.00  0.00    -0.648 OA
ENDBRANCH  18  19
ENDBRANCH  17  18
BRANCH  17  22
HETATM   22  N           1     -30.441  -5.480 -15.851  0.00  0.00    -0.066 N 
HETATM   23  H           1     -31.325  -5.706 -15.344  0.00  0.00     0.275 HD
HETATM   24  H           1     -29.643  -5.984 -15.401  0.00  0.00     0.275 HD
HETATM   25  H           1     -30.269  -4.450 -15.811  0.00  0.00     0.275 HD
ENDBRANCH  17  22
ENDBRANCH   3  17
TORSDOF 8
ENDMDL
MODEL 2
REMARK VINA RESULT:      -6.4      1.580      2.141
REMARK  8 active torsions:
REMARK  status: ('A' for Active; 'I' for Inactive)
REMARK    1  A    between atoms: C_4  and  C_16 
REMARK    2  A    between atoms: N_6  and  C_16 
REMARK       I    between atoms: N_6  and  C_13 
REMARK    3  A    between atoms: C_10  and  C_11 
REMARK    4  A    between atoms: C_11  and  C_12 
REMARK    5  A    between atoms: C_12  and  C_13 
REMARK    6  A    between atoms: C_12  and  N_25 
REMARK    7  A    between atoms: C_16  and  C_17 
REMARK    8  A    between atoms: C_17  and  C_18 
ROOT
HETATM    1  N           1     -26.972  -5.864 -16.943  0.00  0.00    -0.344 N 
HETATM    2  H           1     -26.733  -4.880 -16.961  0.00  0.00     0.163 HD
HETATM    3  C           1     -28.241  -6.255 -16.611  0.00  0.00     0.249 C 
HETATM    4  O           1     -28.522  -6.477 -15.458  0.00  0.00    -0.271 OA
ENDROOT
BRANCH   1   5
HETATM    5  C           1     -25.969  -6.859 -17.271  0.00  0.00     0.191 C 
BRANCH   5   6
HETATM    6  C           1     -25.103  -7.117 -16.062  0.00  0.00     0.197 C 
HETATM    7  O           1     -25.191  -6.374 -15.061  0.00  0.00    -0.646 OA
HETATM    8  O           1     -24.298  -8.073 -16.062  0.00  0.00    -0.646 OA
ENDBRANCH   5   6
BRANCH   5   9
HETATM    9  C           1     -25.104  -6.348 -18.415  0.00  0.00     0.094 C 
BRANCH   9  10
HETATM   10  C           1     -25.366  -7.165 -19.642  0.00  0.00     0.028 A 
HETATM   11  C           1     -24.390  -7.743 -20.420  0.00  0.00     0.114 A 
HETATM   12  N           1     -25.067  -8.384 -21.420  0.00  0.00    -0.360 N 
HETATM   13  H           1     -24.639  -8.937 -22.204  0.00  0.00     0.166 HD
HETATM   14  C           1     -26.400  -8.173 -21.214  0.00  0.00     0.180 A 
HETATM   15  N           1     -26.610  -7.439 -20.146  0.00  0.00    -0.354 N 
ATOM     16  HN          1     -27.510  -7.136 -19.770  1.00  0.00     0.166 HD
ENDBRANCH   9  10
ENDBRANCH   5   9
ENDBRANCH   1   5
BRANCH   3  17
HETATM   17  C           1     -29.289  -6.407 -17.686  0.00  0.00     0.284 C 
BRANCH  17  18
HETATM   18  C           1     -30.533  -5.618 -17.298  0.00  0.00     0.155 C 
BRANCH  18  19
HETATM   19  C           1     -30.310  -4.152 -17.585  0.00  0.00     0.175 C 
HETATM   20  O           1     -31.244  -3.337 -17.426  0.00  0.00    -0.648 OA
HETATM   21  O           1     -29.193  -3.755 -17.980  0.00  0.00    -0.648 OA
ENDBRANCH  18  19
ENDBRANCH  17  18
BRANCH  17  22
HETATM   22  N           1     -29.645  -7.856 -17.835  0.00  0.00    -0.066 N 
HETATM   23  H           1     -29.106  -8.421 -17.141  0.00  0.00     0.275 HD
HETATM   24  H           1     -30.669  -7.983 -17.666  0.00  0.00     0.275 HD
HETATM   25  H           1     -29.410  -8.176 -18.802  0.00  0.00     0.275 HD
ENDBRANCH  17  22
ENDBRANCH   3  17
TORSDOF 8
ENDMDL
MODEL 3
REMARK VINA RESULT:      -6.4      2.076      3.310
REMARK  8 active torsions:
REMARK  status: ('A' for Active; 'I' for Inactive)
REMARK    1  A    between atoms: C_4  and  C_16 
REMARK    2  A    between atoms: N_6  and  C_16 
REMARK       I    between atoms: N_6  and  C_13 
REMARK    3  A    between atoms: C_10  and  C_11 
REMARK    4  A    between atoms: C_11  and  C_12 
REMARK    5  A    between atoms: C_12  and  C_13 
REMARK    6  A    between atoms: C_12  and  N_25 
REMARK    7  A    between atoms: C_16  and  C_17 
REMARK    8  A    between atoms: C_17  and  C_18 
ROOT
HETATM    1  N           1     -27.990  -7.390 -18.921  0.00  0.00    -0.344 N 
HETATM    2  H           1     -27.312  -7.670 -18.223  0.00  0.00     0.163 HD
HETATM    3  C           1     -29.316  -7.301 -18.592  0.00  0.00     0.249 C 
HETATM    4  O           1     -30.035  -8.263 -18.718  0.00  0.00    -0.271 OA
ENDROOT
BRANCH   1   5
HETATM    5  C           1     -27.556  -7.081 -20.270  0.00  0.00     0.191 C 
BRANCH   5   6
HETATM    6  C           1     -27.298  -8.365 -21.020  0.00  0.00     0.197 C 
HETATM    7  O           1     -28.220  -9.194 -21.176  0.00  0.00    -0.646 OA
HETATM    8  O           1     -26.161  -8.599 -21.486  0.00  0.00    -0.646 OA
ENDBRANCH   5   6
BRANCH   5   9
HETATM    9  C           1     -26.275  -6.259 -20.214  0.00  0.00     0.094 C 
BRANCH   9  10
HETATM   10  C           1     -25.482  -6.651 -19.006  0.00  0.00     0.028 A 
HETATM   11  C           1     -24.212  -7.177 -19.042  0.00  0.00     0.114 A 
HETATM   12  N           1     -23.878  -7.384 -17.733  0.00  0.00    -0.360 N 
HETATM   13  H           1     -22.971  -7.779 -17.378  0.00  0.00     0.166 HD
HETATM   14  C           1     -24.937  -6.984 -16.970  0.00  0.00     0.180 A 
HETATM   15  N           1     -25.922  -6.536 -17.714  0.00  0.00    -0.354 N 
ATOM     16  HN          1     -26.823  -6.178 -17.397  1.00  0.00     0.166 HD
ENDBRANCH   9  10
ENDBRANCH   5   9
ENDBRANCH   1   5
BRANCH   3  17
HETATM   17  C           1     -29.879  -6.002 -18.070  0.00  0.00     0.284 C 
BRANCH  17  18
HETATM   18  C           1     -29.024  -4.842 -18.564  0.00  0.00     0.155 C 
BRANCH  18  19
HETATM   19  C           1     -28.646  -3.962 -17.398  0.00  0.00     0.175 C 
HETATM   20  O           1     -27.678  -4.272 -16.670  0.00  0.00    -0.648 OA
HETATM   21  O           1     -29.299  -2.923 -17.160  0.00  0.00    -0.648 OA
ENDBRANCH  18  19
ENDBRANCH  17  18
BRANCH  17  22
HETATM   22  N           1     -29.871  -6.022 -16.570  0.00  0.00    -0.066 N 
HETATM   23  H           1     -29.136  -6.684 -16.233  0.00  0.00     0.275 HD
HETATM   24  H           1     -29.665  -5.062 -16.210  0.00  0.00     0.275 HD
HETATM   25  H           1     -30.806  -6.332 -16.220  0.00  0.00     0.275 HD
ENDBRANCH  17  22
ENDBRANCH   3  17
TORSDOF 8
ENDMDL
MODEL 4
REMARK VINA RESULT:      -6.3      1.858      2.825
REMARK  8 active torsions:
REMARK  status: ('A' for Active; 'I' for Inactive)
REMARK    1  A    between atoms: C_4  and  C_16 
REMARK    2  A    between atoms: N_6  and  C_16 
REMARK       I    between atoms: N_6  and  C_13 
REMARK    3  A    between atoms: C_10  and  C_11 
REMARK    4  A    between atoms: C_11  and  C_12 
REMARK    5  A    between atoms: C_12  and  C_13 
REMARK    6  A    between atoms: C_12  and  N_25 
REMARK    7  A    between atoms: C_16  and  C_17 
REMARK    8  A    between atoms: C_17  and  C_18 
ROOT
HETATM    1  N           1     -27.211  -5.217 -16.912  0.00  0.00    -0.344 N 
HETATM    2  H           1     -26.677  -4.379 -17.105  0.00  0.00     0.163 HD
HETATM    3  C           1     -28.516  -5.120 -16.510  0.00  0.00     0.249 C 
HETATM    4  O           1     -28.782  -5.045 -15.334  0.00  0.00    -0.271 OA
ENDROOT
BRANCH   1   5
HETATM    5  C           1     -26.593  -6.520 -17.062  0.00  0.00     0.191 C 
BRANCH   5   6
HETATM    6  C           1     -26.368  -7.130 -15.700  0.00  0.00     0.197 C 
HETATM    7  O           1     -27.315  -7.680 -15.098  0.00  0.00    -0.646 OA
HETATM    8  O           1     -25.235  -7.084 -15.173  0.00  0.00    -0.646 OA
ENDBRANCH   5   6
BRANCH   5   9
HETATM    9  C           1     -25.257  -6.368 -17.777  0.00  0.00     0.094 C 
BRANCH   9  10
HETATM   10  C           1     -25.327  -7.037 -19.114  0.00  0.00     0.028 A 
HETATM   11  C           1     -24.244  -7.545 -19.792  0.00  0.00     0.114 A 
HETATM   12  N           1     -24.759  -8.055 -20.951  0.00  0.00    -0.360 N 
HETATM   13  H           1     -24.216  -8.526 -21.718  0.00  0.00     0.166 HD
HETATM   14  C           1     -26.107  -7.839 -20.932  0.00  0.00     0.180 A 
HETATM   15  N           1     -26.479  -7.225 -19.833  0.00  0.00    -0.354 N 
ATOM     16  HN          1     -27.424  -6.947 -19.569  1.00  0.00     0.166 HD
ENDBRANCH   9  10
ENDBRANCH   5   9
ENDBRANCH   1   5
BRANCH   3  17
HETATM   17  C           1     -29.623  -5.106 -17.536  0.00  0.00     0.284 C 
BRANCH  17  18
HETATM   18  C           1     -30.682  -6.133 -17.156  0.00  0.00     0.155 C 
BRANCH  18  19
HETATM   19  C           1     -30.376  -7.446 -17.834  0.00  0.00     0.175 C 
HETATM   20  O           1     -29.563  -8.242 -17.316  0.00  0.00    -0.648 OA
HETATM   21  O           1     -30.936  -7.738 -18.913  0.00  0.00    -0.648 OA
ENDBRANCH  18  19
ENDBRANCH  17  18
BRANCH  17  22
HETATM   22  N           1     -29.058  -5.448 -18.883  0.00  0.00    -0.066 N 
HETATM   23  H           1     -29.824  -5.790 -19.506  0.00  0.00     0.275 HD
HETATM   24  H           1     -28.623  -4.595 -19.304  0.00  0.00     0.275 HD
HETATM   25  H           1     -28.334  -6.194 -18.779  0.00  0.00     0.275 HD
ENDBRANCH  17  22
ENDBRANCH   3  17
TORSDOF 8
ENDMDL
MODEL 5
REMARK VINA RESULT:      -6.2     12.043     14.384
REMARK  8 active torsions:
REMARK  status: ('A' for Active; 'I' for Inactive)
REMARK    1  A    between atoms: C_4  and  C_16 
REMARK    2  A    between atoms: N_6  and  C_16 
REMARK       I    between atoms: N_6  and  C_13 
REMARK    3  A    between atoms: C_10  and  C_11 
REMARK    4  A    between atoms: C_11  and  C_12 
REMARK    5  A    between atoms: C_12  and  C_13 
REMARK    6  A    between atoms: C_12  and  N_25 
REMARK    7  A    between atoms: C_16  and  C_17 
REMARK    8  A    between atoms: C_17  and  C_18 
ROOT
HETATM    1  N           1     -21.837  -6.821  -6.354  0.00  0.00    -0.344 N 
HETATM    2  H           1     -21.898  -7.801  -6.600  0.00  0.00     0.163 HD
HETATM    3  C           1     -22.317  -6.387  -5.147  0.00  0.00     0.249 C 
HETATM    4  O           1     -23.466  -6.030  -5.047  0.00  0.00    -0.271 OA
ENDROOT
BRANCH   1   5
HETATM    5  C           1     -21.242  -5.876  -7.279  0.00  0.00     0.191 C 
BRANCH   5   6
HETATM    6  C           1     -19.752  -5.816  -7.047  0.00  0.00     0.197 C 
HETATM    7  O           1     -19.112  -6.865  -6.819  0.00  0.00    -0.646 OA
HETATM    8  O           1     -19.157  -4.717  -7.082  0.00  0.00    -0.646 OA
ENDBRANCH   5   6
BRANCH   5   9
HETATM    9  C           1     -21.847  -4.496  -7.053  0.00  0.00     0.094 C 
BRANCH   9  10
HETATM   10  C           1     -22.637  -4.094  -8.260  0.00  0.00     0.028 A 
HETATM   11  C           1     -22.102  -3.877  -9.507  0.00  0.00     0.114 A 
HETATM   12  N           1     -23.166  -3.534 -10.294  0.00  0.00    -0.360 N 
HETATM   13  H           1     -23.132  -3.296 -11.317  0.00  0.00     0.166 HD
HETATM   14  C           1     -24.282  -3.554  -9.507  0.00  0.00     0.180 A 
HETATM   15  N           1     -23.992  -3.889  -8.271  0.00  0.00    -0.354 N 
ATOM     16  HN          1     -24.638  -3.979  -7.487  1.00  0.00     0.166 HD
ENDBRANCH   9  10
ENDBRANCH   5   9
ENDBRANCH   1   5
BRANCH   3  17
HETATM   17  C           1     -21.410  -6.358  -3.941  0.00  0.00     0.284 C 
BRANCH  17  18
HETATM   18  C           1     -20.722  -7.709  -3.789  0.00  0.00     0.155 C 
BRANCH  18  19
HETATM   19  C           1     -20.964  -8.244  -2.399  0.00  0.00     0.175 C 
HETATM   20  O           1     -20.249  -7.858  -1.449  0.00  0.00    -0.648 OA
HETATM   21  O           1     -21.877  -9.072  -2.198  0.00  0.00    -0.648 OA
ENDBRANCH  18  19
ENDBRANCH  17  18
BRANCH  17  22
HETATM   22  N           1     -22.222  -6.072  -2.713  0.00  0.00    -0.066 N 
HETATM   23  H           1     -22.787  -5.206  -2.862  0.00  0.00     0.275 HD
HETATM   24  H           1     -22.862  -6.877  -2.523  0.00  0.00     0.275 HD
HETATM   25  H           1     -21.584  -5.934  -1.897  0.00  0.00     0.275 HD
ENDBRANCH  17  22
ENDBRANCH   3  17
TORSDOF 8
ENDMDL
MODEL 6
REMARK VINA RESULT:      -6.2      2.078      3.237
REMARK  8 active torsions:
REMARK  status: ('A' for Active; 'I' for Inactive)
REMARK    1  A    between atoms: C_4  and  C_16 
REMARK    2  A    between atoms: N_6  and  C_16 
REMARK       I    between atoms: N_6  and  C_13 
REMARK    3  A    between atoms: C_10  and  C_11 
REMARK    4  A    between atoms: C_11  and  C_12 
REMARK    5  A    between atoms: C_12  and  C_13 
REMARK    6  A    between atoms: C_12  and  N_25 
REMARK    7  A    between atoms: C_16  and  C_17 
REMARK    8  A    between atoms: C_17  and  C_18 
ROOT
HETATM    1  N           1     -29.058  -5.474 -18.896  0.00  0.00    -0.344 N 
HETATM    2  H           1     -29.200  -5.331 -19.888  0.00  0.00     0.163 HD
HETATM    3  C           1     -29.502  -4.540 -17.999  0.00  0.00     0.249 C 
HETATM    4  O           1     -28.777  -3.633 -17.664  0.00  0.00    -0.271 OA
ENDROOT
BRANCH   1   5
HETATM    5  C           1     -28.386  -6.669 -18.425  0.00  0.00     0.191 C 
BRANCH   5   6
HETATM    6  C           1     -29.400  -7.769 -18.221  0.00  0.00     0.197 C 
HETATM    7  O           1     -29.841  -8.007 -17.076  0.00  0.00    -0.646 OA
HETATM    8  O           1     -29.797  -8.442 -19.197  0.00  0.00    -0.646 OA
ENDBRANCH   5   6
BRANCH   5   9
HETATM    9  C           1     -27.688  -6.371 -17.104  0.00  0.00     0.094 C 
BRANCH   9  10
HETATM   10  C           1     -26.230  -6.687 -17.227  0.00  0.00     0.028 A 
HETATM   11  C           1     -25.383  -6.894 -16.164  0.00  0.00     0.114 A 
HETATM   12  N           1     -24.164  -7.148 -16.727  0.00  0.00    -0.360 N 
HETATM   13  H           1     -23.271  -7.353 -16.211  0.00  0.00     0.166 HD
HETATM   14  C           1     -24.316  -7.086 -18.083  0.00  0.00     0.180 A 
HETATM   15  N           1     -25.556  -6.809 -18.414  0.00  0.00    -0.354 N 
ATOM     16  HN          1     -25.937  -6.706 -19.355  1.00  0.00     0.166 HD
ENDBRANCH   9  10
ENDBRANCH   5   9
ENDBRANCH   1   5
BRANCH   3  17
HETATM   17  C           1     -30.896  -4.641 -17.431  0.00  0.00     0.284 C 
BRANCH  17  18
HETATM   18  C           1     -31.544  -3.262 -17.424  0.00  0.00     0.155 C 
BRANCH  18  19
HETATM   19  C           1     -33.003  -3.393 -17.062  0.00  0.00     0.175 C 
HETATM   20  O           1     -33.833  -2.572 -17.509  0.00  0.00    -0.648 OA
HETATM   21  O           1     -33.382  -4.322 -16.316  0.00  0.00    -0.648 OA
ENDBRANCH  18  19
ENDBRANCH  17  18
BRANCH  17  22
HETATM   22  N           1     -30.826  -5.165 -16.027  0.00  0.00    -0.066 N 
HETATM   23  H           1     -31.542  -4.684 -15.438  0.00  0.00     0.275 HD
HETATM   24  H           1     -31.012  -6.194 -16.030  0.00  0.00     0.275 HD
HETATM   25  H           1     -29.874  -4.985 -15.635  0.00  0.00     0.275 HD
ENDBRANCH  17  22
ENDBRANCH   3  17
TORSDOF 8
ENDMDL
MODEL 7
REMARK VINA RESULT:      -6.0      2.423      6.039
REMARK  8 active torsions:
REMARK  status: ('A' for Active; 'I' for Inactive)
REMARK    1  A    between atoms: C_4  and  C_16 
REMARK    2  A    between atoms: N_6  and  C_16 
REMARK       I    between atoms: N_6  and  C_13 
REMARK    3  A    between atoms: C_10  and  C_11 
REMARK    4  A    between atoms: C_11  and  C_12 
REMARK    5  A    between atoms: C_12  and  C_13 
REMARK    6  A    between atoms: C_12  and  N_25 
REMARK    7  A    between atoms: C_16  and  C_17 
REMARK    8  A    between atoms: C_17  and  C_18 
ROOT
HETATM    1  N           1     -29.345  -5.027 -18.606  0.00  0.00    -0.344 N 
HETATM    2  H           1     -29.660  -4.596 -19.466  0.00  0.00     0.163 HD
HETATM    3  C           1     -28.570  -6.155 -18.649  0.00  0.00     0.249 C 
HETATM    4  O           1     -29.089  -7.245 -18.650  0.00  0.00    -0.271 OA
ENDROOT
BRANCH   1   5
HETATM    5  C           1     -29.714  -4.450 -17.328  0.00  0.00     0.191 C 
BRANCH   5   6
HETATM    6  C           1     -28.524  -4.477 -16.401  0.00  0.00     0.197 C 
HETATM    7  O           1     -28.470  -5.318 -15.478  0.00  0.00    -0.646 OA
HETATM    8  O           1     -27.592  -3.658 -16.556  0.00  0.00    -0.646 OA
ENDBRANCH   5   6
BRANCH   5   9
HETATM    9  C           1     -30.852  -5.257 -16.717  0.00  0.00     0.094 C 
BRANCH   9  10
HETATM   10  C           1     -32.106  -4.440 -16.726  0.00  0.00     0.028 A 
HETATM   11  C           1     -32.389  -3.453 -17.641  0.00  0.00     0.114 A 
HETATM   12  N           1     -33.618  -2.977 -17.279  0.00  0.00    -0.360 N 
HETATM   13  H           1     -34.153  -2.210 -17.758  0.00  0.00     0.166 HD
HETATM   14  C           1     -34.024  -3.678 -16.179  0.00  0.00     0.180 A 
HETATM   15  N           1     -33.128  -4.570 -15.823  0.00  0.00    -0.354 N 
ATOM     16  HN          1     -33.182  -5.222 -15.040  1.00  0.00     0.166 HD
ENDBRANCH   9  10
ENDBRANCH   5   9
ENDBRANCH   1   5
BRANCH   3  17
HETATM   17  C           1     -27.066  -6.035 -18.698  0.00  0.00     0.284 C 
BRANCH  17  18
HETATM   18  C           1     -26.543  -6.706 -19.961  0.00  0.00     0.155 C 
BRANCH  18  19
HETATM   19  C           1     -25.072  -7.005 -19.801  0.00  0.00     0.175 C 
HETATM   20  O           1     -24.577  -8.012 -20.351  0.00  0.00    -0.648 OA
HETATM   21  O           1     -24.351  -6.246 -19.119  0.00  0.00    -0.648 OA
ENDBRANCH  18  19
ENDBRANCH  17  18
BRANCH  17  22
HETATM   22  N           1     -26.473  -6.706 -17.495  0.00  0.00    -0.066 N 
HETATM   23  H           1     -25.646  -6.162 -17.163  0.00  0.00     0.275 HD
HETATM   24  H           1     -27.189  -6.751 -16.733  0.00  0.00     0.275 HD
HETATM   25  H           1     -26.174  -7.675 -17.748  0.00  0.00     0.275 HD
ENDBRANCH  17  22
ENDBRANCH   3  17
TORSDOF 8
ENDMDL
MODEL 8
REMARK VINA RESULT:      -5.9     11.183     13.582
REMARK  8 active torsions:
REMARK  status: ('A' for Active; 'I' for Inactive)
REMARK    1  A    between atoms: C_4  and  C_16 
REMARK    2  A    between atoms: N_6  and  C_16 
REMARK       I    between atoms: N_6  and  C_13 
REMARK    3  A    between atoms: C_10  and  C_11 
REMARK    4  A    between atoms: C_11  and  C_12 
REMARK    5  A    between atoms: C_12  and  C_13 
REMARK    6  A    between atoms: C_12  and  N_25 
REMARK    7  A    between atoms: C_16  and  C_17 
REMARK    8  A    between atoms: C_17  and  C_18 
ROOT
HETATM    1  N           1     -22.157  -4.931  -6.393  0.00  0.00    -0.344 N 
HETATM    2  H           1     -22.939  -4.334  -6.154  0.00  0.00     0.163 HD
HETATM    3  C           1     -21.498  -5.621  -5.412  0.00  0.00     0.249 C 
HETATM    4  O           1     -20.553  -5.120  -4.850  0.00  0.00    -0.271 OA
ENDROOT
BRANCH   1   5
HETATM    5  C           1     -21.735  -5.054  -7.775  0.00  0.00     0.191 C 
BRANCH   5   6
HETATM    6  C           1     -20.228  -5.118  -7.836  0.00  0.00     0.197 C 
HETATM    7  O           1     -19.560  -4.064  -7.901  0.00  0.00    -0.646 OA
HETATM    8  O           1     -19.648  -6.226  -7.824  0.00  0.00    -0.646 OA
ENDBRANCH   5   6
BRANCH   5   9
HETATM    9  C           1     -22.224  -3.847  -8.564  0.00  0.00     0.094 C 
BRANCH   9  10
HETATM   10  C           1     -22.509  -4.256  -9.976  0.00  0.00     0.028 A 
HETATM   11  C           1     -21.622  -4.132 -11.019  0.00  0.00     0.114 A 
HETATM   12  N           1     -22.287  -4.620 -12.110  0.00  0.00    -0.360 N 
HETATM   13  H           1     -21.912  -4.681 -13.090  0.00  0.00     0.166 HD
HETATM   14  C           1     -23.527  -5.011 -11.693  0.00  0.00     0.180 A 
HETATM   15  N           1     -23.689  -4.803 -10.407  0.00  0.00    -0.354 N 
ATOM     16  HN          1     -24.517  -5.005  -9.847  1.00  0.00     0.166 HD
ENDBRANCH   9  10
ENDBRANCH   5   9
ENDBRANCH   1   5
BRANCH   3  17
HETATM   17  C           1     -21.953  -7.009  -5.030  0.00  0.00     0.284 C 
BRANCH  17  18
HETATM   18  C           1     -21.671  -7.248  -3.552  0.00  0.00     0.155 C 
BRANCH  18  19
HETATM   19  C           1     -21.000  -8.588  -3.377  0.00  0.00     0.175 C 
HETATM   20  O           1     -21.691  -9.629  -3.321  0.00  0.00    -0.648 OA
HETATM   21  O           1     -19.756  -8.658  -3.289  0.00  0.00    -0.648 OA
ENDBRANCH  18  19
ENDBRANCH  17  18
BRANCH  17  22
HETATM   22  N           1     -21.209  -8.021  -5.849  0.00  0.00    -0.066 N 
HETATM   23  H           1     -20.819  -7.561  -6.702  0.00  0.00     0.275 HD
HETATM   24  H           1     -20.427  -8.422  -5.282  0.00  0.00     0.275 HD
HETATM   25  H           1     -21.861  -8.787  -6.134  0.00  0.00     0.275 HD
ENDBRANCH  17  22
ENDBRANCH   3  17
TORSDOF 8
ENDMDL
MODEL 9
REMARK VINA RESULT:      -5.9     11.533     13.721
REMARK  8 active torsions:
REMARK  status: ('A' for Active; 'I' for Inactive)
REMARK    1  A    between atoms: C_4  and  C_16 
REMARK    2  A    between atoms: N_6  and  C_16 
REMARK       I    between atoms: N_6  and  C_13 
REMARK    3  A    between atoms: C_10  and  C_11 
REMARK    4  A    between atoms: C_11  and  C_12 
REMARK    5  A    between atoms: C_12  and  C_13 
REMARK    6  A    between atoms: C_12  and  N_25 
REMARK    7  A    between atoms: C_16  and  C_17 
REMARK    8  A    between atoms: C_17  and  C_18 
ROOT
HETATM    1  N           1     -20.564  -6.328  -6.835  0.00  0.00    -0.344 N 
HETATM    2  H           1     -19.702  -6.667  -7.243  0.00  0.00     0.163 HD
HETATM    3  C           1     -21.020  -5.074  -7.141  0.00  0.00     0.249 C 
HETATM    4  O           1     -20.685  -4.128  -6.469  0.00  0.00    -0.271 OA
ENDROOT
BRANCH   1   5
HETATM    5  C           1     -21.316  -7.171  -5.926  0.00  0.00     0.191 C 
BRANCH   5   6
HETATM    6  C           1     -22.093  -6.306  -4.964  0.00  0.00     0.197 C 
HETATM    7  O           1     -23.276  -5.994  -5.220  0.00  0.00    -0.646 OA
HETATM    8  O           1     -21.552  -5.901  -3.912  0.00  0.00    -0.646 OA
ENDBRANCH   5   6
BRANCH   5   9
HETATM    9  C           1     -20.355  -8.060  -5.148  0.00  0.00     0.094 C 
BRANCH   9  10
HETATM   10  C           1     -20.936  -9.435  -5.024  0.00  0.00     0.028 A 
HETATM   11  C           1     -21.676  -9.876  -3.954  0.00  0.00     0.114 A 
HETATM   12  N           1     -21.998 -11.171  -4.255  0.00  0.00    -0.360 N 
HETATM   13  H           1     -22.563 -11.826  -3.659  0.00  0.00     0.166 HD
HETATM   14  C           1     -21.449 -11.457  -5.472  0.00  0.00     0.180 A 
HETATM   15  N           1     -20.801 -10.425  -5.961  0.00  0.00    -0.354 N 
ATOM     16  HN          1     -20.302 -10.372  -6.850  1.00  0.00     0.166 HD
ENDBRANCH   9  10
ENDBRANCH   5   9
ENDBRANCH   1   5
BRANCH   3  17
HETATM   17  C           1     -21.941  -4.873  -8.320  0.00  0.00     0.284 C 
BRANCH  17  18
HETATM   18  C           1     -21.199  -4.129  -9.424  0.00  0.00     0.155 C 
BRANCH  18  19
HETATM   19  C           1     -22.128  -3.905 -10.592  0.00  0.00     0.175 C 
HETATM   20  O           1     -23.026  -4.738 -10.844  0.00  0.00    -0.648 OA
HETATM   21  O           1     -22.000  -2.889 -11.307  0.00  0.00    -0.648 OA
ENDBRANCH  18  19
ENDBRANCH  17  18
BRANCH  17  22
HETATM   22  N           1     -23.133  -4.070  -7.891  0.00  0.00    -0.066 N 
HETATM   23  H           1     -22.852  -3.404  -7.137  0.00  0.00     0.275 HD
HETATM   24  H           1     -23.503  -3.532  -8.709  0.00  0.00     0.275 HD
HETATM   25  H           1     -23.875  -4.711  -7.531  0.00  0.00     0.275 HD
ENDBRANCH  17  22
ENDBRANCH   3  17
TORSDOF 8
ENDMDL
