MODEL 1
REMARK VINA RESULT:      -6.1      0.000      0.000
REMARK  9 active torsions:
REMARK  status: ('A' for Active; 'I' for Inactive)
REMARK       I    between atoms: C_2  and  N_3 
REMARK    1  A    between atoms: C_2  and  C_14 
REMARK    2  A    between atoms: N_3  and  C_7 
REMARK    3  A    between atoms: C_6  and  C_7 
REMARK    4  A    between atoms: C_7  and  C_8 
REMARK    5  A    between atoms: C_8  and  S_19 
REMARK    6  A    between atoms: C_9  and  C_14 
REMARK    7  A    between atoms: C_9  and  C_21 
REMARK    8  A    between atoms: C_14  and  N_18 
REMARK       I    between atoms: N_16  and  C_22 
REMARK    9  A    between atoms: C_21  and  C_22 
ROOT
HETATM    1  C           1     -33.583  -2.260 -11.405  0.00  0.00     0.275 C 
ENDROOT
BRANCH   1   2
HETATM    2  C           1     -34.537  -2.022 -12.549  0.00  0.00     0.249 C 
HETATM    3  N           1     -35.258  -0.859 -12.610  0.00  0.00    -0.344 N 
HETATM    4  H           1     -35.150  -0.159 -11.887  0.00  0.00     0.163 HD
HETATM    5  O           1     -34.665  -2.858 -13.412  0.00  0.00    -0.271 OA
BRANCH   3   6
HETATM    6  C           1     -36.175  -0.632 -13.710  0.00  0.00     0.194 C 
BRANCH   6   7
HETATM    7  C           1     -35.575   0.370 -14.665  0.00  0.00     0.197 C 
HETATM    8  O           1     -36.291   0.908 -15.537  0.00  0.00    -0.646 OA
HETATM    9  O           1     -34.361   0.661 -14.585  0.00  0.00    -0.646 OA
ENDBRANCH   6   7
BRANCH   6  10
HETATM   10  C           1     -37.492  -0.091 -13.167  0.00  0.00     0.106 C 
BRANCH  10  11
HETATM   11  S           1     -37.476  -0.166 -11.354  0.00  0.00    -0.180 SA
HETATM   12  H           1     -37.098   1.111 -11.163  0.00  0.00     0.101 HD
ENDBRANCH  10  11
ENDBRANCH   6  10
ENDBRANCH   3   6
ENDBRANCH   1   2
BRANCH   1  13
HETATM   13  C           1     -33.116  -3.709 -11.424  0.00  0.00     0.052 C 
BRANCH  13  14
HETATM   14  C           1     -33.995  -4.538 -10.496  0.00  0.00     0.105 C 
BRANCH  14  15
HETATM   15  C           1     -34.407  -5.810 -11.197  0.00  0.00     0.215 C 
HETATM   16  N           1     -34.760  -5.779 -12.519  0.00  0.00    -0.370 N 
HETATM   17  H           1     -34.744  -4.904 -13.026  0.00  0.00     0.159 HD
HETATM   18  H           1     -35.035  -6.631 -12.989  0.00  0.00     0.159 HD
HETATM   19  O           1     -34.425  -6.855 -10.591  0.00  0.00    -0.274 OA
ENDBRANCH  14  15
ENDBRANCH  13  14
ENDBRANCH   1  13
BRANCH   1  20
HETATM   20  N           1     -34.279  -1.976 -10.107  0.00  0.00    -0.066 N 
HETATM   21  H           1     -34.716  -2.854  -9.747  0.00  0.00     0.275 HD
HETATM   22  H           1     -33.587  -1.620  -9.410  0.00  0.00     0.275 HD
HETATM   23  H           1     -35.022  -1.256 -10.261  0.00  0.00     0.275 HD
ENDBRANCH   1  20
TORSDOF 9
ENDMDL
MODEL 2
REMARK VINA RESULT:      -5.7      1.833      2.112
REMARK  9 active torsions:
REMARK  status: ('A' for Active; 'I' for Inactive)
REMARK       I    between atoms: C_2  and  N_3 
REMARK    1  A    between atoms: C_2  and  C_14 
REMARK    2  A    between atoms: N_3  and  C_7 
REMARK    3  A    between atoms: C_6  and  C_7 
REMARK    4  A    between atoms: C_7  and  C_8 
REMARK    5  A    between atoms: C_8  and  S_19 
REMARK    6  A    between atoms: C_9  and  C_14 
REMARK    7  A    between atoms: C_9  and  C_21 
REMARK    8  A    between atoms: C_14  and  N_18 
REMARK       I    between atoms: N_16  and  C_22 
REMARK    9  A    between atoms: C_21  and  C_22 
ROOT
HETATM    1  C           1     -34.367  -2.378 -11.938  0.00  0.00     0.275 C 
ENDROOT
BRANCH   1   2
HETATM    2  C           1     -35.342  -1.666 -12.844  0.00  0.00     0.249 C 
HETATM    3  N           1     -34.931  -1.206 -14.066  0.00  0.00    -0.344 N 
HETATM    4  H           1     -33.972  -1.344 -14.362  0.00  0.00     0.163 HD
HETATM    5  O           1     -36.485  -1.503 -12.490  0.00  0.00    -0.271 OA
BRANCH   3   6
HETATM    6  C           1     -35.868  -0.522 -14.935  0.00  0.00     0.194 C 
BRANCH   6   7
HETATM    7  C           1     -35.775  -1.098 -16.327  0.00  0.00     0.197 C 
HETATM    8  O           1     -34.813  -1.835 -16.635  0.00  0.00    -0.646 OA
HETATM    9  O           1     -36.659  -0.837 -17.172  0.00  0.00    -0.646 OA
ENDBRANCH   6   7
BRANCH   6  10
HETATM   10  C           1     -35.530   0.963 -14.976  0.00  0.00     0.106 C 
BRANCH  10  11
HETATM   11  S           1     -34.519   1.393 -13.531  0.00  0.00    -0.180 SA
HETATM   12  H           1     -33.368   0.886 -14.010  0.00  0.00     0.101 HD
ENDBRANCH  10  11
ENDBRANCH   6  10
ENDBRANCH   3   6
ENDBRANCH   1   2
BRANCH   1  13
HETATM   13  C           1     -35.086  -3.494 -11.193  0.00  0.00     0.052 C 
BRANCH  13  14
HETATM   14  C           1     -34.064  -4.486 -10.653  0.00  0.00     0.105 C 
BRANCH  14  15
HETATM   15  C           1     -34.356  -5.860 -11.204  0.00  0.00     0.215 C 
HETATM   16  N           1     -34.844  -5.998 -12.476  0.00  0.00    -0.370 N 
HETATM   17  H           1     -35.009  -5.178 -13.046  0.00  0.00     0.159 HD
HETATM   18  H           1     -35.039  -6.918 -12.846  0.00  0.00     0.159 HD
HETATM   19  O           1     -34.158  -6.839 -10.524  0.00  0.00    -0.274 OA
ENDBRANCH  14  15
ENDBRANCH  13  14
ENDBRANCH   1  13
BRANCH   1  20
HETATM   20  N           1     -33.799  -1.402 -10.950  0.00  0.00    -0.066 N 
HETATM   21  H           1     -32.835  -1.129 -11.245  0.00  0.00     0.275 HD
HETATM   22  H           1     -34.406  -0.551 -10.913  0.00  0.00     0.275 HD
HETATM   23  H           1     -33.761  -1.846 -10.005  0.00  0.00     0.275 HD
ENDBRANCH   1  20
TORSDOF 9
ENDMDL
MODEL 3
REMARK VINA RESULT:      -5.7     10.075     11.384
REMARK  9 active torsions:
REMARK  status: ('A' for Active; 'I' for Inactive)
REMARK       I    between atoms: C_2  and  N_3 
REMARK    1  A    between atoms: C_2  and  C_14 
REMARK    2  A    between atoms: N_3  and  C_7 
REMARK    3  A    between atoms: C_6  and  C_7 
REMARK    4  A    between atoms: C_7  and  C_8 
REMARK    5  A    between atoms: C_8  and  S_19 
REMARK    6  A    between atoms: C_9  and  C_14 
REMARK    7  A    between atoms: C_9  and  C_21 
REMARK    8  A    between atoms: C_14  and  N_18 
REMARK       I    between atoms: N_16  and  C_22 
REMARK    9  A    between atoms: C_21  and  C_22 
ROOT
HETATM    1  C           1     -28.706  -6.437 -17.178  0.00  0.00     0.275 C 
ENDROOT
BRANCH   1   2
HETATM    2  C           1     -28.147  -6.204 -18.560  0.00  0.00     0.249 C 
HETATM    3  N           1     -27.159  -7.018 -19.045  0.00  0.00    -0.344 N 
HETATM    4  H           1     -26.804  -7.776 -18.476  0.00  0.00     0.163 HD
HETATM    5  O           1     -28.572  -5.299 -19.239  0.00  0.00    -0.271 OA
BRANCH   3   6
HETATM    6  C           1     -26.622  -6.793 -20.373  0.00  0.00     0.194 C 
BRANCH   6   7
HETATM    7  C           1     -26.675  -8.079 -21.161  0.00  0.00     0.197 C 
HETATM    8  O           1     -25.641  -8.522 -21.706  0.00  0.00    -0.646 OA
HETATM    9  O           1     -27.754  -8.702 -21.268  0.00  0.00    -0.646 OA
ENDBRANCH   6   7
BRANCH   6  10
HETATM   10  C           1     -25.177  -6.324 -20.262  0.00  0.00     0.106 C 
BRANCH  10  11
HETATM   11  S           1     -24.416  -7.052 -18.783  0.00  0.00    -0.180 SA
HETATM   12  H           1     -24.124  -8.239 -19.345  0.00  0.00     0.101 HD
ENDBRANCH  10  11
ENDBRANCH   6  10
ENDBRANCH   3   6
ENDBRANCH   1   2
BRANCH   1  13
HETATM   13  C           1     -29.106  -5.104 -16.559  0.00  0.00     0.052 C 
BRANCH  13  14
HETATM   14  C           1     -30.614  -4.919 -16.681  0.00  0.00     0.105 C 
BRANCH  14  15
HETATM   15  C           1     -30.905  -3.611 -17.374  0.00  0.00     0.215 C 
HETATM   16  N           1     -29.875  -2.797 -17.762  0.00  0.00    -0.370 N 
HETATM   17  H           1     -28.918  -3.073 -17.583  0.00  0.00     0.159 HD
HETATM   18  H           1     -30.070  -1.920 -18.227  0.00  0.00     0.159 HD
HETATM   19  O           1     -32.048  -3.282 -17.588  0.00  0.00    -0.274 OA
ENDBRANCH  14  15
ENDBRANCH  13  14
ENDBRANCH   1  13
BRANCH   1  20
HETATM   20  N           1     -27.663  -7.093 -16.322  0.00  0.00    -0.066 N 
HETATM   21  H           1     -27.924  -6.988 -15.315  0.00  0.00     0.275 HD
HETATM   22  H           1     -27.603  -8.108 -16.562  0.00  0.00     0.275 HD
HETATM   23  H           1     -26.738  -6.637 -16.490  0.00  0.00     0.275 HD
ENDBRANCH   1  20
TORSDOF 9
ENDMDL
MODEL 4
REMARK VINA RESULT:      -5.7     12.170     13.468
REMARK  9 active torsions:
REMARK  status: ('A' for Active; 'I' for Inactive)
REMARK       I    between atoms: C_2  and  N_3 
REMARK    1  A    between atoms: C_2  and  C_14 
REMARK    2  A    between atoms: N_3  and  C_7 
REMARK    3  A    between atoms: C_6  and  C_7 
REMARK    4  A    between atoms: C_7  and  C_8 
REMARK    5  A    between atoms: C_8  and  S_19 
REMARK    6  A    between atoms: C_9  and  C_14 
REMARK    7  A    between atoms: C_9  and  C_21 
REMARK    8  A    between atoms: C_14  and  N_18 
REMARK       I    between atoms: N_16  and  C_22 
REMARK    9  A    between atoms: C_21  and  C_22 
ROOT
HETATM    1  C           1     -25.394  -7.636 -20.302  0.00  0.00     0.275 C 
ENDROOT
BRANCH   1   2
HETATM    2  C           1     -25.311  -6.907 -18.983  0.00  0.00     0.249 C 
HETATM    3  N           1     -26.449  -6.670 -18.259  0.00  0.00    -0.344 N 
HETATM    4  H           1     -27.345  -6.984 -18.608  0.00  0.00     0.163 HD
HETATM    5  O           1     -24.241  -6.533 -18.566  0.00  0.00    -0.271 OA
BRANCH   3   6
HETATM    6  C           1     -26.368  -5.970 -16.991  0.00  0.00     0.194 C 
BRANCH   6   7
HETATM    7  C           1     -26.324  -6.973 -15.865  0.00  0.00     0.197 C 
HETATM    8  O           1     -27.388  -7.408 -15.374  0.00  0.00    -0.646 OA
HETATM    9  O           1     -25.223  -7.368 -15.423  0.00  0.00    -0.646 OA
ENDBRANCH   6   7
BRANCH   6  10
HETATM   10  C           1     -27.591  -5.076 -16.829  0.00  0.00     0.106 C 
BRANCH  10  11
HETATM   11  S           1     -28.729  -5.349 -18.216  0.00  0.00    -0.180 SA
HETATM   12  H           1     -29.632  -4.424 -17.842  0.00  0.00     0.101 HD
ENDBRANCH  10  11
ENDBRANCH   6  10
ENDBRANCH   3   6
ENDBRANCH   1   2
BRANCH   1  13
HETATM   13  C           1     -24.596  -6.876 -21.354  0.00  0.00     0.052 C 
BRANCH  13  14
HETATM   14  C           1     -24.096  -7.850 -22.413  0.00  0.00     0.105 C 
BRANCH  14  15
HETATM   15  C           1     -22.773  -8.431 -21.978  0.00  0.00     0.215 C 
HETATM   16  N           1     -22.436  -8.448 -20.651  0.00  0.00    -0.370 N 
HETATM   17  H           1     -23.074  -8.069 -19.963  0.00  0.00     0.159 HD
HETATM   18  H           1     -21.550  -8.838 -20.359  0.00  0.00     0.159 HD
HETATM   19  O           1     -22.012  -8.883 -22.800  0.00  0.00    -0.274 OA
ENDBRANCH  14  15
ENDBRANCH  13  14
ENDBRANCH   1  13
BRANCH   1  20
HETATM   20  N           1     -26.828  -7.728 -20.732  0.00  0.00    -0.066 N 
HETATM   21  H           1     -27.052  -6.930 -21.369  0.00  0.00     0.275 HD
HETATM   22  H           1     -26.984  -8.630 -21.235  0.00  0.00     0.275 HD
HETATM   23  H           1     -27.447  -7.685 -19.891  0.00  0.00     0.275 HD
ENDBRANCH   1  20
TORSDOF 9
ENDMDL
MODEL 5
REMARK VINA RESULT:      -5.7     13.026     14.464
REMARK  9 active torsions:
REMARK  status: ('A' for Active; 'I' for Inactive)
REMARK       I    between atoms: C_2  and  N_3 
REMARK    1  A    between atoms: C_2  and  C_14 
REMARK    2  A    between atoms: N_3  and  C_7 
REMARK    3  A    between atoms: C_6  and  C_7 
REMARK    4  A    between atoms: C_7  and  C_8 
REMARK    5  A    between atoms: C_8  and  S_19 
REMARK    6  A    between atoms: C_9  and  C_14 
REMARK    7  A    between atoms: C_9  and  C_21 
REMARK    8  A    between atoms: C_14  and  N_18 
REMARK       I    between atoms: N_16  and  C_22 
REMARK    9  A    between atoms: C_21  and  C_22 
ROOT
HETATM    1  C           1     -21.269  -5.844  -6.970  0.00  0.00     0.275 C 
ENDROOT
BRANCH   1   2
HETATM    2  C           1     -21.814  -4.652  -7.717  0.00  0.00     0.249 C 
HETATM    3  N           1     -22.276  -4.798  -8.998  0.00  0.00    -0.344 N 
HETATM    4  H           1     -22.251  -5.706  -9.443  0.00  0.00     0.163 HD
HETATM    5  O           1     -21.845  -3.568  -7.184  0.00  0.00    -0.271 OA
BRANCH   3   6
HETATM    6  C           1     -22.799  -3.651  -9.714  0.00  0.00     0.194 C 
BRANCH   6   7
HETATM    7  C           1     -24.226  -3.924 -10.124  0.00  0.00     0.197 C 
HETATM    8  O           1     -24.779  -4.993  -9.787  0.00  0.00    -0.646 OA
HETATM    9  O           1     -24.853  -3.081 -10.801  0.00  0.00    -0.646 OA
ENDBRANCH   6   7
BRANCH   6  10
HETATM   10  C           1     -21.953  -3.401 -10.956  0.00  0.00     0.106 C 
BRANCH  10  11
HETATM   11  S           1     -20.429  -4.382 -10.858  0.00  0.00    -0.180 SA
HETATM   12  H           1     -20.223  -4.191  -9.542  0.00  0.00     0.101 HD
ENDBRANCH  10  11
ENDBRANCH   6  10
ENDBRANCH   3   6
ENDBRANCH   1   2
BRANCH   1  13
HETATM   13  C           1     -21.252  -5.545  -5.477  0.00  0.00     0.052 C 
BRANCH  13  14
HETATM   14  C           1     -22.139  -6.545  -4.748  0.00  0.00     0.105 C 
BRANCH  14  15
HETATM   15  C           1     -21.722  -6.627  -3.300  0.00  0.00     0.215 C 
HETATM   16  N           1     -22.384  -5.892  -2.354  0.00  0.00    -0.370 N 
HETATM   17  H           1     -23.153  -5.293  -2.626  0.00  0.00     0.159 HD
HETATM   18  H           1     -22.105  -5.946  -1.384  0.00  0.00     0.159 HD
HETATM   19  O           1     -20.804  -7.342  -2.975  0.00  0.00    -0.274 OA
ENDBRANCH  14  15
ENDBRANCH  13  14
ENDBRANCH   1  13
BRANCH   1  20
HETATM   20  N           1     -19.873  -6.131  -7.439  0.00  0.00    -0.066 N 
HETATM   21  H           1     -19.645  -7.134  -7.259  0.00  0.00     0.275 HD
HETATM   22  H           1     -19.803  -5.936  -8.463  0.00  0.00     0.275 HD
HETATM   23  H           1     -19.200  -5.522  -6.920  0.00  0.00     0.275 HD
ENDBRANCH   1  20
TORSDOF 9
ENDMDL
MODEL 6
REMARK VINA RESULT:      -5.7     10.395     11.640
REMARK  9 active torsions:
REMARK  status: ('A' for Active; 'I' for Inactive)
REMARK       I    between atoms: C_2  and  N_3 
REMARK    1  A    between atoms: C_2  and  C_14 
REMARK    2  A    between atoms: N_3  and  C_7 
REMARK    3  A    between atoms: C_6  and  C_7 
REMARK    4  A    between atoms: C_7  and  C_8 
REMARK    5  A    between atoms: C_8  and  S_19 
REMARK    6  A    between atoms: C_9  and  C_14 
REMARK    7  A    between atoms: C_9  and  C_21 
REMARK    8  A    between atoms: C_14  and  N_18 
REMARK       I    between atoms: N_16  and  C_22 
REMARK    9  A    between atoms: C_21  and  C_22 
ROOT
HETATM    1  C           1     -25.045  -6.769 -17.160  0.00  0.00     0.275 C 
ENDROOT
BRANCH   1   2
HETATM    2  C           1     -26.360  -6.918 -16.436  0.00  0.00     0.249 C 
HETATM    3  N           1     -27.529  -6.569 -17.059  0.00  0.00    -0.344 N 
HETATM    4  H           1     -27.510  -6.213 -18.007  0.00  0.00     0.163 HD
HETATM    5  O           1     -26.382  -7.344 -15.306  0.00  0.00    -0.271 OA
BRANCH   3   6
HETATM    6  C           1     -28.792  -6.712 -16.362  0.00  0.00     0.194 C 
BRANCH   6   7
HETATM    7  C           1     -29.825  -7.279 -17.306  0.00  0.00     0.197 C 
HETATM    8  O           1     -29.521  -8.216 -18.075  0.00  0.00    -0.646 OA
HETATM    9  O           1     -30.984  -6.810 -17.318  0.00  0.00    -0.646 OA
ENDBRANCH   6   7
BRANCH   6  10
HETATM   10  C           1     -29.252  -5.348 -15.864  0.00  0.00     0.106 C 
BRANCH  10  11
HETATM   11  S           1     -28.652  -4.058 -16.991  0.00  0.00    -0.180 SA
HETATM   12  H           1     -29.207  -4.574 -18.103  0.00  0.00     0.101 HD
ENDBRANCH  10  11
ENDBRANCH   6  10
ENDBRANCH   3   6
ENDBRANCH   1   2
BRANCH   1  13
HETATM   13  C           1     -25.283  -6.822 -18.664  0.00  0.00     0.052 C 
BRANCH  13  14
HETATM   14  C           1     -23.971  -7.130 -19.375  0.00  0.00     0.105 C 
BRANCH  14  15
HETATM   15  C           1     -24.241  -8.017 -20.565  0.00  0.00     0.215 C 
HETATM   16  N           1     -23.230  -8.768 -21.102  0.00  0.00    -0.370 N 
HETATM   17  H           1     -22.302  -8.727 -20.701  0.00  0.00     0.159 HD
HETATM   18  H           1     -23.410  -9.363 -21.900  0.00  0.00     0.159 HD
HETATM   19  O           1     -25.349  -8.067 -21.044  0.00  0.00    -0.274 OA
ENDBRANCH  14  15
ENDBRANCH  13  14
ENDBRANCH   1  13
BRANCH   1  20
HETATM   20  N           1     -24.127  -7.886 -16.760  0.00  0.00    -0.066 N 
HETATM   21  H           1     -23.917  -7.815 -15.739  0.00  0.00     0.275 HD
HETATM   22  H           1     -24.586  -8.803 -16.958  0.00  0.00     0.275 HD
HETATM   23  H           1     -23.236  -7.816 -17.303  0.00  0.00     0.275 HD
ENDBRANCH   1  20
TORSDOF 9
ENDMDL
MODEL 7
REMARK VINA RESULT:      -5.4     14.163     16.498
REMARK  9 active torsions:
REMARK  status: ('A' for Active; 'I' for Inactive)
REMARK       I    between atoms: C_2  and  N_3 
REMARK    1  A    between atoms: C_2  and  C_14 
REMARK    2  A    between atoms: N_3  and  C_7 
REMARK    3  A    between atoms: C_6  and  C_7 
REMARK    4  A    between atoms: C_7  and  C_8 
REMARK    5  A    between atoms: C_8  and  S_19 
REMARK    6  A    between atoms: C_9  and  C_14 
REMARK    7  A    between atoms: C_9  and  C_21 
REMARK    8  A    between atoms: C_14  and  N_18 
REMARK       I    between atoms: N_16  and  C_22 
REMARK    9  A    between atoms: C_21  and  C_22 
ROOT
HETATM    1  C           1     -20.488  -4.964  -6.586  0.00  0.00     0.275 C 
ENDROOT
BRANCH   1   2
HETATM    2  C           1     -21.380  -5.769  -5.673  0.00  0.00     0.249 C 
HETATM    3  N           1     -20.833  -6.684  -4.813  0.00  0.00    -0.344 N 
HETATM    4  H           1     -19.830  -6.820  -4.790  0.00  0.00     0.163 HD
HETATM    5  O           1     -22.576  -5.606  -5.701  0.00  0.00    -0.271 OA
BRANCH   3   6
HETATM    6  C           1     -21.691  -7.457  -3.937  0.00  0.00     0.194 C 
BRANCH   6   7
HETATM    7  C           1     -21.631  -6.884  -2.542  0.00  0.00     0.197 C 
HETATM    8  O           1     -22.335  -5.895  -2.242  0.00  0.00    -0.646 OA
HETATM    9  O           1     -20.878  -7.398  -1.687  0.00  0.00    -0.646 OA
ENDBRANCH   6   7
BRANCH   6  10
HETATM   10  C           1     -21.217  -8.905  -3.912  0.00  0.00     0.106 C 
BRANCH  10  11
HETATM   11  S           1     -19.593  -9.023  -4.715  0.00  0.00    -0.180 SA
HETATM   12  H           1     -18.874  -8.687  -3.628  0.00  0.00     0.101 HD
ENDBRANCH  10  11
ENDBRANCH   6  10
ENDBRANCH   3   6
ENDBRANCH   1   2
BRANCH   1  13
HETATM   13  C           1     -21.287  -3.824  -7.202  0.00  0.00     0.052 C 
BRANCH  13  14
HETATM   14  C           1     -21.465  -4.076  -8.694  0.00  0.00     0.105 C 
BRANCH  14  15
HETATM   15  C           1     -22.936  -4.183  -9.013  0.00  0.00     0.215 C 
HETATM   16  N           1     -23.864  -4.068  -8.014  0.00  0.00    -0.370 N 
HETATM   17  H           1     -23.563  -3.912  -7.060  0.00  0.00     0.159 HD
HETATM   18  H           1     -24.850  -4.138  -8.227  0.00  0.00     0.159 HD
HETATM   19  O           1     -23.295  -4.368 -10.152  0.00  0.00    -0.274 OA
ENDBRANCH  14  15
ENDBRANCH  13  14
ENDBRANCH   1  13
BRANCH   1  20
HETATM   20  N           1     -19.959  -5.850  -7.675  0.00  0.00    -0.066 N 
HETATM   21  H           1     -19.945  -6.841  -7.342  0.00  0.00     0.275 HD
HETATM   22  H           1     -20.575  -5.774  -8.516  0.00  0.00     0.275 HD
HETATM   23  H           1     -18.989  -5.554  -7.925  0.00  0.00     0.275 HD
ENDBRANCH   1  20
TORSDOF 9
ENDMDL
MODEL 8
REMARK VINA RESULT:      -5.4      2.933      5.087
REMARK  9 active torsions:
REMARK  status: ('A' for Active; 'I' for Inactive)
REMARK       I    between atoms: C_2  and  N_3 
REMARK    1  A    between atoms: C_2  and  C_14 
REMARK    2  A    between atoms: N_3  and  C_7 
REMARK    3  A    between atoms: C_6  and  C_7 
REMARK    4  A    between atoms: C_7  and  C_8 
REMARK    5  A    between atoms: C_8  and  S_19 
REMARK    6  A    between atoms: C_9  and  C_14 
REMARK    7  A    between atoms: C_9  and  C_21 
REMARK    8  A    between atoms: C_14  and  N_18 
REMARK       I    between atoms: N_16  and  C_22 
REMARK    9  A    between atoms: C_21  and  C_22 
ROOT
HETATM    1  C           1     -35.803   0.323 -14.796  0.00  0.00     0.275 C 
ENDROOT
BRANCH   1   2
HETATM    2  C           1     -35.921  -0.712 -13.703  0.00  0.00     0.249 C 
HETATM    3  N           1     -34.800  -1.337 -13.227  0.00  0.00    -0.344 N 
HETATM    4  H           1     -33.891  -1.104 -13.608  0.00  0.00     0.163 HD
HETATM    5  O           1     -37.006  -0.988 -13.249  0.00  0.00    -0.271 OA
BRANCH   3   6
HETATM    6  C           1     -34.915  -2.331 -12.178  0.00  0.00     0.194 C 
BRANCH   6   7
HETATM    7  C           1     -34.567  -1.703 -10.851  0.00  0.00     0.197 C 
HETATM    8  O           1     -33.392  -1.751 -10.426  0.00  0.00    -0.646 OA
HETATM    9  O           1     -35.453  -1.135 -10.176  0.00  0.00    -0.646 OA
ENDBRANCH   6   7
BRANCH   6  10
HETATM   10  C           1     -33.958  -3.481 -12.463  0.00  0.00     0.106 C 
BRANCH  10  11
HETATM   11  S           1     -34.717  -5.044 -11.939  0.00  0.00    -0.180 SA
HETATM   12  H           1     -34.963  -4.664 -10.672  0.00  0.00     0.101 HD
ENDBRANCH  10  11
ENDBRANCH   6  10
ENDBRANCH   3   6
ENDBRANCH   1   2
BRANCH   1  13
HETATM   13  C           1     -34.898  -0.206 -15.901  0.00  0.00     0.052 C 
BRANCH  13  14
HETATM   14  C           1     -35.581  -1.372 -16.603  0.00  0.00     0.105 C 
BRANCH  14  15
HETATM   15  C           1     -34.684  -2.585 -16.552  0.00  0.00     0.215 C 
HETATM   16  N           1     -33.754  -2.789 -17.535  0.00  0.00    -0.370 N 
HETATM   17  H           1     -33.668  -2.127 -18.296  0.00  0.00     0.159 HD
HETATM   18  H           1     -33.152  -3.601 -17.501  0.00  0.00     0.159 HD
HETATM   19  O           1     -34.786  -3.374 -15.643  0.00  0.00    -0.274 OA
ENDBRANCH  14  15
ENDBRANCH  13  14
ENDBRANCH   1  13
BRANCH   1  20
HETATM   20  N           1     -35.216   1.582 -14.228  0.00  0.00    -0.066 N 
HETATM   21  H           1     -35.938   2.074 -13.655  0.00  0.00     0.275 HD
HETATM   22  H           1     -34.396   1.344 -13.626  0.00  0.00     0.275 HD
HETATM   23  H           1     -34.908   2.204 -15.009  0.00  0.00     0.275 HD
ENDBRANCH   1  20
TORSDOF 9
ENDMDL
MODEL 9
REMARK VINA RESULT:      -5.2      9.297     10.915
REMARK  9 active torsions:
REMARK  status: ('A' for Active; 'I' for Inactive)
REMARK       I    between atoms: C_2  and  N_3 
REMARK    1  A    between atoms: C_2  and  C_14 
REMARK    2  A    between atoms: N_3  and  C_7 
REMARK    3  A    between atoms: C_6  and  C_7 
REMARK    4  A    between atoms: C_7  and  C_8 
REMARK    5  A    between atoms: C_8  and  S_19 
REMARK    6  A    between atoms: C_9  and  C_14 
REMARK    7  A    between atoms: C_9  and  C_21 
REMARK    8  A    between atoms: C_14  and  N_18 
REMARK       I    between atoms: N_16  and  C_22 
REMARK    9  A    between atoms: C_21  and  C_22 
ROOT
HETATM    1  C           1     -28.703  -4.638 -17.498  0.00  0.00     0.275 C 
ENDROOT
BRANCH   1   2
HETATM    2  C           1     -27.791  -5.809 -17.771  0.00  0.00     0.249 C 
HETATM    3  N           1     -26.543  -5.851 -17.209  0.00  0.00    -0.344 N 
HETATM    4  H           1     -26.233  -5.096 -16.610  0.00  0.00     0.163 HD
HETATM    5  O           1     -28.163  -6.710 -18.485  0.00  0.00    -0.271 OA
BRANCH   3   6
HETATM    6  C           1     -25.667  -6.977 -17.472  0.00  0.00     0.194 C 
BRANCH   6   7
HETATM    7  C           1     -24.999  -7.403 -16.189  0.00  0.00     0.197 C 
HETATM    8  O           1     -24.031  -8.193 -16.221  0.00  0.00    -0.646 OA
HETATM    9  O           1     -25.414  -6.967 -15.093  0.00  0.00    -0.646 OA
ENDBRANCH   6   7
BRANCH   6  10
HETATM   10  C           1     -24.607  -6.567 -18.486  0.00  0.00     0.106 C 
BRANCH  10  11
HETATM   11  S           1     -25.009  -7.282 -20.105  0.00  0.00    -0.180 SA
HETATM   12  H           1     -26.162  -7.860 -19.722  0.00  0.00     0.101 HD
ENDBRANCH  10  11
ENDBRANCH   6  10
ENDBRANCH   3   6
ENDBRANCH   1   2
BRANCH   1  13
HETATM   13  C           1     -29.726  -5.026 -16.439  0.00  0.00     0.052 C 
BRANCH  13  14
HETATM   14  C           1     -31.017  -5.468 -17.117  0.00  0.00     0.105 C 
BRANCH  14  15
HETATM   15  C           1     -32.080  -4.418 -16.906  0.00  0.00     0.215 C 
HETATM   16  N           1     -33.254  -4.747 -16.282  0.00  0.00    -0.370 N 
HETATM   17  H           1     -33.408  -5.695 -15.963  0.00  0.00     0.159 HD
HETATM   18  H           1     -33.966  -4.044 -16.140  0.00  0.00     0.159 HD
HETATM   19  O           1     -31.896  -3.286 -17.287  0.00  0.00    -0.274 OA
ENDBRANCH  14  15
ENDBRANCH  13  14
ENDBRANCH   1  13
BRANCH   1  20
HETATM   20  N           1     -29.413  -4.254 -18.762  0.00  0.00    -0.066 N 
HETATM   21  H           1     -29.098  -4.875 -19.541  0.00  0.00     0.275 HD
HETATM   22  H           1     -30.445  -4.359 -18.629  0.00  0.00     0.275 HD
HETATM   23  H           1     -29.190  -3.261 -18.998  0.00  0.00     0.275 HD
ENDBRANCH   1  20
TORSDOF 9
ENDMDL
