MODEL 1
REMARK VINA RESULT:      -5.3      0.000      0.000
REMARK  9 active torsions:
REMARK  status: ('A' for Active; 'I' for Inactive)
REMARK    1  A    between atoms: C_1  and  C_2 
REMARK    2  A    between atoms: C_2  and  C_3 
REMARK    3  A    between atoms: C_2  and  N_12 
REMARK    4  A    between atoms: C_3  and  C_15 
REMARK    5  A    between atoms: S_4  and  C_15 
REMARK    6  A    between atoms: N_7  and  C_10 
REMARK    7  A    between atoms: S_8  and  C_9 
REMARK    8  A    between atoms: C_9  and  C_10 
REMARK    9  A    between atoms: C_10  and  C_11 
REMARK       I    between atoms: C_11  and  N_12 
ROOT
HETATM    1  C           1     -25.369  -6.853 -18.988  0.00  0.00     0.249 C 
HETATM    2  N           1     -26.506  -6.641 -18.256  0.00  0.00    -0.345 N 
HETATM    3  O           1     -24.302  -6.467 -18.572  0.00  0.00    -0.271 OA
HETATM    4  H           1     -27.400  -6.964 -18.604  0.00  0.00     0.163 HD
ENDROOT
BRANCH   1   5
HETATM    5  C           1     -25.448  -7.568 -20.314  0.00  0.00     0.283 C 
BRANCH   5   6
HETATM    6  N           1     -26.884  -7.846 -20.647  0.00  0.00    -0.066 N 
HETATM    7  H           1     -27.387  -6.943 -20.801  0.00  0.00     0.275 HD
HETATM    8  H           1     -26.934  -8.425 -21.515  0.00  0.00     0.275 HD
HETATM    9  H           1     -27.330  -8.362 -19.856  0.00  0.00     0.275 HD
ENDBRANCH   5   6
BRANCH   5  10
HETATM   10  C           1     -24.834  -6.695 -21.401  0.00  0.00     0.113 C 
BRANCH  10  11
HETATM   11  S           1     -23.874  -7.731 -22.540  0.00  0.00    -0.180 SA
HETATM   12  H           1     -23.881  -8.832 -21.767  0.00  0.00     0.101 HD
ENDBRANCH  10  11
ENDBRANCH   5  10
ENDBRANCH   1   5
BRANCH   2  13
HETATM   13  C           1     -26.431  -5.953 -16.982  0.00  0.00     0.186 C 
BRANCH  13  14
HETATM   14  C           1     -26.385  -6.968 -15.865  0.00  0.00     0.196 C 
HETATM   15  O           1     -27.448  -7.405 -15.375  0.00  0.00    -0.646 OA
HETATM   16  O           1     -25.285  -7.370 -15.432  0.00  0.00    -0.646 OA
ENDBRANCH  13  14
BRANCH  13  17
HETATM   17  C           1     -27.656  -5.065 -16.812  0.00  0.00     0.046 C 
BRANCH  17  18
HETATM   18  C           1     -28.594  -5.262 -17.995  0.00  0.00     0.076 C 
BRANCH  18  19
HETATM   19  S           1     -30.198  -5.872 -17.402  0.00  0.00    -0.173 SA
HETATM   20  C           1     -30.053  -7.536 -18.111  0.00  0.00     0.089 C 
ENDBRANCH  18  19
ENDBRANCH  17  18
ENDBRANCH  13  17
ENDBRANCH   2  13
TORSDOF 9
ENDMDL
MODEL 2
REMARK VINA RESULT:      -4.8      2.195      2.931
REMARK  9 active torsions:
REMARK  status: ('A' for Active; 'I' for Inactive)
REMARK    1  A    between atoms: C_1  and  C_2 
REMARK    2  A    between atoms: C_2  and  C_3 
REMARK    3  A    between atoms: C_2  and  N_12 
REMARK    4  A    between atoms: C_3  and  C_15 
REMARK    5  A    between atoms: S_4  and  C_15 
REMARK    6  A    between atoms: N_7  and  C_10 
REMARK    7  A    between atoms: S_8  and  C_9 
REMARK    8  A    between atoms: C_9  and  C_10 
REMARK    9  A    between atoms: C_10  and  C_11 
REMARK       I    between atoms: C_11  and  N_12 
ROOT
HETATM    1  C           1     -26.290  -6.612 -18.827  0.00  0.00     0.249 C 
HETATM    2  N           1     -27.555  -6.866 -19.285  0.00  0.00    -0.345 N 
HETATM    3  O           1     -26.125  -6.217 -17.697  0.00  0.00    -0.271 OA
HETATM    4  H           1     -27.693  -7.197 -20.231  0.00  0.00     0.163 HD
ENDROOT
BRANCH   1   5
HETATM    5  C           1     -25.102  -6.824 -19.733  0.00  0.00     0.283 C 
BRANCH   5   6
HETATM    6  N           1     -23.987  -7.457 -18.953  0.00  0.00    -0.066 N 
HETATM    7  H           1     -24.296  -7.612 -17.967  0.00  0.00     0.275 HD
HETATM    8  H           1     -23.735  -8.373 -19.387  0.00  0.00     0.275 HD
HETATM    9  H           1     -23.155  -6.824 -18.961  0.00  0.00     0.275 HD
ENDBRANCH   5   6
BRANCH   5  10
HETATM   10  C           1     -25.498  -7.739 -20.885  0.00  0.00     0.113 C 
BRANCH  10  11
HETATM   11  S           1     -24.103  -7.905 -22.033  0.00  0.00    -0.180 SA
HETATM   12  H           1     -23.197  -7.304 -21.240  0.00  0.00     0.101 HD
ENDBRANCH  10  11
ENDBRANCH   5  10
ENDBRANCH   1   5
BRANCH   2  13
HETATM   13  C           1     -28.696  -6.661 -18.414  0.00  0.00     0.186 C 
BRANCH  13  14
HETATM   14  C           1     -29.756  -7.690 -18.725  0.00  0.00     0.196 C 
HETATM   15  O           1     -30.920  -7.536 -18.299  0.00  0.00    -0.646 OA
HETATM   16  O           1     -29.468  -8.695 -19.409  0.00  0.00    -0.646 OA
ENDBRANCH  13  14
BRANCH  13  17
HETATM   17  C           1     -29.261  -5.265 -18.640  0.00  0.00     0.046 C 
BRANCH  17  18
HETATM   18  C           1     -29.089  -4.437 -17.374  0.00  0.00     0.076 C 
BRANCH  18  19
HETATM   19  S           1     -30.359  -4.906 -16.165  0.00  0.00    -0.173 SA
HETATM   20  C           1     -29.228  -5.696 -14.985  0.00  0.00     0.089 C 
ENDBRANCH  18  19
ENDBRANCH  17  18
ENDBRANCH  13  17
ENDBRANCH   2  13
TORSDOF 9
ENDMDL
MODEL 3
REMARK VINA RESULT:      -4.6      1.881      2.347
REMARK  9 active torsions:
REMARK  status: ('A' for Active; 'I' for Inactive)
REMARK    1  A    between atoms: C_1  and  C_2 
REMARK    2  A    between atoms: C_2  and  C_3 
REMARK    3  A    between atoms: C_2  and  N_12 
REMARK    4  A    between atoms: C_3  and  C_15 
REMARK    5  A    between atoms: S_4  and  C_15 
REMARK    6  A    between atoms: N_7  and  C_10 
REMARK    7  A    between atoms: S_8  and  C_9 
REMARK    8  A    between atoms: C_9  and  C_10 
REMARK    9  A    between atoms: C_10  and  C_11 
REMARK       I    between atoms: C_11  and  N_12 
ROOT
HETATM    1  C           1     -26.229  -6.406 -19.658  0.00  0.00     0.249 C 
HETATM    2  N           1     -26.538  -6.360 -18.325  0.00  0.00    -0.345 N 
HETATM    3  O           1     -26.999  -5.955 -20.473  0.00  0.00    -0.271 OA
HETATM    4  H           1     -25.894  -6.738 -17.643  0.00  0.00     0.163 HD
ENDROOT
BRANCH   1   5
HETATM    5  C           1     -24.927  -7.019 -20.110  0.00  0.00     0.283 C 
BRANCH   5   6
HETATM    6  N           1     -24.250  -7.672 -18.941  0.00  0.00    -0.066 N 
HETATM    7  H           1     -24.615  -8.644 -18.826  0.00  0.00     0.275 HD
HETATM    8  H           1     -23.220  -7.705 -19.108  0.00  0.00     0.275 HD
HETATM    9  H           1     -24.447  -7.122 -18.074  0.00  0.00     0.275 HD
ENDBRANCH   5   6
BRANCH   5  10
HETATM   10  C           1     -25.201  -8.062 -21.185  0.00  0.00     0.113 C 
BRANCH  10  11
HETATM   11  S           1     -23.921  -7.962 -22.467  0.00  0.00    -0.180 SA
HETATM   12  H           1     -23.908  -9.275 -22.757  0.00  0.00     0.101 HD
ENDBRANCH  10  11
ENDBRANCH   5  10
ENDBRANCH   1   5
BRANCH   2  13
HETATM   13  C           1     -27.791  -5.771 -17.891  0.00  0.00     0.186 C 
BRANCH  13  14
HETATM   14  C           1     -27.564  -4.990 -16.620  0.00  0.00     0.196 C 
HETATM   15  O           1     -27.117  -5.566 -15.605  0.00  0.00    -0.646 OA
HETATM   16  O           1     -27.823  -3.769 -16.583  0.00  0.00    -0.646 OA
ENDBRANCH  13  14
BRANCH  13  17
HETATM   17  C           1     -28.808  -6.875 -17.635  0.00  0.00     0.046 C 
BRANCH  17  18
HETATM   18  C           1     -30.175  -6.434 -18.142  0.00  0.00     0.076 C 
BRANCH  18  19
HETATM   19  S           1     -31.081  -5.610 -16.803  0.00  0.00    -0.173 SA
HETATM   20  C           1     -31.088  -3.958 -17.555  0.00  0.00     0.089 C 
ENDBRANCH  18  19
ENDBRANCH  17  18
ENDBRANCH  13  17
ENDBRANCH   2  13
TORSDOF 9
ENDMDL
MODEL 4
REMARK VINA RESULT:      -4.5     12.342     14.424
REMARK  9 active torsions:
REMARK  status: ('A' for Active; 'I' for Inactive)
REMARK    1  A    between atoms: C_1  and  C_2 
REMARK    2  A    between atoms: C_2  and  C_3 
REMARK    3  A    between atoms: C_2  and  N_12 
REMARK    4  A    between atoms: C_3  and  C_15 
REMARK    5  A    between atoms: S_4  and  C_15 
REMARK    6  A    between atoms: N_7  and  C_10 
REMARK    7  A    between atoms: S_8  and  C_9 
REMARK    8  A    between atoms: C_9  and  C_10 
REMARK    9  A    between atoms: C_10  and  C_11 
REMARK       I    between atoms: C_11  and  N_12 
ROOT
HETATM    1  C           1     -21.684  -6.121  -4.378  0.00  0.00     0.249 C 
HETATM    2  N           1     -20.846  -5.528  -5.284  0.00  0.00    -0.345 N 
HETATM    3  O           1     -22.736  -6.588  -4.745  0.00  0.00    -0.271 OA
HETATM    4  H           1     -19.965  -5.136  -4.977  0.00  0.00     0.163 HD
ENDROOT
BRANCH   1   5
HETATM    5  C           1     -21.293  -6.192  -2.922  0.00  0.00     0.283 C 
BRANCH   5   6
HETATM    6  N           1     -22.469  -5.814  -2.071  0.00  0.00    -0.066 N 
HETATM    7  H           1     -22.136  -5.299  -1.225  0.00  0.00     0.275 HD
HETATM    8  H           1     -23.114  -5.202  -2.620  0.00  0.00     0.275 HD
HETATM    9  H           1     -22.976  -6.679  -1.774  0.00  0.00     0.275 HD
ENDBRANCH   5   6
BRANCH   5  10
HETATM   10  C           1     -20.855  -7.611  -2.582  0.00  0.00     0.113 C 
BRANCH  10  11
HETATM   11  S           1     -21.605  -8.114  -1.008  0.00  0.00    -0.180 SA
HETATM   12  H           1     -20.479  -8.614  -0.470  0.00  0.00     0.101 HD
ENDBRANCH  10  11
ENDBRANCH   5  10
ENDBRANCH   1   5
BRANCH   2  13
HETATM   13  C           1     -21.222  -5.459  -6.683  0.00  0.00     0.186 C 
BRANCH  13  14
HETATM   14  C           1     -20.005  -5.701  -7.542  0.00  0.00     0.196 C 
HETATM   15  O           1     -19.307  -6.722  -7.362  0.00  0.00    -0.646 OA
HETATM   16  O           1     -19.696  -4.880  -8.432  0.00  0.00    -0.646 OA
ENDBRANCH  13  14
BRANCH  13  17
HETATM   17  C           1     -21.793  -4.080  -6.987  0.00  0.00     0.046 C 
BRANCH  17  18
HETATM   18  C           1     -23.140  -4.230  -7.681  0.00  0.00     0.076 C 
BRANCH  18  19
HETATM   19  S           1     -22.950  -3.892  -9.454  0.00  0.00    -0.173 SA
HETATM   20  C           1     -24.660  -3.353  -9.738  0.00  0.00     0.089 C 
ENDBRANCH  18  19
ENDBRANCH  17  18
ENDBRANCH  13  17
ENDBRANCH   2  13
TORSDOF 9
ENDMDL
MODEL 5
REMARK VINA RESULT:      -4.4     12.482     14.159
REMARK  9 active torsions:
REMARK  status: ('A' for Active; 'I' for Inactive)
REMARK    1  A    between atoms: C_1  and  C_2 
REMARK    2  A    between atoms: C_2  and  C_3 
REMARK    3  A    between atoms: C_2  and  N_12 
REMARK    4  A    between atoms: C_3  and  C_15 
REMARK    5  A    between atoms: S_4  and  C_15 
REMARK    6  A    between atoms: N_7  and  C_10 
REMARK    7  A    between atoms: S_8  and  C_9 
REMARK    8  A    between atoms: C_9  and  C_10 
REMARK    9  A    between atoms: C_10  and  C_11 
REMARK       I    between atoms: C_11  and  N_12 
ROOT
HETATM    1  C           1     -21.013  -5.200  -6.787  0.00  0.00     0.249 C 
HETATM    2  N           1     -21.259  -6.469  -6.336  0.00  0.00    -0.345 N 
HETATM    3  O           1     -20.405  -4.420  -6.094  0.00  0.00    -0.271 OA
HETATM    4  H           1     -21.769  -7.123  -6.916  0.00  0.00     0.163 HD
ENDROOT
BRANCH   1   5
HETATM    5  C           1     -21.500  -4.777  -8.151  0.00  0.00     0.283 C 
BRANCH   5   6
HETATM    6  N           1     -22.386  -3.574  -8.014  0.00  0.00    -0.066 N 
HETATM    7  H           1     -21.797  -2.715  -7.933  0.00  0.00     0.275 HD
HETATM    8  H           1     -23.002  -3.497  -8.854  0.00  0.00     0.275 HD
HETATM    9  H           1     -22.975  -3.673  -7.156  0.00  0.00     0.275 HD
ENDBRANCH   5   6
BRANCH   5  10
HETATM   10  C           1     -20.307  -4.431  -9.032  0.00  0.00     0.113 C 
BRANCH  10  11
HETATM   11  S           1     -20.888  -4.009 -10.699  0.00  0.00    -0.180 SA
HETATM   12  H           1     -21.946  -3.282 -10.298  0.00  0.00     0.101 HD
ENDBRANCH  10  11
ENDBRANCH   5  10
ENDBRANCH   1   5
BRANCH   2  13
HETATM   13  C           1     -20.792  -6.876  -5.024  0.00  0.00     0.186 C 
BRANCH  13  14
HETATM   14  C           1     -20.299  -8.301  -5.087  0.00  0.00     0.196 C 
HETATM   15  O           1     -20.922  -9.148  -5.761  0.00  0.00    -0.646 OA
HETATM   16  O           1     -19.267  -8.633  -4.465  0.00  0.00    -0.646 OA
ENDBRANCH  13  14
BRANCH  13  17
HETATM   17  C           1     -21.936  -6.777  -4.025  0.00  0.00     0.046 C 
BRANCH  17  18
HETATM   18  C           1     -21.449  -6.081  -2.761  0.00  0.00     0.076 C 
BRANCH  18  19
HETATM   19  S           1     -22.243  -6.831  -1.312  0.00  0.00    -0.173 SA
HETATM   20  C           1     -21.544  -8.490  -1.538  0.00  0.00     0.089 C 
ENDBRANCH  18  19
ENDBRANCH  17  18
ENDBRANCH  13  17
ENDBRANCH   2  13
TORSDOF 9
ENDMDL
MODEL 6
REMARK VINA RESULT:      -4.2      1.523      2.076
REMARK  9 active torsions:
REMARK  status: ('A' for Active; 'I' for Inactive)
REMARK    1  A    between atoms: C_1  and  C_2 
REMARK    2  A    between atoms: C_2  and  C_3 
REMARK    3  A    between atoms: C_2  and  N_12 
REMARK    4  A    between atoms: C_3  and  C_15 
REMARK    5  A    between atoms: S_4  and  C_15 
REMARK    6  A    between atoms: N_7  and  C_10 
REMARK    7  A    between atoms: S_8  and  C_9 
REMARK    8  A    between atoms: C_9  and  C_10 
REMARK    9  A    between atoms: C_10  and  C_11 
REMARK       I    between atoms: C_11  and  N_12 
ROOT
HETATM    1  C           1     -25.986  -6.538 -19.181  0.00  0.00     0.249 C 
HETATM    2  N           1     -25.879  -6.689 -17.824  0.00  0.00    -0.345 N 
HETATM    3  O           1     -27.012  -6.121 -19.662  0.00  0.00    -0.271 OA
HETATM    4  H           1     -25.019  -7.039 -17.420  0.00  0.00     0.163 HD
ENDROOT
BRANCH   1   5
HETATM    5  C           1     -24.823  -6.892 -20.074  0.00  0.00     0.283 C 
BRANCH   5   6
HETATM    6  N           1     -23.741  -7.530 -19.254  0.00  0.00    -0.066 N 
HETATM    7  H           1     -24.099  -8.417 -18.834  0.00  0.00     0.275 HD
HETATM    8  H           1     -22.920  -7.742 -19.865  0.00  0.00     0.275 HD
HETATM    9  H           1     -23.451  -6.877 -18.492  0.00  0.00     0.275 HD
ENDBRANCH   5   6
BRANCH   5  10
HETATM   10  C           1     -25.286  -7.865 -21.150  0.00  0.00     0.113 C 
BRANCH  10  11
HETATM   11  S           1     -24.028  -7.968 -22.454  0.00  0.00    -0.180 SA
HETATM   12  H           1     -23.265  -6.961 -21.992  0.00  0.00     0.101 HD
ENDBRANCH  10  11
ENDBRANCH   5  10
ENDBRANCH   1   5
BRANCH   2  13
HETATM   13  C           1     -26.997  -6.349 -16.966  0.00  0.00     0.186 C 
BRANCH  13  14
HETATM   14  C           1     -26.862  -7.080 -15.652  0.00  0.00     0.196 C 
HETATM   15  O           1     -25.728  -7.339 -15.195  0.00  0.00    -0.646 OA
HETATM   16  O           1     -27.884  -7.427 -15.023  0.00  0.00    -0.646 OA
ENDBRANCH  13  14
BRANCH  13  17
HETATM   17  C           1     -28.298  -6.758 -17.643  0.00  0.00     0.046 C 
BRANCH  17  18
HETATM   18  C           1     -29.435  -5.883 -17.130  0.00  0.00     0.076 C 
BRANCH  18  19
HETATM   19  S           1     -29.637  -4.449 -18.223  0.00  0.00    -0.173 SA
HETATM   20  C           1     -28.786  -3.258 -17.149  0.00  0.00     0.089 C 
ENDBRANCH  18  19
ENDBRANCH  17  18
ENDBRANCH  13  17
ENDBRANCH   2  13
TORSDOF 9
ENDMDL
MODEL 7
REMARK VINA RESULT:      -4.1     13.453     15.296
REMARK  9 active torsions:
REMARK  status: ('A' for Active; 'I' for Inactive)
REMARK    1  A    between atoms: C_1  and  C_2 
REMARK    2  A    between atoms: C_2  and  C_3 
REMARK    3  A    between atoms: C_2  and  N_12 
REMARK    4  A    between atoms: C_3  and  C_15 
REMARK    5  A    between atoms: S_4  and  C_15 
REMARK    6  A    between atoms: N_7  and  C_10 
REMARK    7  A    between atoms: S_8  and  C_9 
REMARK    8  A    between atoms: C_9  and  C_10 
REMARK    9  A    between atoms: C_10  and  C_11 
REMARK       I    between atoms: C_11  and  N_12 
ROOT
HETATM    1  C           1     -21.393  -5.877  -5.549  0.00  0.00     0.249 C 
HETATM    2  N           1     -20.807  -6.748  -4.671  0.00  0.00    -0.345 N 
HETATM    3  O           1     -22.595  -5.765  -5.579  0.00  0.00    -0.271 OA
HETATM    4  H           1     -19.800  -6.842  -4.646  0.00  0.00     0.163 HD
ENDROOT
BRANCH   1   5
HETATM    5  C           1     -20.536  -5.054  -6.480  0.00  0.00     0.283 C 
BRANCH   5   6
HETATM    6  N           1     -19.966  -5.939  -7.548  0.00  0.00    -0.066 N 
HETATM    7  H           1     -18.942  -6.068  -7.384  0.00  0.00     0.275 HD
HETATM    8  H           1     -20.443  -6.869  -7.521  0.00  0.00     0.275 HD
HETATM    9  H           1     -20.115  -5.497  -8.483  0.00  0.00     0.275 HD
ENDBRANCH   5   6
BRANCH   5  10
HETATM   10  C           1     -21.385  -3.964  -7.123  0.00  0.00     0.113 C 
BRANCH  10  11
HETATM   11  S           1     -21.682  -4.378  -8.864  0.00  0.00    -0.180 SA
HETATM   12  H           1     -21.045  -5.562  -8.838  0.00  0.00     0.101 HD
ENDBRANCH  10  11
ENDBRANCH   5  10
ENDBRANCH   1   5
BRANCH   2  13
HETATM   13  C           1     -21.631  -7.540  -3.777  0.00  0.00     0.186 C 
BRANCH  13  14
HETATM   14  C           1     -21.630  -6.911  -2.405  0.00  0.00     0.196 C 
HETATM   15  O           1     -20.993  -7.447  -1.473  0.00  0.00    -0.646 OA
HETATM   16  O           1     -22.265  -5.854  -2.202  0.00  0.00    -0.646 OA
ENDBRANCH  13  14
BRANCH  13  17
HETATM   17  C           1     -21.070  -8.953  -3.689  0.00  0.00     0.046 C 
BRANCH  17  18
HETATM   18  C           1     -19.700  -8.998  -4.353  0.00  0.00     0.076 C 
BRANCH  18  19
HETATM   19  S           1     -18.451  -9.487  -3.130  0.00  0.00    -0.173 SA
HETATM   20  C           1     -17.149  -9.893  -4.328  0.00  0.00     0.089 C 
ENDBRANCH  18  19
ENDBRANCH  17  18
ENDBRANCH  13  17
ENDBRANCH   2  13
TORSDOF 9
ENDMDL
MODEL 8
REMARK VINA RESULT:      -4.1     13.442     15.225
REMARK  9 active torsions:
REMARK  status: ('A' for Active; 'I' for Inactive)
REMARK    1  A    between atoms: C_1  and  C_2 
REMARK    2  A    between atoms: C_2  and  C_3 
REMARK    3  A    between atoms: C_2  and  N_12 
REMARK    4  A    between atoms: C_3  and  C_15 
REMARK    5  A    between atoms: S_4  and  C_15 
REMARK    6  A    between atoms: N_7  and  C_10 
REMARK    7  A    between atoms: S_8  and  C_9 
REMARK    8  A    between atoms: C_9  and  C_10 
REMARK    9  A    between atoms: C_10  and  C_11 
REMARK       I    between atoms: C_11  and  N_12 
ROOT
HETATM    1  C           1     -21.506  -5.926  -5.529  0.00  0.00     0.249 C 
HETATM    2  N           1     -20.839  -6.766  -4.677  0.00  0.00    -0.345 N 
HETATM    3  O           1     -22.712  -5.875  -5.505  0.00  0.00    -0.271 OA
HETATM    4  H           1     -19.828  -6.810  -4.698  0.00  0.00     0.163 HD
ENDROOT
BRANCH   1   5
HETATM    5  C           1     -20.733  -5.064  -6.497  0.00  0.00     0.283 C 
BRANCH   5   6
HETATM    6  N           1     -20.074  -5.936  -7.524  0.00  0.00    -0.066 N 
HETATM    7  H           1     -19.265  -5.426  -7.946  0.00  0.00     0.275 HD
HETATM    8  H           1     -19.734  -6.814  -7.071  0.00  0.00     0.275 HD
HETATM    9  H           1     -20.763  -6.172  -8.274  0.00  0.00     0.275 HD
ENDBRANCH   5   6
BRANCH   5  10
HETATM   10  C           1     -21.685  -4.096  -7.187  0.00  0.00     0.113 C 
BRANCH  10  11
HETATM   11  S           1     -21.702  -4.433  -8.970  0.00  0.00    -0.180 SA
HETATM   12  H           1     -20.373  -4.594  -9.095  0.00  0.00     0.101 HD
ENDBRANCH  10  11
ENDBRANCH   5  10
ENDBRANCH   1   5
BRANCH   2  13
HETATM   13  C           1     -21.582  -7.595  -3.748  0.00  0.00     0.186 C 
BRANCH  13  14
HETATM   14  C           1     -21.590  -6.941  -2.388  0.00  0.00     0.196 C 
HETATM   15  O           1     -20.879  -7.401  -1.469  0.00  0.00    -0.646 OA
HETATM   16  O           1     -22.307  -5.939  -2.182  0.00  0.00    -0.646 OA
ENDBRANCH  13  14
BRANCH  13  17
HETATM   17  C           1     -20.921  -8.964  -3.649  0.00  0.00     0.046 C 
BRANCH  17  18
HETATM   18  C           1     -21.991 -10.034  -3.485  0.00  0.00     0.076 C 
BRANCH  18  19
HETATM   19  S           1     -21.629 -11.033  -2.013  0.00  0.00    -0.173 SA
HETATM   20  C           1     -22.904 -10.295  -0.953  0.00  0.00     0.089 C 
ENDBRANCH  18  19
ENDBRANCH  17  18
ENDBRANCH  13  17
ENDBRANCH   2  13
TORSDOF 9
ENDMDL
MODEL 9
REMARK VINA RESULT:      -4.0      2.938      5.276
REMARK  9 active torsions:
REMARK  status: ('A' for Active; 'I' for Inactive)
REMARK    1  A    between atoms: C_1  and  C_2 
REMARK    2  A    between atoms: C_2  and  C_3 
REMARK    3  A    between atoms: C_2  and  N_12 
REMARK    4  A    between atoms: C_3  and  C_15 
REMARK    5  A    between atoms: S_4  and  C_15 
REMARK    6  A    between atoms: N_7  and  C_10 
REMARK    7  A    between atoms: S_8  and  C_9 
REMARK    8  A    between atoms: C_9  and  C_10 
REMARK    9  A    between atoms: C_10  and  C_11 
REMARK       I    between atoms: C_11  and  N_12 
ROOT
HETATM    1  C           1     -28.609  -6.316 -18.911  0.00  0.00     0.249 C 
HETATM    2  N           1     -27.719  -7.277 -19.305  0.00  0.00    -0.345 N 
HETATM    3  O           1     -28.534  -5.199 -19.366  0.00  0.00    -0.271 OA
HETATM    4  H           1     -27.781  -8.213 -18.924  0.00  0.00     0.163 HD
ENDROOT
BRANCH   1   5
HETATM    5  C           1     -29.686  -6.650 -17.908  0.00  0.00     0.283 C 
BRANCH   5   6
HETATM    6  N           1     -30.454  -7.849 -18.382  0.00  0.00    -0.066 N 
HETATM    7  H           1     -31.128  -8.146 -17.641  0.00  0.00     0.275 HD
HETATM    8  H           1     -30.978  -7.606 -19.252  0.00  0.00     0.275 HD
HETATM    9  H           1     -29.789  -8.631 -18.581  0.00  0.00     0.275 HD
ENDBRANCH   5   6
BRANCH   5  10
HETATM   10  C           1     -29.048  -6.956 -16.559  0.00  0.00     0.113 C 
BRANCH  10  11
HETATM   11  S           1     -28.648  -5.401 -15.713  0.00  0.00    -0.180 SA
HETATM   12  H           1     -27.608  -5.887 -15.012  0.00  0.00     0.101 HD
ENDBRANCH  10  11
ENDBRANCH   5  10
ENDBRANCH   1   5
BRANCH   2  13
HETATM   13  C           1     -26.683  -6.955 -20.269  0.00  0.00     0.186 C 
BRANCH  13  14
HETATM   14  C           1     -26.524  -8.102 -21.237  0.00  0.00     0.196 C 
HETATM   15  O           1     -25.410  -8.335 -21.752  0.00  0.00    -0.646 OA
HETATM   16  O           1     -27.507  -8.818 -21.523  0.00  0.00    -0.646 OA
ENDBRANCH  13  14
BRANCH  13  17
HETATM   17  C           1     -25.367  -6.720 -19.539  0.00  0.00     0.046 C 
BRANCH  17  18
HETATM   18  C           1     -25.645  -6.454 -18.065  0.00  0.00     0.076 C 
BRANCH  18  19
HETATM   19  S           1     -24.403  -7.307 -17.052  0.00  0.00    -0.173 SA
HETATM   20  C           1     -25.121  -6.865 -15.445  0.00  0.00     0.089 C 
ENDBRANCH  18  19
ENDBRANCH  17  18
ENDBRANCH  13  17
ENDBRANCH   2  13
TORSDOF 9
ENDMDL
