MODEL 1
REMARK VINA RESULT:      -6.8      0.000      0.000
REMARK  14 active torsions:
REMARK  status: ('A' for Active; 'I' for Inactive)
REMARK    1  A    between atoms: C_1  and  C_28 
REMARK    2  A    between atoms: C_1  and  C_16 
REMARK    3  A    between atoms: C_5  and  C_16 
REMARK    4  A    between atoms: C_6  and  C_7 
REMARK    5  A    between atoms: C_6  and  C_26 
REMARK    6  A    between atoms: C_6  and  N_29 
REMARK       I    between atoms: C_7  and  N_8 
REMARK    7  A    between atoms: N_8  and  C_16 
REMARK    8  A    between atoms: C_10  and  C_24 
REMARK    9  A    between atoms: C_10  and  C_11 
REMARK   10  A    between atoms: C_10  and  N_27 
REMARK   11  A    between atoms: C_18  and  C_25 
REMARK   12  A    between atoms: C_18  and  N_19 
REMARK       I    between atoms: N_19  and  C_20 
REMARK       I    between atoms: C_20  and  N_21 
REMARK   13  A    between atoms: C_25  and  C_26 
REMARK   14  A    between atoms: N_27  and  C_28 
ROOT
HETATM    1  C           1     -20.281  -7.046  -5.975  0.00  0.00     0.249 C 
HETATM    2  N           1     -20.362  -7.995  -4.991  0.00  0.00    -0.345 N 
HETATM    3  H           1     -21.148  -7.996  -4.354  0.00  0.00     0.163 HD
HETATM    4  O           1     -19.342  -7.043  -6.736  0.00  0.00    -0.271 OA
ENDROOT
BRANCH   1   5
HETATM    5  C           1     -21.363  -6.003  -6.109  0.00  0.00     0.274 C 
BRANCH   5   6
HETATM    6  C           1     -20.749  -4.615  -5.990  0.00  0.00     0.044 C 
BRANCH   6   7
HETATM    7  C           1     -20.752  -3.940  -7.356  0.00  0.00     0.023 C 
BRANCH   7   8
HETATM    8  C           1     -21.809  -4.588  -8.241  0.00  0.00     0.138 C 
BRANCH   8   9
HETATM    9  N           1     -23.016  -3.749  -8.259  0.00  0.00    -0.227 N 
HETATM   10  H           1     -23.186  -3.057  -7.487  0.00  0.00     0.177 HD
HETATM   11  C           1     -23.851  -3.862  -9.204  0.00  0.00     0.665 C 
HETATM   12  N           1     -24.891  -3.139  -9.220  0.00  0.00    -0.235 N 
HETATM   13  N           1     -23.640  -4.719 -10.158  0.00  0.00    -0.235 N 
HETATM   14  H           1     -25.059  -2.446  -8.449  0.00  0.00     0.174 HD
HETATM   15  H           1     -25.583  -3.232 -10.003  0.00  0.00     0.174 HD
HETATM   16  H           1     -22.783  -5.315 -10.145  0.00  0.00     0.174 HD
HETATM   17  H           1     -24.330  -4.811 -10.938  0.00  0.00     0.174 HD
ENDBRANCH   8   9
ENDBRANCH   7   8
ENDBRANCH   6   7
ENDBRANCH   5   6
BRANCH   5  18
HETATM   18  N           1     -22.380  -6.195  -5.024  0.00  0.00    -0.067 N 
HETATM   19  H           1     -23.336  -6.221  -5.444  0.00  0.00     0.275 HD
HETATM   20  H           1     -22.319  -5.403  -4.344  0.00  0.00     0.275 HD
HETATM   21  H           1     -22.192  -7.095  -4.526  0.00  0.00     0.275 HD
ENDBRANCH   5  18
ENDBRANCH   1   5
BRANCH   2  22
HETATM   22  C           1     -19.321  -8.996  -4.862  0.00  0.00     0.187 C 
BRANCH  22  23
HETATM   23  C           1     -19.002  -9.208  -3.388  0.00  0.00     0.066 C 
BRANCH  23  24
HETATM   24  C           1     -20.247  -9.701  -2.664  0.00  0.00     0.273 C 
BRANCH  24  25
HETATM   25  N           1     -20.437  -8.935  -1.461  0.00  0.00     0.098 N 
HETATM   26  H           1     -19.815  -8.126  -1.472  0.00  0.00     0.317 HD
BRANCH  25  27
HETATM   27  C           1     -21.804  -8.491  -1.437  0.00  0.00     0.323 C 
BRANCH  27  28
HETATM   28  C           1     -22.418  -8.812  -0.081  0.00  0.00     0.021 C 
HETATM   29  C           1     -21.308  -9.015   0.942  0.00  0.00     0.012 C 
HETATM   30  C           1     -23.248 -10.085  -0.190  0.00  0.00     0.012 C 
ENDBRANCH  27  28
BRANCH  27  31
HETATM   31  C           1     -21.851  -7.001  -1.670  0.00  0.00     0.207 C 
HETATM   32  O           1     -22.628  -6.287  -0.998  0.00  0.00    -0.646 OA
HETATM   33  O           1     -21.115  -6.479  -2.535  0.00  0.00    -0.646 OA
ENDBRANCH  27  31
ENDBRANCH  25  27
ENDBRANCH  24  25
ENDBRANCH  23  24
ENDBRANCH  22  23
BRANCH  22  34
HETATM   34  C           1     -19.795 -10.294  -5.466  0.00  0.00     0.196 C 
HETATM   35  O           1     -20.936 -10.369  -5.972  0.00  0.00    -0.646 OA
HETATM   36  O           1     -19.047 -11.296  -5.462  0.00  0.00    -0.646 OA
ENDBRANCH  22  34
ENDBRANCH   2  22
TORSDOF 14
ENDMDL
MODEL 2
REMARK VINA RESULT:      -6.5      2.903      8.429
REMARK  14 active torsions:
REMARK  status: ('A' for Active; 'I' for Inactive)
REMARK    1  A    between atoms: C_1  and  C_28 
REMARK    2  A    between atoms: C_1  and  C_16 
REMARK    3  A    between atoms: C_5  and  C_16 
REMARK    4  A    between atoms: C_6  and  C_7 
REMARK    5  A    between atoms: C_6  and  C_26 
REMARK    6  A    between atoms: C_6  and  N_29 
REMARK       I    between atoms: C_7  and  N_8 
REMARK    7  A    between atoms: N_8  and  C_16 
REMARK    8  A    between atoms: C_10  and  C_24 
REMARK    9  A    between atoms: C_10  and  C_11 
REMARK   10  A    between atoms: C_10  and  N_27 
REMARK   11  A    between atoms: C_18  and  C_25 
REMARK   12  A    between atoms: C_18  and  N_19 
REMARK       I    between atoms: N_19  and  C_20 
REMARK       I    between atoms: C_20  and  N_21 
REMARK   13  A    between atoms: C_25  and  C_26 
REMARK   14  A    between atoms: N_27  and  C_28 
ROOT
HETATM    1  C           1     -21.562  -6.374  -4.115  0.00  0.00     0.249 C 
HETATM    2  N           1     -20.830  -5.565  -4.943  0.00  0.00    -0.345 N 
HETATM    3  H           1     -20.096  -4.982  -4.562  0.00  0.00     0.163 HD
HETATM    4  O           1     -22.438  -7.070  -4.570  0.00  0.00    -0.271 OA
ENDROOT
BRANCH   1   5
HETATM    5  C           1     -21.274  -6.395  -2.634  0.00  0.00     0.274 C 
BRANCH   5   6
HETATM    6  C           1     -21.302  -7.831  -2.131  0.00  0.00     0.044 C 
BRANCH   6   7
HETATM    7  C           1     -21.749  -7.850  -0.675  0.00  0.00     0.023 C 
BRANCH   7   8
HETATM    8  C           1     -21.671  -9.272  -0.137  0.00  0.00     0.138 C 
BRANCH   8   9
HETATM    9  N           1     -22.983  -9.921  -0.269  0.00  0.00    -0.227 N 
HETATM   10  H           1     -23.820  -9.517   0.220  0.00  0.00     0.177 HD
HETATM   11  C           1     -23.104 -10.968  -0.972  0.00  0.00     0.665 C 
HETATM   12  N           1     -24.234 -11.526  -1.086  0.00  0.00    -0.235 N 
HETATM   13  N           1     -22.068 -11.468  -1.576  0.00  0.00    -0.235 N 
HETATM   14  H           1     -25.071 -11.121  -0.598  0.00  0.00     0.174 HD
HETATM   15  H           1     -24.335 -12.394  -1.668  0.00  0.00     0.174 HD
HETATM   16  H           1     -21.135 -11.007  -1.482  0.00  0.00     0.174 HD
HETATM   17  H           1     -22.168 -12.331  -2.156  0.00  0.00     0.174 HD
ENDBRANCH   8   9
ENDBRANCH   7   8
ENDBRANCH   6   7
ENDBRANCH   5   6
BRANCH   5  18
HETATM   18  N           1     -22.313  -5.591  -1.911  0.00  0.00    -0.067 N 
HETATM   19  H           1     -21.870  -4.738  -1.501  0.00  0.00     0.275 HD
HETATM   20  H           1     -22.732  -6.168  -1.147  0.00  0.00     0.275 HD
HETATM   21  H           1     -23.062  -5.306  -2.583  0.00  0.00     0.275 HD
ENDBRANCH   5  18
ENDBRANCH   1   5
BRANCH   2  22
HETATM   22  C           1     -21.107  -5.545  -6.366  0.00  0.00     0.187 C 
BRANCH  22  23
HETATM   23  C           1     -21.423  -4.119  -6.801  0.00  0.00     0.066 C 
BRANCH  23  24
HETATM   24  C           1     -22.718  -4.108  -7.602  0.00  0.00     0.273 C 
BRANCH  24  25
HETATM   25  N           1     -22.455  -4.544  -8.947  0.00  0.00     0.098 N 
HETATM   26  H           1     -22.948  -5.421  -9.122  0.00  0.00     0.317 HD
BRANCH  25  27
HETATM   27  C           1     -22.945  -3.531  -9.839  0.00  0.00     0.323 C 
BRANCH  27  28
HETATM   28  C           1     -22.059  -3.472 -11.076  0.00  0.00     0.021 C 
HETATM   29  C           1     -22.274  -4.727 -11.913  0.00  0.00     0.012 C 
HETATM   30  C           1     -20.599  -3.389 -10.650  0.00  0.00     0.012 C 
ENDBRANCH  27  28
BRANCH  27  31
HETATM   31  C           1     -24.359  -3.863 -10.249  0.00  0.00     0.207 C 
HETATM   32  O           1     -25.013  -3.058 -10.947  0.00  0.00    -0.646 OA
HETATM   33  O           1     -24.877  -4.942  -9.889  0.00  0.00    -0.646 OA
ENDBRANCH  27  31
ENDBRANCH  25  27
ENDBRANCH  24  25
ENDBRANCH  23  24
ENDBRANCH  22  23
BRANCH  22  34
HETATM   34  C           1     -19.901  -6.046  -7.121  0.00  0.00     0.196 C 
HETATM   35  O           1     -19.347  -7.113  -6.778  0.00  0.00    -0.646 OA
HETATM   36  O           1     -19.455  -5.394  -8.090  0.00  0.00    -0.646 OA
ENDBRANCH  22  34
ENDBRANCH   2  22
TORSDOF 14
ENDMDL
MODEL 3
REMARK VINA RESULT:      -6.4      1.699      4.357
REMARK  14 active torsions:
REMARK  status: ('A' for Active; 'I' for Inactive)
REMARK    1  A    between atoms: C_1  and  C_28 
REMARK    2  A    between atoms: C_1  and  C_16 
REMARK    3  A    between atoms: C_5  and  C_16 
REMARK    4  A    between atoms: C_6  and  C_7 
REMARK    5  A    between atoms: C_6  and  C_26 
REMARK    6  A    between atoms: C_6  and  N_29 
REMARK       I    between atoms: C_7  and  N_8 
REMARK    7  A    between atoms: N_8  and  C_16 
REMARK    8  A    between atoms: C_10  and  C_24 
REMARK    9  A    between atoms: C_10  and  C_11 
REMARK   10  A    between atoms: C_10  and  N_27 
REMARK   11  A    between atoms: C_18  and  C_25 
REMARK   12  A    between atoms: C_18  and  N_19 
REMARK       I    between atoms: N_19  and  C_20 
REMARK       I    between atoms: C_20  and  N_21 
REMARK   13  A    between atoms: C_25  and  C_26 
REMARK   14  A    between atoms: N_27  and  C_28 
ROOT
HETATM    1  C           1     -21.103  -6.796  -5.120  0.00  0.00     0.249 C 
HETATM    2  N           1     -20.916  -6.589  -3.779  0.00  0.00    -0.345 N 
HETATM    3  H           1     -20.515  -5.719  -3.454  0.00  0.00     0.163 HD
HETATM    4  O           1     -21.582  -7.834  -5.510  0.00  0.00    -0.271 OA
ENDROOT
BRANCH   1   5
HETATM    5  C           1     -20.711  -5.727  -6.111  0.00  0.00     0.274 C 
BRANCH   5   6
HETATM    6  C           1     -21.965  -5.089  -6.693  0.00  0.00     0.044 C 
BRANCH   6   7
HETATM    7  C           1     -21.590  -3.797  -7.409  0.00  0.00     0.023 C 
BRANCH   7   8
HETATM    8  C           1     -22.133  -3.829  -8.831  0.00  0.00     0.138 C 
BRANCH   8   9
HETATM    9  N           1     -23.553  -3.446  -8.824  0.00  0.00    -0.227 N 
HETATM   10  H           1     -23.914  -2.783  -8.094  0.00  0.00     0.177 HD
HETATM   11  C           1     -24.339  -3.916  -9.699  0.00  0.00     0.665 C 
HETATM   12  N           1     -25.561  -3.586  -9.693  0.00  0.00    -0.235 N 
HETATM   13  N           1     -23.891  -4.736 -10.602  0.00  0.00    -0.235 N 
HETATM   14  H           1     -25.922  -2.922  -8.964  0.00  0.00     0.174 HD
HETATM   15  H           1     -26.214  -3.975 -10.418  0.00  0.00     0.174 HD
HETATM   16  H           1     -22.883  -5.008 -10.607  0.00  0.00     0.174 HD
HETATM   17  H           1     -24.541  -5.124 -11.323  0.00  0.00     0.174 HD
ENDBRANCH   8   9
ENDBRANCH   7   8
ENDBRANCH   6   7
ENDBRANCH   5   6
BRANCH   5  18
HETATM   18  N           1     -19.904  -6.341  -7.215  0.00  0.00    -0.067 N 
HETATM   19  H           1     -19.663  -5.607  -7.919  0.00  0.00     0.275 HD
HETATM   20  H           1     -20.460  -7.097  -7.676  0.00  0.00     0.275 HD
HETATM   21  H           1     -19.026  -6.748  -6.819  0.00  0.00     0.275 HD
ENDBRANCH   5  18
ENDBRANCH   1   5
BRANCH   2  22
HETATM   22  C           1     -21.292  -7.616  -2.828  0.00  0.00     0.187 C 
BRANCH  22  23
HETATM   23  C           1     -20.039  -8.305  -2.304  0.00  0.00     0.066 C 
BRANCH  23  24
HETATM   24  C           1     -20.048  -9.767  -2.727  0.00  0.00     0.273 C 
BRANCH  24  25
HETATM   25  N           1     -18.699 -10.266  -2.762  0.00  0.00     0.098 N 
HETATM   26  H           1     -18.706 -11.274  -2.605  0.00  0.00     0.317 HD
BRANCH  25  27
HETATM   27  C           1     -18.163  -9.986  -4.065  0.00  0.00     0.323 C 
BRANCH  27  28
HETATM   28  C           1     -16.661 -10.239  -4.061  0.00  0.00     0.021 C 
HETATM   29  C           1     -16.024  -9.482  -2.902  0.00  0.00     0.012 C 
HETATM   30  C           1     -16.062  -9.756  -5.375  0.00  0.00     0.012 C 
ENDBRANCH  27  28
BRANCH  27  31
HETATM   31  C           1     -18.821 -10.885  -5.083  0.00  0.00     0.207 C 
HETATM   32  O           1     -18.752 -12.127  -4.958  0.00  0.00    -0.646 OA
HETATM   33  O           1     -19.436 -10.388  -6.051  0.00  0.00    -0.646 OA
ENDBRANCH  27  31
ENDBRANCH  25  27
ENDBRANCH  24  25
ENDBRANCH  23  24
ENDBRANCH  22  23
BRANCH  22  34
HETATM   34  C           1     -22.040  -6.987  -1.679  0.00  0.00     0.196 C 
HETATM   35  O           1     -22.524  -5.841  -1.799  0.00  0.00    -0.646 OA
HETATM   36  O           1     -22.177  -7.613  -0.605  0.00  0.00    -0.646 OA
ENDBRANCH  22  34
ENDBRANCH   2  22
TORSDOF 14
ENDMDL
MODEL 4
REMARK VINA RESULT:      -6.4      1.647      1.978
REMARK  14 active torsions:
REMARK  status: ('A' for Active; 'I' for Inactive)
REMARK    1  A    between atoms: C_1  and  C_28 
REMARK    2  A    between atoms: C_1  and  C_16 
REMARK    3  A    between atoms: C_5  and  C_16 
REMARK    4  A    between atoms: C_6  and  C_7 
REMARK    5  A    between atoms: C_6  and  C_26 
REMARK    6  A    between atoms: C_6  and  N_29 
REMARK       I    between atoms: C_7  and  N_8 
REMARK    7  A    between atoms: N_8  and  C_16 
REMARK    8  A    between atoms: C_10  and  C_24 
REMARK    9  A    between atoms: C_10  and  C_11 
REMARK   10  A    between atoms: C_10  and  N_27 
REMARK   11  A    between atoms: C_18  and  C_25 
REMARK   12  A    between atoms: C_18  and  N_19 
REMARK       I    between atoms: N_19  and  C_20 
REMARK       I    between atoms: C_20  and  N_21 
REMARK   13  A    between atoms: C_25  and  C_26 
REMARK   14  A    between atoms: N_27  and  C_28 
ROOT
HETATM    1  C           1     -20.589  -6.700  -4.871  0.00  0.00     0.249 C 
HETATM    2  N           1     -19.879  -7.871  -4.901  0.00  0.00    -0.345 N 
HETATM    3  H           1     -19.298  -8.089  -5.701  0.00  0.00     0.163 HD
HETATM    4  O           1     -21.283  -6.440  -3.916  0.00  0.00    -0.271 OA
ENDROOT
BRANCH   1   5
HETATM    5  C           1     -20.508  -5.738  -6.029  0.00  0.00     0.274 C 
BRANCH   5   6
HETATM    6  C           1     -21.910  -5.299  -6.426  0.00  0.00     0.044 C 
BRANCH   6   7
HETATM    7  C           1     -21.828  -4.018  -7.247  0.00  0.00     0.023 C 
BRANCH   7   8
HETATM    8  C           1     -22.440  -4.255  -8.621  0.00  0.00     0.138 C 
BRANCH   8   9
HETATM    9  N           1     -23.842  -3.809  -8.618  0.00  0.00    -0.227 N 
HETATM   10  H           1     -24.273  -3.439  -7.734  0.00  0.00     0.177 HD
HETATM   11  C           1     -24.528  -3.872  -9.680  0.00  0.00     0.665 C 
HETATM   12  N           1     -25.734  -3.489  -9.678  0.00  0.00    -0.235 N 
HETATM   13  N           1     -23.993  -4.330 -10.773  0.00  0.00    -0.235 N 
HETATM   14  H           1     -26.165  -3.118  -8.795  0.00  0.00     0.174 HD
HETATM   15  H           1     -26.304  -3.540 -10.558  0.00  0.00     0.174 HD
HETATM   16  H           1     -22.998  -4.646 -10.775  0.00  0.00     0.174 HD
HETATM   17  H           1     -24.560  -4.382 -11.649  0.00  0.00     0.174 HD
ENDBRANCH   8   9
ENDBRANCH   7   8
ENDBRANCH   6   7
ENDBRANCH   5   6
BRANCH   5  18
HETATM   18  N           1     -19.846  -6.412  -7.194  0.00  0.00    -0.067 N 
HETATM   19  H           1     -20.569  -6.894  -7.774  0.00  0.00     0.275 HD
HETATM   20  H           1     -19.154  -7.113  -6.845  0.00  0.00     0.275 HD
HETATM   21  H           1     -19.352  -5.696  -7.775  0.00  0.00     0.275 HD
ENDBRANCH   5  18
ENDBRANCH   1   5
BRANCH   2  22
HETATM   22  C           1     -19.958  -8.796  -3.787  0.00  0.00     0.187 C 
BRANCH  22  23
HETATM   23  C           1     -20.964  -9.893  -4.111  0.00  0.00     0.066 C 
BRANCH  23  24
HETATM   24  C           1     -22.061  -9.905  -3.055  0.00  0.00     0.273 C 
BRANCH  24  25
HETATM   25  N           1     -21.510  -9.512  -1.786  0.00  0.00     0.098 N 
HETATM   26  H           1     -20.954  -8.664  -1.906  0.00  0.00     0.317 HD
BRANCH  25  27
HETATM   27  C           1     -22.607  -9.246  -0.896  0.00  0.00     0.323 C 
BRANCH  27  28
HETATM   28  C           1     -22.662 -10.326   0.176  0.00  0.00     0.021 C 
HETATM   29  C           1     -21.379 -11.146   0.136  0.00  0.00     0.012 C 
HETATM   30  C           1     -23.856 -11.235  -0.082  0.00  0.00     0.012 C 
ENDBRANCH  27  28
BRANCH  27  31
HETATM   31  C           1     -22.410  -7.899  -0.245  0.00  0.00     0.207 C 
HETATM   32  O           1     -21.975  -7.828   0.925  0.00  0.00    -0.646 OA
HETATM   33  O           1     -22.683  -6.855  -0.875  0.00  0.00    -0.646 OA
ENDBRANCH  27  31
ENDBRANCH  25  27
ENDBRANCH  24  25
ENDBRANCH  23  24
ENDBRANCH  22  23
BRANCH  22  34
HETATM   34  C           1     -18.602  -9.411  -3.547  0.00  0.00     0.196 C 
HETATM   35  O           1     -18.324  -9.895  -2.428  0.00  0.00    -0.646 OA
HETATM   36  O           1     -17.755  -9.437  -4.467  0.00  0.00    -0.646 OA
ENDBRANCH  22  34
ENDBRANCH   2  22
TORSDOF 14
ENDMDL
MODEL 5
REMARK VINA RESULT:      -6.3      1.741      2.245
REMARK  14 active torsions:
REMARK  status: ('A' for Active; 'I' for Inactive)
REMARK    1  A    between atoms: C_1  and  C_28 
REMARK    2  A    between atoms: C_1  and  C_16 
REMARK    3  A    between atoms: C_5  and  C_16 
REMARK    4  A    between atoms: C_6  and  C_7 
REMARK    5  A    between atoms: C_6  and  C_26 
REMARK    6  A    between atoms: C_6  and  N_29 
REMARK       I    between atoms: C_7  and  N_8 
REMARK    7  A    between atoms: N_8  and  C_16 
REMARK    8  A    between atoms: C_10  and  C_24 
REMARK    9  A    between atoms: C_10  and  C_11 
REMARK   10  A    between atoms: C_10  and  N_27 
REMARK   11  A    between atoms: C_18  and  C_25 
REMARK   12  A    between atoms: C_18  and  N_19 
REMARK       I    between atoms: N_19  and  C_20 
REMARK       I    between atoms: C_20  and  N_21 
REMARK   13  A    between atoms: C_25  and  C_26 
REMARK   14  A    between atoms: N_27  and  C_28 
ROOT
HETATM    1  C           1     -20.796  -7.020  -5.225  0.00  0.00     0.249 C 
HETATM    2  N           1     -20.170  -8.166  -5.637  0.00  0.00    -0.345 N 
HETATM    3  H           1     -20.249  -8.466  -6.601  0.00  0.00     0.163 HD
HETATM    4  O           1     -20.703  -6.662  -4.074  0.00  0.00    -0.271 OA
ENDROOT
BRANCH   1   5
HETATM    5  C           1     -21.602  -6.205  -6.206  0.00  0.00     0.274 C 
BRANCH   5   6
HETATM    6  C           1     -20.774  -5.022  -6.686  0.00  0.00     0.044 C 
BRANCH   6   7
HETATM    7  C           1     -21.703  -3.917  -7.173  0.00  0.00     0.023 C 
BRANCH   7   8
HETATM    8  C           1     -22.330  -4.328  -8.499  0.00  0.00     0.138 C 
BRANCH   8   9
HETATM    9  N           1     -23.730  -3.881  -8.540  0.00  0.00    -0.227 N 
HETATM   10  H           1     -24.192  -3.523  -7.668  0.00  0.00     0.177 HD
HETATM   11  C           1     -24.377  -3.928  -9.627  0.00  0.00     0.665 C 
HETATM   12  N           1     -25.582  -3.542  -9.663  0.00  0.00    -0.235 N 
HETATM   13  N           1     -23.804  -4.371 -10.707  0.00  0.00    -0.235 N 
HETATM   14  H           1     -26.044  -3.183  -8.791  0.00  0.00     0.174 HD
HETATM   15  H           1     -26.120  -3.580 -10.564  0.00  0.00     0.174 HD
HETATM   16  H           1     -22.809  -4.689 -10.677  0.00  0.00     0.174 HD
HETATM   17  H           1     -24.339  -4.409 -11.603  0.00  0.00     0.174 HD
ENDBRANCH   8   9
ENDBRANCH   7   8
ENDBRANCH   6   7
ENDBRANCH   5   6
BRANCH   5  18
HETATM   18  N           1     -22.848  -5.706  -5.537  0.00  0.00    -0.067 N 
HETATM   19  H           1     -23.311  -4.996  -6.149  0.00  0.00     0.275 HD
HETATM   20  H           1     -22.601  -5.267  -4.621  0.00  0.00     0.275 HD
HETATM   21  H           1     -23.501  -6.506  -5.374  0.00  0.00     0.275 HD
ENDBRANCH   5  18
ENDBRANCH   1   5
BRANCH   2  22
HETATM   22  C           1     -19.396  -8.949  -4.694  0.00  0.00     0.187 C 
BRANCH  22  23
HETATM   23  C           1     -20.292 -10.003  -4.055  0.00  0.00     0.066 C 
BRANCH  23  24
HETATM   24  C           1     -20.315  -9.803  -2.546  0.00  0.00     0.273 C 
BRANCH  24  25
HETATM   25  N           1     -21.498  -9.074  -2.176  0.00  0.00     0.098 N 
HETATM   26  H           1     -22.276  -9.369  -2.767  0.00  0.00     0.317 HD
BRANCH  25  27
HETATM   27  C           1     -21.793  -9.385  -0.804  0.00  0.00     0.323 C 
BRANCH  27  28
HETATM   28  C           1     -22.538  -8.219  -0.169  0.00  0.00     0.021 C 
HETATM   29  C           1     -22.328  -6.965  -1.009  0.00  0.00     0.012 C 
HETATM   30  C           1     -22.007  -7.984   1.239  0.00  0.00     0.012 C 
ENDBRANCH  27  28
BRANCH  27  31
HETATM   31  C           1     -22.651 -10.624  -0.743  0.00  0.00     0.207 C 
HETATM   32  O           1     -23.506 -10.837  -1.630  0.00  0.00    -0.646 OA
HETATM   33  O           1     -22.507 -11.438   0.194  0.00  0.00    -0.646 OA
ENDBRANCH  27  31
ENDBRANCH  25  27
ENDBRANCH  24  25
ENDBRANCH  23  24
ENDBRANCH  22  23
BRANCH  22  34
HETATM   34  C           1     -18.258  -9.626  -5.416  0.00  0.00     0.196 C 
HETATM   35  O           1     -17.141  -9.730  -4.865  0.00  0.00    -0.646 OA
HETATM   36  O           1     -18.432 -10.084  -6.567  0.00  0.00    -0.646 OA
ENDBRANCH  22  34
ENDBRANCH   2  22
TORSDOF 14
ENDMDL
MODEL 6
REMARK VINA RESULT:      -6.3      2.085      2.690
REMARK  14 active torsions:
REMARK  status: ('A' for Active; 'I' for Inactive)
REMARK    1  A    between atoms: C_1  and  C_28 
REMARK    2  A    between atoms: C_1  and  C_16 
REMARK    3  A    between atoms: C_5  and  C_16 
REMARK    4  A    between atoms: C_6  and  C_7 
REMARK    5  A    between atoms: C_6  and  C_26 
REMARK    6  A    between atoms: C_6  and  N_29 
REMARK       I    between atoms: C_7  and  N_8 
REMARK    7  A    between atoms: N_8  and  C_16 
REMARK    8  A    between atoms: C_10  and  C_24 
REMARK    9  A    between atoms: C_10  and  C_11 
REMARK   10  A    between atoms: C_10  and  N_27 
REMARK   11  A    between atoms: C_18  and  C_25 
REMARK   12  A    between atoms: C_18  and  N_19 
REMARK       I    between atoms: N_19  and  C_20 
REMARK       I    between atoms: C_20  and  N_21 
REMARK   13  A    between atoms: C_25  and  C_26 
REMARK   14  A    between atoms: N_27  and  C_28 
ROOT
HETATM    1  C           1     -20.708  -6.381  -5.011  0.00  0.00     0.249 C 
HETATM    2  N           1     -20.370  -7.709  -5.028  0.00  0.00    -0.345 N 
HETATM    3  H           1     -19.983  -8.121  -5.868  0.00  0.00     0.163 HD
HETATM    4  O           1     -21.170  -5.889  -4.009  0.00  0.00    -0.271 OA
ENDROOT
BRANCH   1   5
HETATM    5  C           1     -20.504  -5.535  -6.243  0.00  0.00     0.274 C 
BRANCH   5   6
HETATM    6  C           1     -21.853  -5.053  -6.758  0.00  0.00     0.044 C 
BRANCH   6   7
HETATM    7  C           1     -21.687  -3.689  -7.415  0.00  0.00     0.023 C 
BRANCH   7   8
HETATM    8  C           1     -22.187  -3.753  -8.852  0.00  0.00     0.138 C 
BRANCH   8   9
HETATM    9  N           1     -23.604  -3.361  -8.897  0.00  0.00    -0.227 N 
HETATM   10  H           1     -23.957  -2.595  -8.273  0.00  0.00     0.177 HD
HETATM   11  C           1     -24.397  -3.950  -9.690  0.00  0.00     0.665 C 
HETATM   12  N           1     -25.617  -3.613  -9.729  0.00  0.00    -0.235 N 
HETATM   13  N           1     -23.960  -4.899 -10.463  0.00  0.00    -0.235 N 
HETATM   14  H           1     -25.970  -2.846  -9.105  0.00  0.00     0.174 HD
HETATM   15  H           1     -26.276  -4.100 -10.386  0.00  0.00     0.174 HD
HETATM   16  H           1     -22.953  -5.176 -10.430  0.00  0.00     0.174 HD
HETATM   17  H           1     -24.615  -5.384 -11.116  0.00  0.00     0.174 HD
ENDBRANCH   8   9
ENDBRANCH   7   8
ENDBRANCH   6   7
ENDBRANCH   5   6
BRANCH   5  18
HETATM   18  N           1     -19.825  -6.350  -7.303  0.00  0.00    -0.067 N 
HETATM   19  H           1     -19.683  -5.762  -8.156  0.00  0.00     0.275 HD
HETATM   20  H           1     -20.419  -7.175  -7.544  0.00  0.00     0.275 HD
HETATM   21  H           1     -18.899  -6.680  -6.948  0.00  0.00     0.275 HD
ENDBRANCH   5  18
ENDBRANCH   1   5
BRANCH   2  22
HETATM   22  C           1     -20.567  -8.522  -3.844  0.00  0.00     0.187 C 
BRANCH  22  23
HETATM   23  C           1     -21.497  -9.683  -4.176  0.00  0.00     0.066 C 
BRANCH  23  24
HETATM   24  C           1     -21.869 -10.417  -2.895  0.00  0.00     0.273 C 
BRANCH  24  25
HETATM   25  N           1     -22.563  -9.519  -2.011  0.00  0.00     0.098 N 
HETATM   26  H           1     -23.565  -9.702  -2.060  0.00  0.00     0.317 HD
BRANCH  25  27
HETATM   27  C           1     -22.093  -9.769  -0.676  0.00  0.00     0.323 C 
BRANCH  27  28
HETATM   28  C           1     -22.312  -8.529   0.179  0.00  0.00     0.021 C 
HETATM   29  C           1     -22.215  -7.286  -0.696  0.00  0.00     0.012 C 
HETATM   30  C           1     -21.249  -8.469   1.268  0.00  0.00     0.012 C 
ENDBRANCH  27  28
BRANCH  27  31
HETATM   31  C           1     -22.854 -10.930  -0.085  0.00  0.00     0.207 C 
HETATM   32  O           1     -22.235 -11.925   0.352  0.00  0.00    -0.646 OA
HETATM   33  O           1     -24.102 -10.898  -0.033  0.00  0.00    -0.646 OA
ENDBRANCH  27  31
ENDBRANCH  25  27
ENDBRANCH  24  25
ENDBRANCH  23  24
ENDBRANCH  22  23
BRANCH  22  34
HETATM   34  C           1     -19.237  -9.060  -3.377  0.00  0.00     0.196 C 
HETATM   35  O           1     -18.912  -8.964  -2.174  0.00  0.00    -0.646 OA
HETATM   36  O           1     -18.460  -9.602  -4.193  0.00  0.00    -0.646 OA
ENDBRANCH  22  34
ENDBRANCH   2  22
TORSDOF 14
ENDMDL
MODEL 7
REMARK VINA RESULT:      -6.3      1.883      3.657
REMARK  14 active torsions:
REMARK  status: ('A' for Active; 'I' for Inactive)
REMARK    1  A    between atoms: C_1  and  C_28 
REMARK    2  A    between atoms: C_1  and  C_16 
REMARK    3  A    between atoms: C_5  and  C_16 
REMARK    4  A    between atoms: C_6  and  C_7 
REMARK    5  A    between atoms: C_6  and  C_26 
REMARK    6  A    between atoms: C_6  and  N_29 
REMARK       I    between atoms: C_7  and  N_8 
REMARK    7  A    between atoms: N_8  and  C_16 
REMARK    8  A    between atoms: C_10  and  C_24 
REMARK    9  A    between atoms: C_10  and  C_11 
REMARK   10  A    between atoms: C_10  and  N_27 
REMARK   11  A    between atoms: C_18  and  C_25 
REMARK   12  A    between atoms: C_18  and  N_19 
REMARK       I    between atoms: N_19  and  C_20 
REMARK       I    between atoms: C_20  and  N_21 
REMARK   13  A    between atoms: C_25  and  C_26 
REMARK   14  A    between atoms: N_27  and  C_28 
ROOT
HETATM    1  C           1     -21.244  -6.831  -4.896  0.00  0.00     0.249 C 
HETATM    2  N           1     -21.041  -6.555  -3.570  0.00  0.00    -0.345 N 
HETATM    3  H           1     -20.574  -5.700  -3.298  0.00  0.00     0.163 HD
HETATM    4  O           1     -21.803  -7.853  -5.221  0.00  0.00    -0.271 OA
ENDROOT
BRANCH   1   5
HETATM    5  C           1     -20.770  -5.862  -5.950  0.00  0.00     0.274 C 
BRANCH   5   6
HETATM    6  C           1     -21.972  -5.205  -6.614  0.00  0.00     0.044 C 
BRANCH   6   7
HETATM    7  C           1     -21.527  -3.932  -7.323  0.00  0.00     0.023 C 
BRANCH   7   8
HETATM    8  C           1     -22.050  -3.937  -8.753  0.00  0.00     0.138 C 
BRANCH   8   9
HETATM    9  N           1     -23.453  -3.498  -8.764  0.00  0.00    -0.227 N 
HETATM   10  H           1     -23.792  -2.804  -8.053  0.00  0.00     0.177 HD
HETATM   11  C           1     -24.253  -3.958  -9.632  0.00  0.00     0.665 C 
HETATM   12  N           1     -25.461  -3.581  -9.643  0.00  0.00    -0.235 N 
HETATM   13  N           1     -23.832  -4.817 -10.513  0.00  0.00    -0.235 N 
HETATM   14  H           1     -25.800  -2.886  -8.932  0.00  0.00     0.174 HD
HETATM   15  H           1     -26.124  -3.961 -10.362  0.00  0.00     0.174 HD
HETATM   16  H           1     -22.835  -5.129 -10.504  0.00  0.00     0.174 HD
HETATM   17  H           1     -24.492  -5.196 -11.228  0.00  0.00     0.174 HD
ENDBRANCH   8   9
ENDBRANCH   7   8
ENDBRANCH   6   7
ENDBRANCH   5   6
BRANCH   5  18
HETATM   18  N           1     -19.969  -6.598  -6.983  0.00  0.00    -0.067 N 
HETATM   19  H           1     -20.478  -6.580  -7.895  0.00  0.00     0.275 HD
HETATM   20  H           1     -19.834  -7.589  -6.678  0.00  0.00     0.275 HD
HETATM   21  H           1     -19.037  -6.137  -7.093  0.00  0.00     0.275 HD
ENDBRANCH   5  18
ENDBRANCH   1   5
BRANCH   2  22
HETATM   22  C           1     -21.497  -7.487  -2.557  0.00  0.00     0.187 C 
BRANCH  22  23
HETATM   23  C           1     -20.313  -8.296  -2.045  0.00  0.00     0.066 C 
BRANCH  23  24
HETATM   24  C           1     -20.476  -9.753  -2.457  0.00  0.00     0.273 C 
BRANCH  24  25
HETATM   25  N           1     -21.868 -10.034  -2.684  0.00  0.00     0.098 N 
HETATM   26  H           1     -22.067  -9.975  -3.684  0.00  0.00     0.317 HD
BRANCH  25  27
HETATM   27  C           1     -22.126 -11.370  -2.221  0.00  0.00     0.323 C 
BRANCH  27  28
HETATM   28  C           1     -23.516 -11.433  -1.602  0.00  0.00     0.021 C 
HETATM   29  C           1     -23.589 -10.472  -0.422  0.00  0.00     0.012 C 
HETATM   30  C           1     -23.794 -12.851  -1.122  0.00  0.00     0.012 C 
ENDBRANCH  27  28
BRANCH  27  31
HETATM   31  C           1     -22.049 -12.329  -3.384  0.00  0.00     0.207 C 
HETATM   32  O           1     -22.739 -12.126  -4.407  0.00  0.00    -0.646 OA
HETATM   33  O           1     -21.297 -13.325  -3.324  0.00  0.00    -0.646 OA
ENDBRANCH  27  31
ENDBRANCH  25  27
ENDBRANCH  24  25
ENDBRANCH  23  24
ENDBRANCH  22  23
BRANCH  22  34
HETATM   34  C           1     -22.118  -6.724  -1.414  0.00  0.00     0.196 C 
HETATM   35  O           1     -22.434  -5.523  -1.562  0.00  0.00    -0.646 OA
HETATM   36  O           1     -22.319  -7.292  -0.319  0.00  0.00    -0.646 OA
ENDBRANCH  22  34
ENDBRANCH   2  22
TORSDOF 14
ENDMDL
MODEL 8
REMARK VINA RESULT:      -6.2      1.940      2.689
REMARK  14 active torsions:
REMARK  status: ('A' for Active; 'I' for Inactive)
REMARK    1  A    between atoms: C_1  and  C_28 
REMARK    2  A    between atoms: C_1  and  C_16 
REMARK    3  A    between atoms: C_5  and  C_16 
REMARK    4  A    between atoms: C_6  and  C_7 
REMARK    5  A    between atoms: C_6  and  C_26 
REMARK    6  A    between atoms: C_6  and  N_29 
REMARK       I    between atoms: C_7  and  N_8 
REMARK    7  A    between atoms: N_8  and  C_16 
REMARK    8  A    between atoms: C_10  and  C_24 
REMARK    9  A    between atoms: C_10  and  C_11 
REMARK   10  A    between atoms: C_10  and  N_27 
REMARK   11  A    between atoms: C_18  and  C_25 
REMARK   12  A    between atoms: C_18  and  N_19 
REMARK       I    between atoms: N_19  and  C_20 
REMARK       I    between atoms: C_20  and  N_21 
REMARK   13  A    between atoms: C_25  and  C_26 
REMARK   14  A    between atoms: N_27  and  C_28 
ROOT
HETATM    1  C           1     -20.184  -5.043  -6.070  0.00  0.00     0.249 C 
HETATM    2  N           1     -20.384  -6.398  -6.065  0.00  0.00    -0.345 N 
HETATM    3  H           1     -20.590  -6.882  -6.931  0.00  0.00     0.163 HD
HETATM    4  O           1     -19.939  -4.466  -5.037  0.00  0.00    -0.271 OA
ENDROOT
BRANCH   1   5
HETATM    5  C           1     -20.272  -4.272  -7.363  0.00  0.00     0.274 C 
BRANCH   5   6
HETATM    6  C           1     -21.586  -3.505  -7.410  0.00  0.00     0.044 C 
BRANCH   6   7
HETATM    7  C           1     -22.689  -4.418  -7.930  0.00  0.00     0.023 C 
BRANCH   7   8
HETATM    8  C           1     -23.460  -3.707  -9.033  0.00  0.00     0.138 C 
BRANCH   8   9
HETATM    9  N           1     -23.380  -4.492 -10.274  0.00  0.00    -0.227 N 
HETATM   10  H           1     -24.024  -5.308 -10.421  0.00  0.00     0.177 HD
HETATM   11  C           1     -22.534  -4.183 -11.164  0.00  0.00     0.665 C 
HETATM   12  N           1     -22.465  -4.859 -12.233  0.00  0.00    -0.235 N 
HETATM   13  N           1     -21.737  -3.173 -10.982  0.00  0.00    -0.235 N 
HETATM   14  H           1     -23.110  -5.675 -12.380  0.00  0.00     0.174 HD
HETATM   15  H           1     -21.764  -4.604 -12.972  0.00  0.00     0.174 HD
HETATM   16  H           1     -21.794  -2.616 -10.100  0.00  0.00     0.174 HD
HETATM   17  H           1     -21.039  -2.919 -11.717  0.00  0.00     0.174 HD
ENDBRANCH   8   9
ENDBRANCH   7   8
ENDBRANCH   6   7
ENDBRANCH   5   6
BRANCH   5  18
HETATM   18  N           1     -20.208  -5.225  -8.520  0.00  0.00    -0.067 N 
HETATM   19  H           1     -21.014  -5.888  -8.469  0.00  0.00     0.275 HD
HETATM   20  H           1     -19.312  -5.762  -8.481  0.00  0.00     0.275 HD
HETATM   21  H           1     -20.253  -4.688  -9.416  0.00  0.00     0.275 HD
ENDBRANCH   5  18
ENDBRANCH   1   5
BRANCH   2  22
HETATM   22  C           1     -20.300  -7.139  -4.822  0.00  0.00     0.187 C 
BRANCH  22  23
HETATM   23  C           1     -21.599  -6.972  -4.044  0.00  0.00     0.066 C 
BRANCH  23  24
HETATM   24  C           1     -21.286  -6.782  -2.566  0.00  0.00     0.273 C 
BRANCH  24  25
HETATM   25  N           1     -22.096  -7.677  -1.785  0.00  0.00     0.098 N 
HETATM   26  H           1     -22.614  -8.297  -2.408  0.00  0.00     0.317 HD
BRANCH  25  27
HETATM   27  C           1     -21.216  -8.454  -0.956  0.00  0.00     0.323 C 
BRANCH  27  28
HETATM   28  C           1     -21.943  -8.855   0.320  0.00  0.00     0.021 C 
HETATM   29  C           1     -23.154  -7.953   0.518  0.00  0.00     0.012 C 
HETATM   30  C           1     -21.001  -8.711   1.508  0.00  0.00     0.012 C 
ENDBRANCH  27  28
BRANCH  27  31
HETATM   31  C           1     -20.787  -9.693  -1.703  0.00  0.00     0.207 C 
HETATM   32  O           1     -21.621 -10.336  -2.377  0.00  0.00    -0.646 OA
HETATM   33  O           1     -19.599 -10.076  -1.647  0.00  0.00    -0.646 OA
ENDBRANCH  27  31
ENDBRANCH  25  27
ENDBRANCH  24  25
ENDBRANCH  23  24
ENDBRANCH  22  23
BRANCH  22  34
HETATM   34  C           1     -20.077  -8.601  -5.121  0.00  0.00     0.196 C 
HETATM   35  O           1     -20.970  -9.267  -5.688  0.00  0.00    -0.646 OA
HETATM   36  O           1     -18.997  -9.146  -4.804  0.00  0.00    -0.646 OA
ENDBRANCH  22  34
ENDBRANCH   2  22
TORSDOF 14
ENDMDL
MODEL 9
REMARK VINA RESULT:      -6.1      1.805      2.194
REMARK  14 active torsions:
REMARK  status: ('A' for Active; 'I' for Inactive)
REMARK    1  A    between atoms: C_1  and  C_28 
REMARK    2  A    between atoms: C_1  and  C_16 
REMARK    3  A    between atoms: C_5  and  C_16 
REMARK    4  A    between atoms: C_6  and  C_7 
REMARK    5  A    between atoms: C_6  and  C_26 
REMARK    6  A    between atoms: C_6  and  N_29 
REMARK       I    between atoms: C_7  and  N_8 
REMARK    7  A    between atoms: N_8  and  C_16 
REMARK    8  A    between atoms: C_10  and  C_24 
REMARK    9  A    between atoms: C_10  and  C_11 
REMARK   10  A    between atoms: C_10  and  N_27 
REMARK   11  A    between atoms: C_18  and  C_25 
REMARK   12  A    between atoms: C_18  and  N_19 
REMARK       I    between atoms: N_19  and  C_20 
REMARK       I    between atoms: C_20  and  N_21 
REMARK   13  A    between atoms: C_25  and  C_26 
REMARK   14  A    between atoms: N_27  and  C_28 
ROOT
HETATM    1  C           1     -21.642  -6.653  -5.381  0.00  0.00     0.249 C 
HETATM    2  N           1     -21.059  -7.853  -5.694  0.00  0.00    -0.345 N 
HETATM    3  H           1     -20.918  -8.108  -6.663  0.00  0.00     0.163 HD
HETATM    4  O           1     -21.811  -6.347  -4.225  0.00  0.00    -0.271 OA
ENDROOT
BRANCH   1   5
HETATM    5  C           1     -22.073  -5.714  -6.481  0.00  0.00     0.274 C 
BRANCH   5   6
HETATM    6  C           1     -21.090  -4.556  -6.576  0.00  0.00     0.044 C 
BRANCH   6   7
HETATM    7  C           1     -21.484  -3.649  -7.734  0.00  0.00     0.023 C 
BRANCH   7   8
HETATM    8  C           1     -20.680  -4.025  -8.971  0.00  0.00     0.138 C 
BRANCH   8   9
HETATM    9  N           1     -21.589  -4.510 -10.020  0.00  0.00    -0.227 N 
HETATM   10  H           1     -22.395  -5.135  -9.768  0.00  0.00     0.177 HD
HETATM   11  C           1     -21.400  -4.174 -11.226  0.00  0.00     0.665 C 
HETATM   12  N           1     -22.183  -4.591 -12.129  0.00  0.00    -0.235 N 
HETATM   13  N           1     -20.403  -3.401 -11.537  0.00  0.00    -0.235 N 
HETATM   14  H           1     -22.989  -5.215 -11.877  0.00  0.00     0.174 HD
HETATM   15  H           1     -22.027  -4.313 -13.129  0.00  0.00     0.174 HD
HETATM   16  H           1     -19.757  -3.057 -10.792  0.00  0.00     0.174 HD
HETATM   17  H           1     -20.247  -3.124 -12.532  0.00  0.00     0.174 HD
ENDBRANCH   8   9
ENDBRANCH   7   8
ENDBRANCH   6   7
ENDBRANCH   5   6
BRANCH   5  18
HETATM   18  N           1     -23.442  -5.184  -6.177  0.00  0.00    -0.067 N 
HETATM   19  H           1     -23.993  -5.913  -5.671  0.00  0.00     0.275 HD
HETATM   20  H           1     -23.927  -4.938  -7.070  0.00  0.00     0.275 HD
HETATM   21  H           1     -23.360  -4.330  -5.579  0.00  0.00     0.275 HD
ENDBRANCH   5  18
ENDBRANCH   1   5
BRANCH   2  22
HETATM   22  C           1     -20.646  -8.755  -4.637  0.00  0.00     0.187 C 
BRANCH  22  23
HETATM   23  C           1     -21.396 -10.073  -4.773  0.00  0.00     0.066 C 
BRANCH  23  24
HETATM   24  C           1     -22.251 -10.302  -3.534  0.00  0.00     0.273 C 
BRANCH  24  25
HETATM   25  N           1     -21.478 -10.012  -2.357  0.00  0.00     0.098 N 
HETATM   26  H           1     -20.676  -9.433  -2.611  0.00  0.00     0.317 HD
BRANCH  25  27
HETATM   27  C           1     -22.322  -9.289  -1.446  0.00  0.00     0.323 C 
BRANCH  27  28
HETATM   28  C           1     -22.486 -10.091  -0.162  0.00  0.00     0.021 C 
HETATM   29  C           1     -21.325 -11.068  -0.023  0.00  0.00     0.012 C 
HETATM   30  C           1     -23.797 -10.863  -0.210  0.00  0.00     0.012 C 
ENDBRANCH  27  28
BRANCH  27  31
HETATM   31  C           1     -21.693  -7.955  -1.129  0.00  0.00     0.207 C 
HETATM   32  O           1     -22.410  -6.996  -0.766  0.00  0.00    -0.646 OA
HETATM   33  O           1     -20.456  -7.807  -1.230  0.00  0.00    -0.646 OA
ENDBRANCH  27  31
ENDBRANCH  25  27
ENDBRANCH  24  25
ENDBRANCH  23  24
ENDBRANCH  22  23
BRANCH  22  34
HETATM   34  C           1     -19.162  -9.006  -4.742  0.00  0.00     0.196 C 
HETATM   35  O           1     -18.487  -9.211  -3.710  0.00  0.00    -0.646 OA
HETATM   36  O           1     -18.607  -9.011  -5.863  0.00  0.00    -0.646 OA
ENDBRANCH  22  34
ENDBRANCH   2  22
TORSDOF 14
ENDMDL
