MODEL 1
REMARK VINA RESULT:      -6.5      0.000      0.000
REMARK  8 active torsions:
REMARK  status: ('A' for Active; 'I' for Inactive)
REMARK    1  A    between atoms: N_2  and  C_8 
REMARK       I    between atoms: C_5  and  N_6 
REMARK    2  A    between atoms: C_5  and  C_8 
REMARK    3  A    between atoms: N_6  and  C_12 
REMARK    4  A    between atoms: C_7  and  C_8 
REMARK    5  A    between atoms: C_7  and  C_17 
REMARK    6  A    between atoms: C_11  and  C_12 
REMARK    7  A    between atoms: C_12  and  C_13 
REMARK    8  A    between atoms: C_13  and  C_15 
ROOT
HETATM    1  O           1     -35.004  -2.423 -14.045  0.00  0.00    -0.271 OA
HETATM    2  H           1     -35.436   0.258 -12.473  0.00  0.00     0.163 HD
HETATM    3  C           1     -35.102  -1.232 -13.872  0.00  0.00     0.249 C 
HETATM    4  N           1     -35.354  -0.741 -12.618  0.00  0.00    -0.345 N 
ENDROOT
BRANCH   3   5
HETATM    5  C           1     -34.945  -0.284 -15.036  0.00  0.00     0.284 C 
BRANCH   5   6
HETATM    6  N           1     -34.910  -1.066 -16.315  0.00  0.00    -0.066 N 
HETATM    7  H           1     -35.667  -0.727 -16.951  0.00  0.00     0.275 HD
HETATM    8  H           1     -33.982  -0.934 -16.778  0.00  0.00     0.275 HD
HETATM    9  H           1     -35.057  -2.079 -16.108  0.00  0.00     0.275 HD
ENDBRANCH   5   6
BRANCH   5  10
HETATM   10  C           1     -36.121   0.683 -15.064  0.00  0.00     0.155 C 
BRANCH  10  11
HETATM   11  C           1     -37.394  -0.080 -15.337  0.00  0.00     0.175 C 
HETATM   12  O           1     -37.768  -0.270 -16.516  0.00  0.00    -0.648 OA
HETATM   13  O           1     -38.075  -0.521 -14.387  0.00  0.00    -0.648 OA
ENDBRANCH  10  11
ENDBRANCH   5  10
ENDBRANCH   3   5
BRANCH   4  14
HETATM   14  C           1     -35.504  -1.651 -11.500  0.00  0.00     0.185 C 
BRANCH  14  15
HETATM   15  C           1     -36.517  -1.093 -10.531  0.00  0.00     0.196 C 
HETATM   16  O           1     -37.728  -1.064 -10.840  0.00  0.00    -0.646 OA
HETATM   17  O           1     -36.146  -0.661  -9.418  0.00  0.00    -0.646 OA
ENDBRANCH  14  15
BRANCH  14  18
HETATM   18  C           1     -34.164  -1.814 -10.795  0.00  0.00     0.040 C 
BRANCH  18  19
HETATM   19  C           1     -33.842  -3.295 -10.650  0.00  0.00    -0.020 C 
HETATM   20  C           1     -32.770  -3.682 -11.660  0.00  0.00     0.009 C 
HETATM   21  C           1     -35.099  -4.115 -10.905  0.00  0.00     0.009 C 
ENDBRANCH  18  19
ENDBRANCH  14  18
ENDBRANCH   4  14
TORSDOF 8
ENDMDL
MODEL 2
REMARK VINA RESULT:      -6.2      2.209      4.612
REMARK  8 active torsions:
REMARK  status: ('A' for Active; 'I' for Inactive)
REMARK    1  A    between atoms: N_2  and  C_8 
REMARK       I    between atoms: C_5  and  N_6 
REMARK    2  A    between atoms: C_5  and  C_8 
REMARK    3  A    between atoms: N_6  and  C_12 
REMARK    4  A    between atoms: C_7  and  C_8 
REMARK    5  A    between atoms: C_7  and  C_17 
REMARK    6  A    between atoms: C_11  and  C_12 
REMARK    7  A    between atoms: C_12  and  C_13 
REMARK    8  A    between atoms: C_13  and  C_15 
ROOT
HETATM    1  O           1     -33.617  -1.429 -10.652  0.00  0.00    -0.271 OA
HETATM    2  H           1     -36.278  -2.578 -11.851  0.00  0.00     0.163 HD
HETATM    3  C           1     -34.416  -2.263 -11.003  0.00  0.00     0.249 C 
HETATM    4  N           1     -35.609  -1.879 -11.556  0.00  0.00    -0.345 N 
ENDROOT
BRANCH   3   5
HETATM    5  C           1     -34.102  -3.730 -10.834  0.00  0.00     0.284 C 
BRANCH   5   6
HETATM    6  N           1     -35.380  -4.500 -10.685  0.00  0.00    -0.066 N 
HETATM    7  H           1     -35.813  -4.641 -11.625  0.00  0.00     0.275 HD
HETATM    8  H           1     -35.177  -5.430 -10.253  0.00  0.00     0.275 HD
HETATM    9  H           1     -36.039  -3.967 -10.075  0.00  0.00     0.275 HD
ENDBRANCH   5   6
BRANCH   5  10
HETATM   10  C           1     -33.347  -4.231 -12.057  0.00  0.00     0.155 C 
BRANCH  10  11
HETATM   11  C           1     -34.297  -4.346 -13.224  0.00  0.00     0.175 C 
HETATM   12  O           1     -35.036  -5.349 -13.331  0.00  0.00    -0.648 OA
HETATM   13  O           1     -34.344  -3.440 -14.083  0.00  0.00    -0.648 OA
ENDBRANCH  10  11
ENDBRANCH   5  10
ENDBRANCH   3   5
BRANCH   4  14
HETATM   14  C           1     -35.911  -0.470 -11.720  0.00  0.00     0.185 C 
BRANCH  14  15
HETATM   15  C           1     -36.920  -0.049 -10.680  0.00  0.00     0.196 C 
HETATM   16  O           1     -36.608   0.795  -9.812  0.00  0.00    -0.646 OA
HETATM   17  O           1     -38.068  -0.544 -10.686  0.00  0.00    -0.646 OA
ENDBRANCH  14  15
BRANCH  14  18
HETATM   18  C           1     -36.486  -0.233 -13.110  0.00  0.00     0.040 C 
BRANCH  18  19
HETATM   19  C           1     -35.350  -0.103 -14.116  0.00  0.00    -0.020 C 
HETATM   20  C           1     -34.606   1.203 -13.874  0.00  0.00     0.009 C 
HETATM   21  C           1     -35.920  -0.109 -15.528  0.00  0.00     0.009 C 
ENDBRANCH  18  19
ENDBRANCH  14  18
ENDBRANCH   4  14
TORSDOF 8
ENDMDL
MODEL 3
REMARK VINA RESULT:      -6.0      2.720      5.354
REMARK  8 active torsions:
REMARK  status: ('A' for Active; 'I' for Inactive)
REMARK    1  A    between atoms: N_2  and  C_8 
REMARK       I    between atoms: C_5  and  N_6 
REMARK    2  A    between atoms: C_5  and  C_8 
REMARK    3  A    between atoms: N_6  and  C_12 
REMARK    4  A    between atoms: C_7  and  C_8 
REMARK    5  A    between atoms: C_7  and  C_17 
REMARK    6  A    between atoms: C_11  and  C_12 
REMARK    7  A    between atoms: C_12  and  C_13 
REMARK    8  A    between atoms: C_13  and  C_15 
ROOT
HETATM    1  O           1     -33.401  -2.182 -10.977  0.00  0.00    -0.271 OA
HETATM    2  H           1     -36.046  -2.979 -12.464  0.00  0.00     0.163 HD
HETATM    3  C           1     -34.201  -2.899 -11.529  0.00  0.00     0.249 C 
HETATM    4  N           1     -35.376  -2.378 -12.001  0.00  0.00    -0.345 N 
ENDROOT
BRANCH   3   5
HETATM    5  C           1     -33.906  -4.369 -11.697  0.00  0.00     0.284 C 
BRANCH   5   6
HETATM    6  N           1     -32.518  -4.541 -12.237  0.00  0.00    -0.066 N 
HETATM    7  H           1     -32.294  -5.560 -12.305  0.00  0.00     0.275 HD
HETATM    8  H           1     -32.458  -4.109 -13.187  0.00  0.00     0.275 HD
HETATM    9  H           1     -31.835  -4.077 -11.597  0.00  0.00     0.275 HD
ENDBRANCH   5   6
BRANCH   5  10
HETATM   10  C           1     -34.016  -5.066 -10.348  0.00  0.00     0.155 C 
BRANCH  10  11
HETATM   11  C           1     -34.621  -6.436 -10.535  0.00  0.00     0.175 C 
HETATM   12  O           1     -34.840  -7.164  -9.542  0.00  0.00    -0.648 OA
HETATM   13  O           1     -34.901  -6.844 -11.682  0.00  0.00    -0.648 OA
ENDBRANCH  10  11
ENDBRANCH   5  10
ENDBRANCH   3   5
BRANCH   4  14
HETATM   14  C           1     -35.659  -0.965 -11.840  0.00  0.00     0.185 C 
BRANCH  14  15
HETATM   15  C           1     -36.615  -0.772 -10.690  0.00  0.00     0.196 C 
HETATM   16  O           1     -37.834  -1.000 -10.844  0.00  0.00    -0.646 OA
HETATM   17  O           1     -36.189  -0.385  -9.580  0.00  0.00    -0.646 OA
ENDBRANCH  14  15
BRANCH  14  18
HETATM   18  C           1     -36.287  -0.425 -13.118  0.00  0.00     0.040 C 
BRANCH  18  19
HETATM   19  C           1     -35.194  -0.134 -14.139  0.00  0.00    -0.020 C 
HETATM   20  C           1     -34.606   1.245 -13.875  0.00  0.00     0.009 C 
HETATM   21  C           1     -35.788  -0.174 -15.541  0.00  0.00     0.009 C 
ENDBRANCH  18  19
ENDBRANCH  14  18
ENDBRANCH   4  14
TORSDOF 8
ENDMDL
MODEL 4
REMARK VINA RESULT:      -5.7      9.396     11.442
REMARK  8 active torsions:
REMARK  status: ('A' for Active; 'I' for Inactive)
REMARK    1  A    between atoms: N_2  and  C_8 
REMARK       I    between atoms: C_5  and  N_6 
REMARK    2  A    between atoms: C_5  and  C_8 
REMARK    3  A    between atoms: N_6  and  C_12 
REMARK    4  A    between atoms: C_7  and  C_8 
REMARK    5  A    between atoms: C_7  and  C_17 
REMARK    6  A    between atoms: C_11  and  C_12 
REMARK    7  A    between atoms: C_12  and  C_13 
REMARK    8  A    between atoms: C_13  and  C_15 
ROOT
HETATM    1  O           1     -28.284  -6.793 -18.201  0.00  0.00    -0.271 OA
HETATM    2  H           1     -26.128  -5.051 -16.732  0.00  0.00     0.163 HD
HETATM    3  C           1     -27.824  -5.841 -17.618  0.00  0.00     0.249 C 
HETATM    4  N           1     -26.513  -5.850 -17.221  0.00  0.00    -0.345 N 
ENDROOT
BRANCH   3   5
HETATM    5  C           1     -28.692  -4.641 -17.326  0.00  0.00     0.284 C 
BRANCH   5   6
HETATM    6  N           1     -29.459  -4.269 -18.560  0.00  0.00    -0.066 N 
HETATM    7  H           1     -29.412  -3.235 -18.701  0.00  0.00     0.275 HD
HETATM    8  H           1     -29.042  -4.752 -19.388  0.00  0.00     0.275 HD
HETATM    9  H           1     -30.457  -4.560 -18.451  0.00  0.00     0.275 HD
ENDBRANCH   5   6
BRANCH   5  10
HETATM   10  C           1     -29.666  -4.981 -16.206  0.00  0.00     0.155 C 
BRANCH  10  11
HETATM   11  C           1     -31.063  -5.084 -16.767  0.00  0.00     0.175 C 
HETATM   12  O           1     -31.463  -6.165 -17.253  0.00  0.00    -0.648 OA
HETATM   13  O           1     -31.821  -4.091 -16.744  0.00  0.00    -0.648 OA
ENDBRANCH  10  11
ENDBRANCH   5  10
ENDBRANCH   3   5
BRANCH   4  14
HETATM   14  C           1     -25.678  -7.001 -17.501  0.00  0.00     0.185 C 
BRANCH  14  15
HETATM   15  C           1     -24.945  -7.407 -16.247  0.00  0.00     0.196 C 
HETATM   16  O           1     -25.331  -6.992 -15.134  0.00  0.00    -0.646 OA
HETATM   17  O           1     -23.948  -8.159 -16.321  0.00  0.00    -0.646 OA
ENDBRANCH  14  15
BRANCH  14  18
HETATM   18  C           1     -24.671  -6.645 -18.586  0.00  0.00     0.040 C 
BRANCH  18  19
HETATM   19  C           1     -25.137  -7.212 -19.920  0.00  0.00    -0.020 C 
HETATM   20  C           1     -24.006  -8.008 -20.556  0.00  0.00     0.009 C 
HETATM   21  C           1     -25.537  -6.069 -20.845  0.00  0.00     0.009 C 
ENDBRANCH  18  19
ENDBRANCH  14  18
ENDBRANCH   4  14
TORSDOF 8
ENDMDL
MODEL 5
REMARK VINA RESULT:      -5.6     14.216     16.274
REMARK  8 active torsions:
REMARK  status: ('A' for Active; 'I' for Inactive)
REMARK    1  A    between atoms: N_2  and  C_8 
REMARK       I    between atoms: C_5  and  N_6 
REMARK    2  A    between atoms: C_5  and  C_8 
REMARK    3  A    between atoms: N_6  and  C_12 
REMARK    4  A    between atoms: C_7  and  C_8 
REMARK    5  A    between atoms: C_7  and  C_17 
REMARK    6  A    between atoms: C_11  and  C_12 
REMARK    7  A    between atoms: C_12  and  C_13 
REMARK    8  A    between atoms: C_13  and  C_15 
ROOT
HETATM    1  O           1     -19.962  -4.394  -6.490  0.00  0.00    -0.271 OA
HETATM    2  H           1     -22.748  -5.809  -6.223  0.00  0.00     0.163 HD
HETATM    3  C           1     -21.126  -4.622  -6.715  0.00  0.00     0.249 C 
HETATM    4  N           1     -21.772  -5.618  -6.033  0.00  0.00    -0.345 N 
ENDROOT
BRANCH   3   5
HETATM    5  C           1     -21.868  -3.810  -7.749  0.00  0.00     0.284 C 
BRANCH   5   6
HETATM    6  N           1     -21.190  -3.955  -9.078  0.00  0.00    -0.066 N 
HETATM    7  H           1     -21.874  -4.318  -9.780  0.00  0.00     0.275 HD
HETATM    8  H           1     -20.834  -3.024  -9.390  0.00  0.00     0.275 HD
HETATM    9  H           1     -20.392  -4.624  -8.992  0.00  0.00     0.275 HD
ENDBRANCH   5   6
BRANCH   5  10
HETATM   10  C           1     -23.302  -4.312  -7.853  0.00  0.00     0.155 C 
BRANCH  10  11
HETATM   11  C           1     -23.799  -4.128  -9.265  0.00  0.00     0.175 C 
HETATM   12  O           1     -24.322  -3.044  -9.607  0.00  0.00    -0.648 OA
HETATM   13  O           1     -23.690  -5.058 -10.093  0.00  0.00    -0.648 OA
ENDBRANCH  10  11
ENDBRANCH   5  10
ENDBRANCH   3   5
BRANCH   4  14
HETATM   14  C           1     -21.059  -6.398  -5.041  0.00  0.00     0.185 C 
BRANCH  14  15
HETATM   15  C           1     -20.544  -7.666  -5.673  0.00  0.00     0.196 C 
HETATM   16  O           1     -21.282  -8.671  -5.752  0.00  0.00    -0.646 OA
HETATM   17  O           1     -19.376  -7.713  -6.120  0.00  0.00    -0.646 OA
ENDBRANCH  14  15
BRANCH  14  18
HETATM   18  C           1     -22.002  -6.748  -3.898  0.00  0.00     0.040 C 
BRANCH  18  19
HETATM   19  C           1     -21.269  -6.605  -2.570  0.00  0.00    -0.020 C 
HETATM   20  C           1     -20.617  -7.931  -2.206  0.00  0.00     0.009 C 
HETATM   21  C           1     -22.261  -6.211  -1.483  0.00  0.00     0.009 C 
ENDBRANCH  18  19
ENDBRANCH  14  18
ENDBRANCH   4  14
TORSDOF 8
ENDMDL
MODEL 6
REMARK VINA RESULT:      -5.5      7.944      9.803
REMARK  8 active torsions:
REMARK  status: ('A' for Active; 'I' for Inactive)
REMARK    1  A    between atoms: N_2  and  C_8 
REMARK       I    between atoms: C_5  and  N_6 
REMARK    2  A    between atoms: C_5  and  C_8 
REMARK    3  A    between atoms: N_6  and  C_12 
REMARK    4  A    between atoms: C_7  and  C_8 
REMARK    5  A    between atoms: C_7  and  C_17 
REMARK    6  A    between atoms: C_11  and  C_12 
REMARK    7  A    between atoms: C_12  and  C_13 
REMARK    8  A    between atoms: C_13  and  C_15 
ROOT
HETATM    1  O           1     -30.062  -6.833 -17.326  0.00  0.00    -0.271 OA
HETATM    2  H           1     -27.936  -4.617 -16.684  0.00  0.00     0.163 HD
HETATM    3  C           1     -29.638  -5.734 -17.061  0.00  0.00     0.249 C 
HETATM    4  N           1     -28.292  -5.539 -16.906  0.00  0.00    -0.345 N 
ENDROOT
BRANCH   3   5
HETATM    5  C           1     -30.592  -4.575 -16.900  0.00  0.00     0.284 C 
BRANCH   5   6
HETATM    6  N           1     -30.296  -3.537 -17.942  0.00  0.00    -0.066 N 
HETATM    7  H           1     -29.262  -3.467 -18.080  0.00  0.00     0.275 HD
HETATM    8  H           1     -30.749  -3.811 -18.843  0.00  0.00     0.275 HD
HETATM    9  H           1     -30.669  -2.613 -17.629  0.00  0.00     0.275 HD
ENDBRANCH   5   6
BRANCH   5  10
HETATM   10  C           1     -32.022  -5.069 -17.067  0.00  0.00     0.155 C 
BRANCH  10  11
HETATM   11  C           1     -32.982  -3.941 -16.777  0.00  0.00     0.175 C 
HETATM   12  O           1     -33.062  -2.971 -17.563  0.00  0.00    -0.648 OA
HETATM   13  O           1     -33.697  -3.976 -15.753  0.00  0.00    -0.648 OA
ENDBRANCH  10  11
ENDBRANCH   5  10
ENDBRANCH   3   5
BRANCH   4  14
HETATM   14  C           1     -27.375  -6.651 -17.061  0.00  0.00     0.185 C 
BRANCH  14  15
HETATM   15  C           1     -26.991  -7.178 -15.700  0.00  0.00     0.196 C 
HETATM   16  O           1     -25.788  -7.233 -15.367  0.00  0.00    -0.646 OA
HETATM   17  O           1     -27.877  -7.562 -14.905  0.00  0.00    -0.646 OA
ENDBRANCH  14  15
BRANCH  14  18
HETATM   18  C           1     -26.126  -6.182 -17.794  0.00  0.00     0.040 C 
BRANCH  18  19
HETATM   19  C           1     -25.973  -6.965 -19.092  0.00  0.00    -0.020 C 
HETATM   20  C           1     -24.517  -6.932 -19.534  0.00  0.00     0.009 C 
HETATM   21  C           1     -26.846  -6.336 -20.170  0.00  0.00     0.009 C 
ENDBRANCH  18  19
ENDBRANCH  14  18
ENDBRANCH   4  14
TORSDOF 8
ENDMDL
MODEL 7
REMARK VINA RESULT:      -5.5      9.763     11.717
REMARK  8 active torsions:
REMARK  status: ('A' for Active; 'I' for Inactive)
REMARK    1  A    between atoms: N_2  and  C_8 
REMARK       I    between atoms: C_5  and  N_6 
REMARK    2  A    between atoms: C_5  and  C_8 
REMARK    3  A    between atoms: N_6  and  C_12 
REMARK    4  A    between atoms: C_7  and  C_8 
REMARK    5  A    between atoms: C_7  and  C_17 
REMARK    6  A    between atoms: C_11  and  C_12 
REMARK    7  A    between atoms: C_12  and  C_13 
REMARK    8  A    between atoms: C_13  and  C_15 
ROOT
HETATM    1  O           1     -28.760  -7.275 -18.737  0.00  0.00    -0.271 OA
HETATM    2  H           1     -26.826  -4.906 -18.037  0.00  0.00     0.163 HD
HETATM    3  C           1     -28.430  -6.167 -18.389  0.00  0.00     0.249 C 
HETATM    4  N           1     -27.103  -5.836 -18.328  0.00  0.00    -0.345 N 
ENDROOT
BRANCH   3   5
HETATM    5  C           1     -29.480  -5.147 -18.021  0.00  0.00     0.284 C 
BRANCH   5   6
HETATM    6  N           1     -30.474  -5.770 -17.087  0.00  0.00    -0.066 N 
HETATM    7  H           1     -30.347  -6.807 -17.084  0.00  0.00     0.275 HD
HETATM    8  H           1     -30.324  -5.399 -16.122  0.00  0.00     0.275 HD
HETATM    9  H           1     -31.442  -5.539 -17.404  0.00  0.00     0.275 HD
ENDBRANCH   5   6
BRANCH   5  10
HETATM   10  C           1     -28.815  -3.960 -17.338  0.00  0.00     0.155 C 
BRANCH  10  11
HETATM   11  C           1     -29.755  -2.779 -17.351  0.00  0.00     0.175 C 
HETATM   12  O           1     -30.986  -2.962 -17.472  0.00  0.00    -0.648 OA
HETATM   13  O           1     -29.304  -1.619 -17.240  0.00  0.00    -0.648 OA
ENDBRANCH  10  11
ENDBRANCH   5  10
ENDBRANCH   3   5
BRANCH   4  14
HETATM   14  C           1     -26.094  -6.815 -18.682  0.00  0.00     0.185 C 
BRANCH  14  15
HETATM   15  C           1     -24.928  -6.701 -17.731  0.00  0.00     0.196 C 
HETATM   16  O           1     -25.125  -6.417 -16.530  0.00  0.00    -0.646 OA
HETATM   17  O           1     -23.763  -6.890 -18.145  0.00  0.00    -0.646 OA
ENDBRANCH  14  15
BRANCH  14  18
HETATM   18  C           1     -25.615  -6.559 -20.105  0.00  0.00     0.040 C 
BRANCH  18  19
HETATM   19  C           1     -25.426  -7.887 -20.825  0.00  0.00    -0.020 C 
HETATM   20  C           1     -24.486  -7.694 -22.007  0.00  0.00     0.009 C 
HETATM   21  C           1     -26.774  -8.390 -21.325  0.00  0.00     0.009 C 
ENDBRANCH  18  19
ENDBRANCH  14  18
ENDBRANCH   4  14
TORSDOF 8
ENDMDL
MODEL 8
REMARK VINA RESULT:      -5.4     15.290     17.496
REMARK  8 active torsions:
REMARK  status: ('A' for Active; 'I' for Inactive)
REMARK    1  A    between atoms: N_2  and  C_8 
REMARK       I    between atoms: C_5  and  N_6 
REMARK    2  A    between atoms: C_5  and  C_8 
REMARK    3  A    between atoms: N_6  and  C_12 
REMARK    4  A    between atoms: C_7  and  C_8 
REMARK    5  A    between atoms: C_7  and  C_17 
REMARK    6  A    between atoms: C_11  and  C_12 
REMARK    7  A    between atoms: C_12  and  C_13 
REMARK    8  A    between atoms: C_13  and  C_15 
ROOT
HETATM    1  O           1     -20.574  -4.879  -5.376  0.00  0.00    -0.271 OA
HETATM    2  H           1     -21.152  -7.732  -6.545  0.00  0.00     0.163 HD
HETATM    3  C           1     -20.951  -5.706  -6.171  0.00  0.00     0.249 C 
HETATM    4  N           1     -20.836  -7.038  -5.878  0.00  0.00    -0.345 N 
ENDROOT
BRANCH   3   5
HETATM    5  C           1     -21.547  -5.272  -7.488  0.00  0.00     0.284 C 
BRANCH   5   6
HETATM    6  N           1     -22.580  -4.213  -7.243  0.00  0.00    -0.066 N 
HETATM    7  H           1     -22.728  -3.661  -8.118  0.00  0.00     0.275 HD
HETATM    8  H           1     -23.480  -4.664  -6.961  0.00  0.00     0.275 HD
HETATM    9  H           1     -22.254  -3.577  -6.481  0.00  0.00     0.275 HD
ENDBRANCH   5   6
BRANCH   5  10
HETATM   10  C           1     -20.448  -4.711  -8.382  0.00  0.00     0.155 C 
BRANCH  10  11
HETATM   11  C           1     -21.028  -4.347  -9.726  0.00  0.00     0.175 C 
HETATM   12  O           1     -22.193  -4.697 -10.020  0.00  0.00    -0.648 OA
HETATM   13  O           1     -20.345  -3.697 -10.546  0.00  0.00    -0.648 OA
ENDBRANCH  10  11
ENDBRANCH   5  10
ENDBRANCH   3   5
BRANCH   4  14
HETATM   14  C           1     -20.265  -7.456  -4.613  0.00  0.00     0.185 C 
BRANCH  14  15
HETATM   15  C           1     -19.358  -8.640  -4.838  0.00  0.00     0.196 C 
HETATM   16  O           1     -18.658  -9.080  -3.901  0.00  0.00    -0.646 OA
HETATM   17  O           1     -19.306  -9.183  -5.964  0.00  0.00    -0.646 OA
ENDBRANCH  14  15
BRANCH  14  18
HETATM   18  C           1     -21.382  -7.847  -3.656  0.00  0.00     0.040 C 
BRANCH  18  19
HETATM   19  C           1     -21.131  -7.215  -2.293  0.00  0.00    -0.020 C 
HETATM   20  C           1     -21.180  -8.291  -1.217  0.00  0.00     0.009 C 
HETATM   21  C           1     -22.202  -6.169  -2.015  0.00  0.00     0.009 C 
ENDBRANCH  18  19
ENDBRANCH  14  18
ENDBRANCH   4  14
TORSDOF 8
ENDMDL
MODEL 9
REMARK VINA RESULT:      -5.3     25.352     26.789
REMARK  8 active torsions:
REMARK  status: ('A' for Active; 'I' for Inactive)
REMARK    1  A    between atoms: N_2  and  C_8 
REMARK       I    between atoms: C_5  and  N_6 
REMARK    2  A    between atoms: C_5  and  C_8 
REMARK    3  A    between atoms: N_6  and  C_12 
REMARK    4  A    between atoms: C_7  and  C_8 
REMARK    5  A    between atoms: C_7  and  C_17 
REMARK    6  A    between atoms: C_11  and  C_12 
REMARK    7  A    between atoms: C_12  and  C_13 
REMARK    8  A    between atoms: C_13  and  C_15 
ROOT
HETATM    1  O           1     -13.179   6.783 -19.524  0.00  0.00    -0.271 OA
HETATM    2  H           1     -10.900   6.430 -21.650  0.00  0.00     0.163 HD
HETATM    3  C           1     -12.313   7.110 -20.298  0.00  0.00     0.249 C 
HETATM    4  N           1     -11.626   6.155 -21.000  0.00  0.00    -0.345 N 
ENDROOT
BRANCH   3   5
HETATM    5  C           1     -11.987   8.571 -20.494  0.00  0.00     0.284 C 
BRANCH   5   6
HETATM    6  N           1     -11.424   9.130 -19.221  0.00  0.00    -0.066 N 
HETATM    7  H           1     -11.265  10.157 -19.333  0.00  0.00     0.275 HD
HETATM    8  H           1     -12.098   8.966 -18.440  0.00  0.00     0.275 HD
HETATM    9  H           1     -10.517   8.660 -19.005  0.00  0.00     0.275 HD
ENDBRANCH   5   6
BRANCH   5  10
HETATM   10  C           1     -10.961   8.716 -21.610  0.00  0.00     0.155 C 
BRANCH  10  11
HETATM   11  C           1      -9.577   8.797 -21.015  0.00  0.00     0.175 C 
HETATM   12  O           1      -8.987   9.898 -20.952  0.00  0.00    -0.648 OA
HETATM   13  O           1      -9.019   7.764 -20.586  0.00  0.00    -0.648 OA
ENDBRANCH  10  11
ENDBRANCH   5  10
ENDBRANCH   3   5
BRANCH   4  14
HETATM   14  C           1     -11.940   4.753 -20.813  0.00  0.00     0.185 C 
BRANCH  14  15
HETATM   15  C           1     -10.838   4.093 -20.021  0.00  0.00     0.196 C 
HETATM   16  O           1     -10.713   2.850 -20.039  0.00  0.00    -0.646 OA
HETATM   17  O           1     -10.050   4.790 -19.345  0.00  0.00    -0.646 OA
ENDBRANCH  14  15
BRANCH  14  18
HETATM   18  C           1     -12.063   4.075 -22.171  0.00  0.00     0.040 C 
BRANCH  18  19
HETATM   19  C           1     -13.474   3.528 -22.342  0.00  0.00    -0.020 C 
HETATM   20  C           1     -14.484   4.631 -22.056  0.00  0.00     0.009 C 
HETATM   21  C           1     -13.692   2.376 -21.369  0.00  0.00     0.009 C 
ENDBRANCH  18  19
ENDBRANCH  14  18
ENDBRANCH   4  14
TORSDOF 8
ENDMDL
