MODEL 1
REMARK VINA RESULT:      -6.4      0.000      0.000
REMARK  10 active torsions:
REMARK  status: ('A' for Active; 'I' for Inactive)
REMARK    1  A    between atoms: N_7  and  C_14 
REMARK    2  A    between atoms: O_10  and  P_11 
REMARK    3  A    between atoms: P_11  and  O_12 
REMARK    4  A    between atoms: O_12  and  C_13 
REMARK    5  A    between atoms: C_13  and  C_14 
REMARK    6  A    between atoms: C_14  and  C_15 
REMARK       I    between atoms: C_15  and  N_16 
REMARK    7  A    between atoms: N_16  and  C_20 
REMARK    8  A    between atoms: C_19  and  C_20 
REMARK    9  A    between atoms: C_20  and  C_21 
REMARK   10  A    between atoms: C_21  and  C_23 
ROOT
HETATM    1  C           1     -25.106  -6.707 -17.361  0.00  0.00     0.298 C 
ENDROOT
BRANCH   1   2
HETATM    2  N           1     -24.175  -7.840 -17.045  0.00  0.00    -0.064 N 
HETATM    3  H           1     -23.789  -7.714 -16.081  0.00  0.00     0.275 HD
HETATM    4  H           1     -23.392  -7.850 -17.737  0.00  0.00     0.275 HD
HETATM    5  H           1     -24.696  -8.744 -17.095  0.00  0.00     0.275 HD
ENDBRANCH   1   2
BRANCH   1   6
HETATM    6  C           1     -25.384  -6.682 -18.858  0.00  0.00     0.224 C 
BRANCH   6   7
HETATM    7  O           1     -24.584  -7.640 -19.498  0.00  0.00    -0.287 OA
BRANCH   7   8
HETATM    8  P           1     -24.789  -7.780 -21.094  0.00  0.00     0.406 P 
HETATM    9  O           1     -24.817  -6.434 -21.708  0.00  0.00    -0.624 OA
HETATM   10  O           1     -26.065  -8.477 -21.367  0.00  0.00    -0.624 OA
BRANCH   8  11
HETATM   11  O           1     -23.568  -8.632 -21.721  0.00  0.00    -0.300 OA
HETATM   12  H           1     -23.763  -9.528 -21.511  0.00  0.00     0.223 HD
ENDBRANCH   8  11
ENDBRANCH   7   8
ENDBRANCH   6   7
ENDBRANCH   1   6
BRANCH   1  13
HETATM   13  C           1     -26.400  -6.894 -16.610  0.00  0.00     0.251 C 
HETATM   14  O           1     -26.386  -7.313 -15.477  0.00  0.00    -0.271 OA
HETATM   15  N           1     -27.591  -6.589 -17.211  0.00  0.00    -0.344 N 
HETATM   16  H           1     -27.604  -6.239 -18.160  0.00  0.00     0.163 HD
BRANCH  15  17
HETATM   17  C           1     -28.835  -6.769 -16.488  0.00  0.00     0.195 C 
BRANCH  17  18
HETATM   18  C           1     -29.860  -7.397 -17.401  0.00  0.00     0.197 C 
HETATM   19  O           1     -29.519  -8.297 -18.199  0.00  0.00    -0.646 OA
HETATM   20  O           1     -31.050  -7.018 -17.360  0.00  0.00    -0.646 OA
ENDBRANCH  17  18
BRANCH  17  21
HETATM   21  C           1     -29.343  -5.416 -16.009  0.00  0.00     0.149 C 
BRANCH  21  22
HETATM   22  C           1     -28.796  -4.328 -16.900  0.00  0.00     0.175 C 
HETATM   23  O           1     -27.824  -3.638 -16.520  0.00  0.00    -0.648 OA
HETATM   24  O           1     -29.314  -4.116 -18.018  0.00  0.00    -0.648 OA
ENDBRANCH  21  22
ENDBRANCH  17  21
ENDBRANCH  15  17
ENDBRANCH   1  13
TORSDOF 10
ENDMDL
MODEL 2
REMARK VINA RESULT:      -5.9     10.294     12.606
REMARK  10 active torsions:
REMARK  status: ('A' for Active; 'I' for Inactive)
REMARK    1  A    between atoms: N_7  and  C_14 
REMARK    2  A    between atoms: O_10  and  P_11 
REMARK    3  A    between atoms: P_11  and  O_12 
REMARK    4  A    between atoms: O_12  and  C_13 
REMARK    5  A    between atoms: C_13  and  C_14 
REMARK    6  A    between atoms: C_14  and  C_15 
REMARK       I    between atoms: C_15  and  N_16 
REMARK    7  A    between atoms: N_16  and  C_20 
REMARK    8  A    between atoms: C_19  and  C_20 
REMARK    9  A    between atoms: C_20  and  C_21 
REMARK   10  A    between atoms: C_21  and  C_23 
ROOT
HETATM    1  C           1     -21.338  -4.420  -6.976  0.00  0.00     0.298 C 
ENDROOT
BRANCH   1   2
HETATM    2  N           1     -22.801  -4.445  -6.642  0.00  0.00    -0.064 N 
HETATM    3  H           1     -23.034  -3.624  -6.039  0.00  0.00     0.275 HD
HETATM    4  H           1     -23.026  -5.329  -6.133  0.00  0.00     0.275 HD
HETATM    5  H           1     -23.360  -4.398  -7.524  0.00  0.00     0.275 HD
ENDBRANCH   1   2
BRANCH   1   6
HETATM    6  C           1     -20.615  -5.487  -6.165  0.00  0.00     0.224 C 
BRANCH   6   7
HETATM    7  O           1     -20.870  -5.289  -4.800  0.00  0.00    -0.287 OA
BRANCH   7   8
HETATM    8  P           1     -21.595  -6.511  -4.032  0.00  0.00     0.406 P 
HETATM    9  O           1     -20.603  -7.570  -3.742  0.00  0.00    -0.624 OA
HETATM   10  O           1     -22.672  -7.060  -4.885  0.00  0.00    -0.624 OA
BRANCH   8  11
HETATM   11  O           1     -22.229  -5.976  -2.646  0.00  0.00    -0.300 OA
HETATM   12  H           1     -21.496  -5.882  -2.062  0.00  0.00     0.223 HD
ENDBRANCH   8  11
ENDBRANCH   7   8
ENDBRANCH   6   7
ENDBRANCH   1   6
BRANCH   1  13
HETATM   13  C           1     -21.152  -4.692  -8.448  0.00  0.00     0.251 C 
HETATM   14  O           1     -20.151  -5.244  -8.838  0.00  0.00    -0.271 OA
HETATM   15  N           1     -22.119  -4.317  -9.341  0.00  0.00    -0.344 N 
HETATM   16  H           1     -22.958  -3.855  -9.014  0.00  0.00     0.163 HD
BRANCH  15  17
HETATM   17  C           1     -21.941  -4.580 -10.755  0.00  0.00     0.195 C 
BRANCH  17  18
HETATM   18  C           1     -21.170  -3.445 -11.384  0.00  0.00     0.197 C 
HETATM   19  O           1     -19.942  -3.563 -11.593  0.00  0.00    -0.646 OA
HETATM   20  O           1     -21.757  -2.388 -11.697  0.00  0.00    -0.646 OA
ENDBRANCH  17  18
BRANCH  17  21
HETATM   21  C           1     -23.304  -4.701 -11.424  0.00  0.00     0.149 C 
BRANCH  21  22
HETATM   22  C           1     -24.366  -4.149 -10.505  0.00  0.00     0.175 C 
HETATM   23  O           1     -24.698  -2.946 -10.584  0.00  0.00    -0.648 OA
HETATM   24  O           1     -24.915  -4.895  -9.665  0.00  0.00    -0.648 OA
ENDBRANCH  21  22
ENDBRANCH  17  21
ENDBRANCH  15  17
ENDBRANCH   1  13
TORSDOF 10
ENDMDL
MODEL 3
REMARK VINA RESULT:      -5.8     11.760     13.984
REMARK  10 active torsions:
REMARK  status: ('A' for Active; 'I' for Inactive)
REMARK    1  A    between atoms: N_7  and  C_14 
REMARK    2  A    between atoms: O_10  and  P_11 
REMARK    3  A    between atoms: P_11  and  O_12 
REMARK    4  A    between atoms: O_12  and  C_13 
REMARK    5  A    between atoms: C_13  and  C_14 
REMARK    6  A    between atoms: C_14  and  C_15 
REMARK       I    between atoms: C_15  and  N_16 
REMARK    7  A    between atoms: N_16  and  C_20 
REMARK    8  A    between atoms: C_19  and  C_20 
REMARK    9  A    between atoms: C_20  and  C_21 
REMARK   10  A    between atoms: C_21  and  C_23 
ROOT
HETATM    1  C           1     -21.340  -5.131  -6.614  0.00  0.00     0.298 C 
ENDROOT
BRANCH   1   2
HETATM    2  N           1     -20.530  -6.003  -7.527  0.00  0.00    -0.064 N 
HETATM    3  H           1     -21.168  -6.642  -8.055  0.00  0.00     0.275 HD
HETATM    4  H           1     -19.858  -6.569  -6.961  0.00  0.00     0.275 HD
HETATM    5  H           1     -20.001  -5.406  -8.200  0.00  0.00     0.275 HD
ENDBRANCH   1   2
BRANCH   1   6
HETATM    6  C           1     -22.436  -4.440  -7.414  0.00  0.00     0.224 C 
BRANCH   6   7
HETATM    7  O           1     -22.194  -4.612  -8.784  0.00  0.00    -0.287 OA
BRANCH   7   8
HETATM    8  P           1     -23.366  -4.116  -9.778  0.00  0.00     0.406 P 
HETATM    9  O           1     -23.958  -5.285 -10.466  0.00  0.00    -0.624 OA
HETATM   10  O           1     -22.802  -3.185 -10.780  0.00  0.00    -0.624 OA
BRANCH   8  11
HETATM   11  O           1     -24.511  -3.359  -8.926  0.00  0.00    -0.300 OA
HETATM   12  H           1     -24.072  -3.044  -8.155  0.00  0.00     0.223 HD
ENDBRANCH   8  11
ENDBRANCH   7   8
ENDBRANCH   6   7
ENDBRANCH   1   6
BRANCH   1  13
HETATM   13  C           1     -21.963  -5.978  -5.532  0.00  0.00     0.251 C 
HETATM   14  O           1     -23.158  -5.950  -5.356  0.00  0.00    -0.271 OA
HETATM   15  N           1     -21.176  -6.780  -4.751  0.00  0.00    -0.344 N 
HETATM   16  H           1     -20.175  -6.803  -4.897  0.00  0.00     0.163 HD
BRANCH  15  17
HETATM   17  C           1     -21.775  -7.594  -3.712  0.00  0.00     0.195 C 
BRANCH  17  18
HETATM   18  C           1     -21.589  -6.919  -2.375  0.00  0.00     0.197 C 
HETATM   19  O           1     -22.249  -5.895  -2.094  0.00  0.00    -0.646 OA
HETATM   20  O           1     -20.776  -7.384  -1.547  0.00  0.00    -0.646 OA
ENDBRANCH  17  18
BRANCH  17  21
HETATM   21  C           1     -21.104  -8.961  -3.688  0.00  0.00     0.149 C 
BRANCH  21  22
HETATM   22  C           1     -20.341  -9.169  -4.974  0.00  0.00     0.175 C 
HETATM   23  O           1     -19.120  -8.904  -5.026  0.00  0.00    -0.648 OA
HETATM   24  O           1     -20.929  -9.607  -5.986  0.00  0.00    -0.648 OA
ENDBRANCH  21  22
ENDBRANCH  17  21
ENDBRANCH  15  17
ENDBRANCH   1  13
TORSDOF 10
ENDMDL
MODEL 4
REMARK VINA RESULT:      -5.8      2.501      5.780
REMARK  10 active torsions:
REMARK  status: ('A' for Active; 'I' for Inactive)
REMARK    1  A    between atoms: N_7  and  C_14 
REMARK    2  A    between atoms: O_10  and  P_11 
REMARK    3  A    between atoms: P_11  and  O_12 
REMARK    4  A    between atoms: O_12  and  C_13 
REMARK    5  A    between atoms: C_13  and  C_14 
REMARK    6  A    between atoms: C_14  and  C_15 
REMARK       I    between atoms: C_15  and  N_16 
REMARK    7  A    between atoms: N_16  and  C_20 
REMARK    8  A    between atoms: C_19  and  C_20 
REMARK    9  A    between atoms: C_20  and  C_21 
REMARK   10  A    between atoms: C_21  and  C_23 
ROOT
HETATM    1  C           1     -29.102  -6.583 -18.572  0.00  0.00     0.298 C 
ENDROOT
BRANCH   1   2
HETATM    2  N           1     -29.123  -7.915 -17.882  0.00  0.00    -0.064 N 
HETATM    3  H           1     -29.077  -7.772 -16.848  0.00  0.00     0.275 HD
HETATM    4  H           1     -28.302  -8.481 -18.194  0.00  0.00     0.275 HD
HETATM    5  H           1     -30.006  -8.419 -18.124  0.00  0.00     0.275 HD
ENDBRANCH   1   2
BRANCH   1   6
HETATM    6  C           1     -29.473  -5.492 -17.578  0.00  0.00     0.224 C 
BRANCH   6   7
HETATM    7  O           1     -29.858  -6.076 -16.363  0.00  0.00    -0.287 OA
BRANCH   7   8
HETATM    8  P           1     -28.832  -5.888 -15.130  0.00  0.00     0.406 P 
HETATM    9  O           1     -29.596  -5.748 -13.870  0.00  0.00    -0.624 OA
HETATM   10  O           1     -28.014  -4.676 -15.351  0.00  0.00    -0.624 OA
BRANCH   8  11
HETATM   11  O           1     -27.865  -7.178 -15.031  0.00  0.00    -0.300 OA
HETATM   12  H           1     -27.438  -7.227 -15.869  0.00  0.00     0.223 HD
ENDBRANCH   8  11
ENDBRANCH   7   8
ENDBRANCH   6   7
ENDBRANCH   1   6
BRANCH   1  13
HETATM   13  C           1     -27.720  -6.321 -19.118  0.00  0.00     0.251 C 
HETATM   14  O           1     -27.561  -5.504 -19.993  0.00  0.00    -0.271 OA
HETATM   15  N           1     -26.646  -7.008 -18.620  0.00  0.00    -0.344 N 
HETATM   16  H           1     -26.779  -7.694 -17.888  0.00  0.00     0.163 HD
BRANCH  15  17
HETATM   17  C           1     -25.318  -6.756 -19.144  0.00  0.00     0.195 C 
BRANCH  17  18
HETATM   18  C           1     -25.066  -7.656 -20.329  0.00  0.00     0.197 C 
HETATM   19  O           1     -26.027  -8.092 -20.999  0.00  0.00    -0.646 OA
HETATM   20  O           1     -23.896  -7.965 -20.642  0.00  0.00    -0.646 OA
ENDBRANCH  17  18
BRANCH  17  21
HETATM   21  C           1     -24.284  -7.038 -18.062  0.00  0.00     0.149 C 
BRANCH  21  22
HETATM   22  C           1     -24.930  -6.916 -16.704  0.00  0.00     0.175 C 
HETATM   23  O           1     -25.320  -5.800 -16.295  0.00  0.00    -0.648 OA
HETATM   24  O           1     -25.076  -7.929 -15.987  0.00  0.00    -0.648 OA
ENDBRANCH  21  22
ENDBRANCH  17  21
ENDBRANCH  15  17
ENDBRANCH   1  13
TORSDOF 10
ENDMDL
MODEL 5
REMARK VINA RESULT:      -5.7      2.761      6.014
REMARK  10 active torsions:
REMARK  status: ('A' for Active; 'I' for Inactive)
REMARK    1  A    between atoms: N_7  and  C_14 
REMARK    2  A    between atoms: O_10  and  P_11 
REMARK    3  A    between atoms: P_11  and  O_12 
REMARK    4  A    between atoms: O_12  and  C_13 
REMARK    5  A    between atoms: C_13  and  C_14 
REMARK    6  A    between atoms: C_14  and  C_15 
REMARK       I    between atoms: C_15  and  N_16 
REMARK    7  A    between atoms: N_16  and  C_20 
REMARK    8  A    between atoms: C_19  and  C_20 
REMARK    9  A    between atoms: C_20  and  C_21 
REMARK   10  A    between atoms: C_21  and  C_23 
ROOT
HETATM    1  C           1     -28.276  -6.320 -16.866  0.00  0.00     0.298 C 
ENDROOT
BRANCH   1   2
HETATM    2  N           1     -27.014  -6.703 -16.152  0.00  0.00    -0.064 N 
HETATM    3  H           1     -26.790  -5.980 -15.430  0.00  0.00     0.275 HD
HETATM    4  H           1     -26.230  -6.765 -16.840  0.00  0.00     0.275 HD
HETATM    5  H           1     -27.144  -7.630 -15.687  0.00  0.00     0.275 HD
ENDBRANCH   1   2
BRANCH   1   6
HETATM    6  C           1     -28.799  -5.006 -16.303  0.00  0.00     0.224 C 
BRANCH   6   7
HETATM    7  O           1     -30.051  -5.216 -15.709  0.00  0.00    -0.287 OA
BRANCH   7   8
HETATM    8  P           1     -31.336  -4.899 -16.636  0.00  0.00     0.406 P 
HETATM    9  O           1     -31.711  -6.113 -17.394  0.00  0.00    -0.624 OA
HETATM   10  O           1     -31.005  -3.808 -17.579  0.00  0.00    -0.624 OA
BRANCH   8  11
HETATM   11  O           1     -32.574  -4.445 -15.703  0.00  0.00    -0.300 OA
HETATM   12  H           1     -32.969  -5.249 -15.413  0.00  0.00     0.223 HD
ENDBRANCH   8  11
ENDBRANCH   7   8
ENDBRANCH   6   7
ENDBRANCH   1   6
BRANCH   1  13
HETATM   13  C           1     -27.992  -6.160 -18.339  0.00  0.00     0.251 C 
HETATM   14  O           1     -28.521  -5.271 -18.963  0.00  0.00    -0.271 OA
HETATM   15  N           1     -27.133  -7.021 -18.968  0.00  0.00    -0.344 N 
HETATM   16  H           1     -26.690  -7.766 -18.445  0.00  0.00     0.163 HD
BRANCH  15  17
HETATM   17  C           1     -26.859  -6.866 -20.383  0.00  0.00     0.195 C 
BRANCH  17  18
HETATM   18  C           1     -27.003  -8.202 -21.071  0.00  0.00     0.197 C 
HETATM   19  O           1     -26.063  -8.654 -21.763  0.00  0.00    -0.646 OA
HETATM   20  O           1     -28.060  -8.858 -20.951  0.00  0.00    -0.646 OA
ENDBRANCH  17  18
BRANCH  17  21
HETATM   21  C           1     -25.440  -6.348 -20.572  0.00  0.00     0.149 C 
BRANCH  21  22
HETATM   22  C           1     -24.548  -6.918 -19.496  0.00  0.00     0.175 C 
HETATM   23  O           1     -23.746  -7.837 -19.771  0.00  0.00    -0.648 OA
HETATM   24  O           1     -24.612  -6.473 -18.330  0.00  0.00    -0.648 OA
ENDBRANCH  21  22
ENDBRANCH  17  21
ENDBRANCH  15  17
ENDBRANCH   1  13
TORSDOF 10
ENDMDL
MODEL 6
REMARK VINA RESULT:      -5.6     11.402     13.506
REMARK  10 active torsions:
REMARK  status: ('A' for Active; 'I' for Inactive)
REMARK    1  A    between atoms: N_7  and  C_14 
REMARK    2  A    between atoms: O_10  and  P_11 
REMARK    3  A    between atoms: P_11  and  O_12 
REMARK    4  A    between atoms: O_12  and  C_13 
REMARK    5  A    between atoms: C_13  and  C_14 
REMARK    6  A    between atoms: C_14  and  C_15 
REMARK       I    between atoms: C_15  and  N_16 
REMARK    7  A    between atoms: N_16  and  C_20 
REMARK    8  A    between atoms: C_19  and  C_20 
REMARK    9  A    between atoms: C_20  and  C_21 
REMARK   10  A    between atoms: C_21  and  C_23 
ROOT
HETATM    1  C           1     -21.017  -4.015  -7.745  0.00  0.00     0.298 C 
ENDROOT
BRANCH   1   2
HETATM    2  N           1     -19.984  -4.182  -8.820  0.00  0.00    -0.064 N 
HETATM    3  H           1     -19.852  -3.273  -9.319  0.00  0.00     0.275 HD
HETATM    4  H           1     -20.302  -4.910  -9.498  0.00  0.00     0.275 HD
HETATM    5  H           1     -19.079  -4.478  -8.391  0.00  0.00     0.275 HD
ENDBRANCH   1   2
BRANCH   1   6
HETATM    6  C           1     -22.359  -4.528  -8.248  0.00  0.00     0.224 C 
BRANCH   6   7
HETATM    7  O           1     -22.997  -3.521  -8.988  0.00  0.00    -0.287 OA
BRANCH   7   8
HETATM    8  P           1     -24.022  -4.024 -10.131  0.00  0.00     0.406 P 
HETATM    9  O           1     -23.294  -4.853 -11.117  0.00  0.00    -0.624 OA
HETATM   10  O           1     -24.615  -2.851 -10.811  0.00  0.00    -0.624 OA
BRANCH   8  11
HETATM   11  O           1     -25.196  -4.902  -9.453  0.00  0.00    -0.300 OA
HETATM   12  H           1     -25.835  -4.274  -9.164  0.00  0.00     0.223 HD
ENDBRANCH   8  11
ENDBRANCH   7   8
ENDBRANCH   6   7
ENDBRANCH   1   6
BRANCH   1  13
HETATM   13  C           1     -20.603  -4.798  -6.524  0.00  0.00     0.251 C 
HETATM   14  O           1     -19.582  -4.516  -5.944  0.00  0.00    -0.271 OA
HETATM   15  N           1     -21.386  -5.826  -6.072  0.00  0.00    -0.344 N 
HETATM   16  H           1     -22.241  -6.061  -6.558  0.00  0.00     0.163 HD
BRANCH  15  17
HETATM   17  C           1     -20.988  -6.577  -4.897  0.00  0.00     0.195 C 
BRANCH  17  18
HETATM   18  C           1     -20.461  -7.927  -5.320  0.00  0.00     0.197 C 
HETATM   19  O           1     -19.313  -8.286  -4.976  0.00  0.00    -0.646 OA
HETATM   20  O           1     -21.172  -8.687  -6.012  0.00  0.00    -0.646 OA
ENDBRANCH  17  18
BRANCH  17  21
HETATM   21  C           1     -22.192  -6.765  -3.984  0.00  0.00     0.149 C 
BRANCH  21  22
HETATM   22  C           1     -21.761  -6.612  -2.545  0.00  0.00     0.175 C 
HETATM   23  O           1     -21.107  -7.521  -1.989  0.00  0.00    -0.648 OA
HETATM   24  O           1     -22.058  -5.577  -1.910  0.00  0.00    -0.648 OA
ENDBRANCH  21  22
ENDBRANCH  17  21
ENDBRANCH  15  17
ENDBRANCH   1  13
TORSDOF 10
ENDMDL
MODEL 7
REMARK VINA RESULT:      -5.6      2.463      5.069
REMARK  10 active torsions:
REMARK  status: ('A' for Active; 'I' for Inactive)
REMARK    1  A    between atoms: N_7  and  C_14 
REMARK    2  A    between atoms: O_10  and  P_11 
REMARK    3  A    between atoms: P_11  and  O_12 
REMARK    4  A    between atoms: O_12  and  C_13 
REMARK    5  A    between atoms: C_13  and  C_14 
REMARK    6  A    between atoms: C_14  and  C_15 
REMARK       I    between atoms: C_15  and  N_16 
REMARK    7  A    between atoms: N_16  and  C_20 
REMARK    8  A    between atoms: C_19  and  C_20 
REMARK    9  A    between atoms: C_20  and  C_21 
REMARK   10  A    between atoms: C_21  and  C_23 
ROOT
HETATM    1  C           1     -28.800  -5.596 -17.119  0.00  0.00     0.298 C 
ENDROOT
BRANCH   1   2
HETATM    2  N           1     -29.329  -6.884 -16.561  0.00  0.00    -0.064 N 
HETATM    3  H           1     -29.730  -7.460 -17.335  0.00  0.00     0.275 HD
HETATM    4  H           1     -30.073  -6.678 -15.857  0.00  0.00     0.275 HD
HETATM    5  H           1     -28.552  -7.410 -16.102  0.00  0.00     0.275 HD
ENDBRANCH   1   2
BRANCH   1   6
HETATM    6  C           1     -27.651  -5.101 -16.253  0.00  0.00     0.224 C 
BRANCH   6   7
HETATM    7  O           1     -26.434  -5.541 -16.794  0.00  0.00    -0.287 OA
BRANCH   7   8
HETATM    8  P           1     -25.622  -6.628 -15.918  0.00  0.00     0.406 P 
HETATM    9  O           1     -24.664  -7.346 -16.788  0.00  0.00    -0.624 OA
HETATM   10  O           1     -26.574  -7.594 -15.327  0.00  0.00    -0.624 OA
BRANCH   8  11
HETATM   11  O           1     -24.816  -5.876 -14.737  0.00  0.00    -0.300 OA
HETATM   12  H           1     -25.329  -6.023 -13.961  0.00  0.00     0.223 HD
ENDBRANCH   8  11
ENDBRANCH   7   8
ENDBRANCH   6   7
ENDBRANCH   1   6
BRANCH   1  13
HETATM   13  C           1     -28.309  -5.822 -18.528  0.00  0.00     0.251 C 
HETATM   14  O           1     -28.484  -4.976 -19.371  0.00  0.00    -0.271 OA
HETATM   15  N           1     -27.664  -6.986 -18.849  0.00  0.00    -0.344 N 
HETATM   16  H           1     -27.518  -7.695 -18.143  0.00  0.00     0.163 HD
BRANCH  15  17
HETATM   17  C           1     -27.192  -7.203 -20.203  0.00  0.00     0.195 C 
BRANCH  17  18
HETATM   18  C           1     -27.823  -8.455 -20.761  0.00  0.00     0.197 C 
HETATM   19  O           1     -27.296  -9.042 -21.731  0.00  0.00    -0.646 OA
HETATM   20  O           1     -28.872  -8.906 -20.253  0.00  0.00    -0.646 OA
ENDBRANCH  17  18
BRANCH  17  21
HETATM   21  C           1     -25.677  -7.358 -20.192  0.00  0.00     0.149 C 
BRANCH  21  22
HETATM   22  C           1     -25.091  -6.671 -21.401  0.00  0.00     0.175 C 
HETATM   23  O           1     -24.354  -7.306 -22.186  0.00  0.00    -0.648 OA
HETATM   24  O           1     -25.343  -5.466 -21.618  0.00  0.00    -0.648 OA
ENDBRANCH  21  22
ENDBRANCH  17  21
ENDBRANCH  15  17
ENDBRANCH   1  13
TORSDOF 10
ENDMDL
MODEL 8
REMARK VINA RESULT:      -5.5      2.644      5.959
REMARK  10 active torsions:
REMARK  status: ('A' for Active; 'I' for Inactive)
REMARK    1  A    between atoms: N_7  and  C_14 
REMARK    2  A    between atoms: O_10  and  P_11 
REMARK    3  A    between atoms: P_11  and  O_12 
REMARK    4  A    between atoms: O_12  and  C_13 
REMARK    5  A    between atoms: C_13  and  C_14 
REMARK    6  A    between atoms: C_14  and  C_15 
REMARK       I    between atoms: C_15  and  N_16 
REMARK    7  A    between atoms: N_16  and  C_20 
REMARK    8  A    between atoms: C_19  and  C_20 
REMARK    9  A    between atoms: C_20  and  C_21 
REMARK   10  A    between atoms: C_21  and  C_23 
ROOT
HETATM    1  C           1     -29.744  -7.194 -18.672  0.00  0.00     0.298 C 
ENDROOT
BRANCH   1   2
HETATM    2  N           1     -29.483  -8.629 -19.025  0.00  0.00    -0.064 N 
HETATM    3  H           1     -28.788  -8.674 -19.805  0.00  0.00     0.275 HD
HETATM    4  H           1     -30.376  -9.081 -19.325  0.00  0.00     0.275 HD
HETATM    5  H           1     -29.103  -9.130 -18.191  0.00  0.00     0.275 HD
ENDBRANCH   1   2
BRANCH   1   6
HETATM    6  C           1     -30.356  -7.119 -17.280  0.00  0.00     0.224 C 
BRANCH   6   7
HETATM    7  O           1     -31.482  -6.284 -17.309  0.00  0.00    -0.287 OA
BRANCH   7   8
HETATM    8  P           1     -31.296  -4.820 -16.654  0.00  0.00     0.406 P 
HETATM    9  O           1     -31.151  -3.813 -17.728  0.00  0.00    -0.624 OA
HETATM   10  O           1     -30.086  -4.812 -15.801  0.00  0.00    -0.624 OA
BRANCH   8  11
HETATM   11  O           1     -32.589  -4.463 -15.754  0.00  0.00    -0.300 OA
HETATM   12  H           1     -32.267  -4.421 -14.870  0.00  0.00     0.223 HD
ENDBRANCH   8  11
ENDBRANCH   7   8
ENDBRANCH   6   7
ENDBRANCH   1   6
BRANCH   1  13
HETATM   13  C           1     -28.445  -6.427 -18.695  0.00  0.00     0.251 C 
HETATM   14  O           1     -28.450  -5.239 -18.913  0.00  0.00    -0.271 OA
HETATM   15  N           1     -27.262  -7.075 -18.466  0.00  0.00    -0.344 N 
HETATM   16  H           1     -27.258  -8.071 -18.283  0.00  0.00     0.163 HD
BRANCH  15  17
HETATM   17  C           1     -26.014  -6.337 -18.488  0.00  0.00     0.195 C 
BRANCH  17  18
HETATM   18  C           1     -25.193  -6.774 -19.676  0.00  0.00     0.197 C 
HETATM   19  O           1     -24.182  -7.491 -19.508  0.00  0.00    -0.646 OA
HETATM   20  O           1     -25.522  -6.420 -20.828  0.00  0.00    -0.646 OA
ENDBRANCH  17  18
BRANCH  17  21
HETATM   21  C           1     -25.240  -6.612 -17.206  0.00  0.00     0.149 C 
BRANCH  21  22
HETATM   22  C           1     -26.173  -6.513 -16.023  0.00  0.00     0.175 C 
HETATM   23  O           1     -26.332  -7.496 -15.268  0.00  0.00    -0.648 OA
HETATM   24  O           1     -26.786  -5.447 -15.799  0.00  0.00    -0.648 OA
ENDBRANCH  21  22
ENDBRANCH  17  21
ENDBRANCH  15  17
ENDBRANCH   1  13
TORSDOF 10
ENDMDL
MODEL 9
REMARK VINA RESULT:      -5.5     13.576     15.550
REMARK  10 active torsions:
REMARK  status: ('A' for Active; 'I' for Inactive)
REMARK    1  A    between atoms: N_7  and  C_14 
REMARK    2  A    between atoms: O_10  and  P_11 
REMARK    3  A    between atoms: P_11  and  O_12 
REMARK    4  A    between atoms: O_12  and  C_13 
REMARK    5  A    between atoms: C_13  and  C_14 
REMARK    6  A    between atoms: C_14  and  C_15 
REMARK       I    between atoms: C_15  and  N_16 
REMARK    7  A    between atoms: N_16  and  C_20 
REMARK    8  A    between atoms: C_19  and  C_20 
REMARK    9  A    between atoms: C_20  and  C_21 
REMARK   10  A    between atoms: C_21  and  C_23 
ROOT
HETATM    1  C           1     -21.671  -7.139  -5.387  0.00  0.00     0.298 C 
ENDROOT
BRANCH   1   2
HETATM    2  N           1     -22.758  -6.259  -4.844  0.00  0.00    -0.064 N 
HETATM    3  H           1     -22.690  -6.225  -3.802  0.00  0.00     0.275 HD
HETATM    4  H           1     -23.689  -6.646  -5.122  0.00  0.00     0.275 HD
HETATM    5  H           1     -22.652  -5.295  -5.231  0.00  0.00     0.275 HD
ENDBRANCH   1   2
BRANCH   1   6
HETATM    6  C           1     -20.667  -6.289  -6.154  0.00  0.00     0.224 C 
BRANCH   6   7
HETATM    7  O           1     -21.082  -6.164  -7.488  0.00  0.00    -0.287 OA
BRANCH   7   8
HETATM    8  P           1     -21.506  -4.679  -7.962  0.00  0.00     0.406 P 
HETATM    9  O           1     -21.724  -4.672  -9.426  0.00  0.00    -0.624 OA
HETATM   10  O           1     -20.428  -3.726  -7.617  0.00  0.00    -0.624 OA
BRANCH   8  11
HETATM   11  O           1     -22.869  -4.243  -7.213  0.00  0.00    -0.300 OA
HETATM   12  H           1     -22.721  -4.439  -6.304  0.00  0.00     0.223 HD
ENDBRANCH   8  11
ENDBRANCH   7   8
ENDBRANCH   6   7
ENDBRANCH   1   6
BRANCH   1  13
HETATM   13  C           1     -20.973  -7.838  -4.247  0.00  0.00     0.251 C 
HETATM   14  O           1     -19.796  -8.098  -4.328  0.00  0.00    -0.271 OA
HETATM   15  N           1     -21.672  -8.176  -3.121  0.00  0.00    -0.344 N 
HETATM   16  H           1     -22.658  -7.959  -3.053  0.00  0.00     0.163 HD
BRANCH  15  17
HETATM   17  C           1     -21.001  -8.847  -2.025  0.00  0.00     0.195 C 
BRANCH  17  18
HETATM   18  C           1     -21.701 -10.152  -1.731  0.00  0.00     0.197 C 
HETATM   19  O           1     -22.576 -10.583  -2.514  0.00  0.00    -0.646 OA
HETATM   20  O           1     -21.406 -10.803  -0.706  0.00  0.00    -0.646 OA
ENDBRANCH  17  18
BRANCH  17  21
HETATM   21  C           1     -21.039  -7.960  -0.787  0.00  0.00     0.149 C 
BRANCH  21  22
HETATM   22  C           1     -22.304  -7.136  -0.797  0.00  0.00     0.175 C 
HETATM   23  O           1     -23.299  -7.509  -0.139  0.00  0.00    -0.648 OA
HETATM   24  O           1     -22.356  -6.080  -1.465  0.00  0.00    -0.648 OA
ENDBRANCH  21  22
ENDBRANCH  17  21
ENDBRANCH  15  17
ENDBRANCH   1  13
TORSDOF 10
ENDMDL
