MODEL 1
REMARK VINA RESULT:      -8.0      0.000      0.000
REMARK  8 active torsions:
REMARK  status: ('A' for Active; 'I' for Inactive)
REMARK    1  A    between atoms: C_2  and  C_3 
REMARK    2  A    between atoms: C_2  and  C_22 
REMARK    3  A    between atoms: C_2  and  N_23 
REMARK    4  A    between atoms: C_3  and  O_26 
REMARK    5  A    between atoms: C_4  and  C_5 
REMARK    6  A    between atoms: C_5  and  C_18 
REMARK    7  A    between atoms: N_11  and  C_18 
REMARK    8  A    between atoms: C_18  and  C_21 
REMARK       I    between atoms: C_21  and  N_23 
ROOT
HETATM    1  C           1     -21.151  -5.884  -6.994  0.00  0.00     0.278 C 
ENDROOT
BRANCH   1   2
HETATM    2  C           1     -21.390  -5.611  -5.515  0.00  0.00     0.083 C 
BRANCH   2   3
HETATM    3  C           1     -21.390  -6.903  -4.761  0.00  0.00    -0.028 A 
HETATM    4  C           1     -21.125  -8.149  -5.285  0.00  0.00     0.096 A 
HETATM    5  N           1     -21.227  -9.061  -4.268  0.00  0.00    -0.365 N 
HETATM    6  C           1     -21.553  -8.427  -3.090  0.00  0.00     0.042 A 
HETATM    7  H           1     -21.077 -10.095  -4.372  0.00  0.00     0.165 HD
HETATM    8  C           1     -21.759  -8.951  -1.808  0.00  0.00     0.030 A 
HETATM    9  C           1     -21.662  -7.065  -3.373  0.00  0.00    -0.002 A 
HETATM   10  C           1     -22.085  -8.052  -0.788  0.00  0.00     0.002 A 
HETATM   11  C           1     -22.200  -6.687  -1.042  0.00  0.00     0.001 A 
HETATM   12  C           1     -21.991  -6.180  -2.330  0.00  0.00     0.014 A 
ENDBRANCH   2   3
ENDBRANCH   1   2
BRANCH   1  13
HETATM   13  N           1     -19.681  -6.063  -7.237  0.00  0.00    -0.066 N 
HETATM   14  H           1     -19.142  -5.463  -6.573  0.00  0.00     0.275 HD
HETATM   15  H           1     -19.423  -7.065  -7.089  0.00  0.00     0.275 HD
HETATM   16  H           1     -19.455  -5.786  -8.219  0.00  0.00     0.275 HD
ENDBRANCH   1  13
BRANCH   1  17
HETATM   17  C           1     -21.657  -4.721  -7.809  0.00  0.00     0.249 C 
HETATM   18  O           1     -21.869  -3.657  -7.278  0.00  0.00    -0.271 OA
HETATM   19  N           1     -21.876  -4.871  -9.153  0.00  0.00    -0.343 N 
HETATM   20  H           1     -21.698  -5.761  -9.598  0.00  0.00     0.163 HD
BRANCH  19  21
HETATM   21  C           1     -22.362  -3.752  -9.937  0.00  0.00     0.209 C 
BRANCH  21  22
HETATM   22  C           1     -21.544  -3.632 -11.215  0.00  0.00     0.200 C 
BRANCH  22  23
HETATM   23  O           1     -22.231  -4.248 -12.271  0.00  0.00    -0.398 OA
HETATM   24  H           1     -22.344  -5.153 -12.032  0.00  0.00     0.209 HD
ENDBRANCH  22  23
ENDBRANCH  21  22
BRANCH  21  25
HETATM   25  C           1     -23.813  -3.978 -10.289  0.00  0.00     0.198 C 
HETATM   26  O           1     -24.296  -5.129 -10.237  0.00  0.00    -0.646 OA
HETATM   27  O           1     -24.529  -3.013 -10.634  0.00  0.00    -0.646 OA
ENDBRANCH  21  25
ENDBRANCH  19  21
ENDBRANCH   1  17
TORSDOF 8
ENDMDL
MODEL 2
REMARK VINA RESULT:      -7.2      3.615      7.647
REMARK  8 active torsions:
REMARK  status: ('A' for Active; 'I' for Inactive)
REMARK    1  A    between atoms: C_2  and  C_3 
REMARK    2  A    between atoms: C_2  and  C_22 
REMARK    3  A    between atoms: C_2  and  N_23 
REMARK    4  A    between atoms: C_3  and  O_26 
REMARK    5  A    between atoms: C_4  and  C_5 
REMARK    6  A    between atoms: C_5  and  C_18 
REMARK    7  A    between atoms: N_11  and  C_18 
REMARK    8  A    between atoms: C_18  and  C_21 
REMARK       I    between atoms: C_21  and  N_23 
ROOT
HETATM    1  C           1     -21.339  -6.173  -5.437  0.00  0.00     0.278 C 
ENDROOT
BRANCH   1   2
HETATM    2  C           1     -20.902  -4.889  -6.129  0.00  0.00     0.083 C 
BRANCH   2   3
HETATM    3  C           1     -21.843  -4.581  -7.251  0.00  0.00    -0.028 A 
HETATM    4  C           1     -23.202  -4.384  -7.140  0.00  0.00     0.096 A 
HETATM    5  N           1     -23.691  -4.128  -8.393  0.00  0.00    -0.365 N 
HETATM    6  C           1     -22.671  -4.153  -9.318  0.00  0.00     0.042 A 
HETATM    7  H           1     -24.700  -3.937  -8.616  0.00  0.00     0.165 HD
HETATM    8  C           1     -22.700  -3.949 -10.703  0.00  0.00     0.030 A 
HETATM    9  C           1     -21.495  -4.437  -8.623  0.00  0.00    -0.002 A 
HETATM   10  C           1     -21.488  -4.039 -11.394  0.00  0.00     0.002 A 
HETATM   11  C           1     -20.299  -4.321 -10.726  0.00  0.00     0.001 A 
HETATM   12  C           1     -20.288  -4.522  -9.341  0.00  0.00     0.014 A 
ENDBRANCH   2   3
ENDBRANCH   1   2
BRANCH   1  13
HETATM   13  N           1     -21.550  -5.905  -3.976  0.00  0.00    -0.066 N 
HETATM   14  H           1     -21.206  -4.947  -3.743  0.00  0.00     0.275 HD
HETATM   15  H           1     -22.569  -5.973  -3.754  0.00  0.00     0.275 HD
HETATM   16  H           1     -21.024  -6.611  -3.413  0.00  0.00     0.275 HD
ENDBRANCH   1  13
BRANCH   1  17
HETATM   17  C           1     -20.270  -7.224  -5.605  0.00  0.00     0.249 C 
HETATM   18  O           1     -19.571  -7.224  -6.590  0.00  0.00    -0.271 OA
HETATM   19  N           1     -20.092  -8.180  -4.640  0.00  0.00    -0.343 N 
HETATM   20  H           1     -20.676  -8.180  -3.815  0.00  0.00     0.163 HD
BRANCH  19  21
HETATM   21  C           1     -19.064  -9.190  -4.802  0.00  0.00     0.209 C 
BRANCH  21  22
HETATM   22  C           1     -18.280  -9.331  -3.504  0.00  0.00     0.200 C 
BRANCH  22  23
HETATM   23  O           1     -19.145  -9.164  -2.414  0.00  0.00    -0.398 OA
HETATM   24  H           1     -19.498 -10.014  -2.212  0.00  0.00     0.209 HD
ENDBRANCH  22  23
ENDBRANCH  21  22
BRANCH  21  25
HETATM   25  C           1     -19.708 -10.511  -5.146  0.00  0.00     0.198 C 
HETATM   26  O           1     -19.804 -11.404  -4.278  0.00  0.00    -0.646 OA
HETATM   27  O           1     -20.145 -10.711  -6.300  0.00  0.00    -0.646 OA
ENDBRANCH  21  25
ENDBRANCH  19  21
ENDBRANCH   1  17
TORSDOF 8
ENDMDL
MODEL 3
REMARK VINA RESULT:      -6.9      4.050      7.449
REMARK  8 active torsions:
REMARK  status: ('A' for Active; 'I' for Inactive)
REMARK    1  A    between atoms: C_2  and  C_3 
REMARK    2  A    between atoms: C_2  and  C_22 
REMARK    3  A    between atoms: C_2  and  N_23 
REMARK    4  A    between atoms: C_3  and  O_26 
REMARK    5  A    between atoms: C_4  and  C_5 
REMARK    6  A    between atoms: C_5  and  C_18 
REMARK    7  A    between atoms: N_11  and  C_18 
REMARK    8  A    between atoms: C_18  and  C_21 
REMARK       I    between atoms: C_21  and  N_23 
ROOT
HETATM    1  C           1     -21.838  -6.742  -5.010  0.00  0.00     0.278 C 
ENDROOT
BRANCH   1   2
HETATM    2  C           1     -20.947  -6.094  -6.061  0.00  0.00     0.083 C 
BRANCH   2   3
HETATM    3  C           1     -21.786  -5.286  -7.000  0.00  0.00    -0.028 A 
HETATM    4  C           1     -23.063  -4.830  -6.759  0.00  0.00     0.096 A 
HETATM    5  N           1     -23.475  -4.134  -7.865  0.00  0.00    -0.365 N 
HETATM    6  C           1     -22.484  -4.130  -8.821  0.00  0.00     0.042 A 
HETATM    7  H           1     -24.411  -3.670  -7.967  0.00  0.00     0.165 HD
HETATM    8  C           1     -22.459  -3.550 -10.096  0.00  0.00     0.030 A 
HETATM    9  C           1     -21.408  -4.850  -8.300  0.00  0.00    -0.002 A 
HETATM   10  C           1     -21.298  -3.713 -10.857  0.00  0.00     0.002 A 
HETATM   11  C           1     -20.209  -4.426 -10.362  0.00  0.00     0.001 A 
HETATM   12  C           1     -20.250  -5.000  -9.086  0.00  0.00     0.014 A 
ENDBRANCH   2   3
ENDBRANCH   1   2
BRANCH   1  13
HETATM   13  N           1     -21.859  -5.887  -3.777  0.00  0.00    -0.066 N 
HETATM   14  H           1     -20.961  -5.359  -3.703  0.00  0.00     0.275 HD
HETATM   15  H           1     -22.656  -5.214  -3.835  0.00  0.00     0.275 HD
HETATM   16  H           1     -21.976  -6.495  -2.935  0.00  0.00     0.275 HD
ENDBRANCH   1  13
BRANCH   1  17
HETATM   17  C           1     -21.298  -8.108  -4.665  0.00  0.00     0.249 C 
HETATM   18  O           1     -21.600  -8.631  -3.619  0.00  0.00    -0.271 OA
HETATM   19  N           1     -20.464  -8.755  -5.538  0.00  0.00    -0.343 N 
HETATM   20  H           1     -20.212  -8.318  -6.415  0.00  0.00     0.163 HD
BRANCH  19  21
HETATM   21  C           1     -19.946 -10.067  -5.206  0.00  0.00     0.209 C 
BRANCH  21  22
HETATM   22  C           1     -20.752 -11.134  -5.936  0.00  0.00     0.200 C 
BRANCH  22  23
HETATM   23  O           1     -20.019 -11.604  -7.035  0.00  0.00    -0.398 OA
HETATM   24  H           1     -20.442 -11.270  -7.809  0.00  0.00     0.209 HD
ENDBRANCH  22  23
ENDBRANCH  21  22
BRANCH  21  25
HETATM   25  C           1     -18.499 -10.157  -5.627  0.00  0.00     0.198 C 
HETATM   26  O           1     -18.035  -9.339  -6.450  0.00  0.00    -0.646 OA
HETATM   27  O           1     -17.764 -11.051  -5.152  0.00  0.00    -0.646 OA
ENDBRANCH  21  25
ENDBRANCH  19  21
ENDBRANCH   1  17
TORSDOF 8
ENDMDL
MODEL 4
REMARK VINA RESULT:      -6.8      3.349      7.766
REMARK  8 active torsions:
REMARK  status: ('A' for Active; 'I' for Inactive)
REMARK    1  A    between atoms: C_2  and  C_3 
REMARK    2  A    between atoms: C_2  and  C_22 
REMARK    3  A    between atoms: C_2  and  N_23 
REMARK    4  A    between atoms: C_3  and  O_26 
REMARK    5  A    between atoms: C_4  and  C_5 
REMARK    6  A    between atoms: C_5  and  C_18 
REMARK    7  A    between atoms: N_11  and  C_18 
REMARK    8  A    between atoms: C_18  and  C_21 
REMARK       I    between atoms: C_21  and  N_23 
ROOT
HETATM    1  C           1     -20.240  -5.916  -5.938  0.00  0.00     0.278 C 
ENDROOT
BRANCH   1   2
HETATM    2  C           1     -20.652  -4.459  -6.100  0.00  0.00     0.083 C 
BRANCH   2   3
HETATM    3  C           1     -21.687  -4.349  -7.175  0.00  0.00    -0.028 A 
HETATM    4  C           1     -23.051  -4.399  -6.997  0.00  0.00     0.096 A 
HETATM    5  N           1     -23.639  -4.260  -8.226  0.00  0.00    -0.365 N 
HETATM    6  C           1     -22.678  -4.120  -9.202  0.00  0.00     0.042 A 
HETATM    7  H           1     -24.675  -4.260  -8.399  0.00  0.00     0.165 HD
HETATM    8  C           1     -22.810  -3.953 -10.586  0.00  0.00     0.030 A 
HETATM    9  C           1     -21.438  -4.172  -8.565  0.00  0.00    -0.002 A 
HETATM   10  C           1     -21.638  -3.836 -11.337  0.00  0.00     0.002 A 
HETATM   11  C           1     -20.386  -3.885 -10.728  0.00  0.00     0.001 A 
HETATM   12  C           1     -20.271  -4.053  -9.343  0.00  0.00     0.014 A 
ENDBRANCH   2   3
ENDBRANCH   1   2
BRANCH   1  13
HETATM   13  N           1     -20.667  -6.693  -7.148  0.00  0.00    -0.066 N 
HETATM   14  H           1     -20.637  -6.074  -7.989  0.00  0.00     0.275 HD
HETATM   15  H           1     -20.020  -7.502  -7.287  0.00  0.00     0.275 HD
HETATM   16  H           1     -21.641  -7.046  -7.009  0.00  0.00     0.275 HD
ENDBRANCH   1  13
BRANCH   1  17
HETATM   17  C           1     -20.901  -6.493  -4.711  0.00  0.00     0.249 C 
HETATM   18  O           1     -21.607  -5.797  -4.020  0.00  0.00    -0.271 OA
HETATM   19  N           1     -20.701  -7.806  -4.379  0.00  0.00    -0.343 N 
HETATM   20  H           1     -20.111  -8.390  -4.957  0.00  0.00     0.163 HD
BRANCH  19  21
HETATM   21  C           1     -21.337  -8.361  -3.200  0.00  0.00     0.209 C 
BRANCH  21  22
HETATM   22  C           1     -21.930  -9.723  -3.534  0.00  0.00     0.200 C 
BRANCH  22  23
HETATM   23  O           1     -21.216 -10.723  -2.857  0.00  0.00    -0.398 OA
HETATM   24  H           1     -21.284 -11.506  -3.377  0.00  0.00     0.209 HD
ENDBRANCH  22  23
ENDBRANCH  21  22
BRANCH  21  25
HETATM   25  C           1     -20.312  -8.514  -2.102  0.00  0.00     0.198 C 
HETATM   26  O           1     -19.125  -8.778  -2.387  0.00  0.00    -0.646 OA
HETATM   27  O           1     -20.653  -8.378  -0.907  0.00  0.00    -0.646 OA
ENDBRANCH  21  25
ENDBRANCH  19  21
ENDBRANCH   1  17
TORSDOF 8
ENDMDL
MODEL 5
REMARK VINA RESULT:      -6.7      1.890      2.993
REMARK  8 active torsions:
REMARK  status: ('A' for Active; 'I' for Inactive)
REMARK    1  A    between atoms: C_2  and  C_3 
REMARK    2  A    between atoms: C_2  and  C_22 
REMARK    3  A    between atoms: C_2  and  N_23 
REMARK    4  A    between atoms: C_3  and  O_26 
REMARK    5  A    between atoms: C_4  and  C_5 
REMARK    6  A    between atoms: C_5  and  C_18 
REMARK    7  A    between atoms: N_11  and  C_18 
REMARK    8  A    between atoms: C_18  and  C_21 
REMARK       I    between atoms: C_21  and  N_23 
ROOT
HETATM    1  C           1     -21.428  -7.195  -5.144  0.00  0.00     0.278 C 
ENDROOT
BRANCH   1   2
HETATM    2  C           1     -20.423  -7.338  -4.009  0.00  0.00     0.083 C 
BRANCH   2   3
HETATM    3  C           1     -21.138  -7.280  -2.696  0.00  0.00    -0.028 A 
HETATM    4  C           1     -21.971  -6.271  -2.270  0.00  0.00     0.096 A 
HETATM    5  N           1     -22.421  -6.600  -1.019  0.00  0.00    -0.365 N 
HETATM    6  C           1     -21.894  -7.809  -0.626  0.00  0.00     0.042 A 
HETATM    7  H           1     -23.075  -6.014  -0.443  0.00  0.00     0.165 HD
HETATM    8  C           1     -22.072  -8.532   0.561  0.00  0.00     0.030 A 
HETATM    9  C           1     -21.081  -8.260  -1.666  0.00  0.00    -0.002 A 
HETATM   10  C           1     -21.399  -9.750   0.683  0.00  0.00     0.002 A 
HETATM   11  C           1     -20.581 -10.225  -0.340  0.00  0.00     0.001 A 
HETATM   12  C           1     -20.413  -9.490  -1.520  0.00  0.00     0.014 A 
ENDBRANCH   2   3
ENDBRANCH   1   2
BRANCH   1  13
HETATM   13  N           1     -21.279  -8.349  -6.091  0.00  0.00    -0.066 N 
HETATM   14  H           1     -21.424  -9.246  -5.575  0.00  0.00     0.275 HD
HETATM   15  H           1     -21.989  -8.267  -6.854  0.00  0.00     0.275 HD
HETATM   16  H           1     -20.320  -8.337  -6.505  0.00  0.00     0.275 HD
ENDBRANCH   1  13
BRANCH   1  17
HETATM   17  C           1     -21.175  -5.904  -5.882  0.00  0.00     0.249 C 
HETATM   18  O           1     -20.643  -4.978  -5.316  0.00  0.00    -0.271 OA
HETATM   19  N           1     -21.549  -5.780  -7.193  0.00  0.00    -0.343 N 
HETATM   20  H           1     -21.994  -6.555  -7.668  0.00  0.00     0.163 HD
BRANCH  19  21
HETATM   21  C           1     -21.305  -4.539  -7.902  0.00  0.00     0.209 C 
BRANCH  21  22
HETATM   22  C           1     -19.988  -4.636  -8.661  0.00  0.00     0.200 C 
BRANCH  22  23
HETATM   23  O           1     -18.938  -4.219  -7.831  0.00  0.00    -0.398 OA
HETATM   24  H           1     -18.225  -3.972  -8.396  0.00  0.00     0.209 HD
ENDBRANCH  22  23
ENDBRANCH  21  22
BRANCH  21  25
HETATM   25  C           1     -22.430  -4.289  -8.878  0.00  0.00     0.198 C 
HETATM   26  O           1     -22.209  -4.323 -10.107  0.00  0.00    -0.646 OA
HETATM   27  O           1     -23.581  -4.048  -8.455  0.00  0.00    -0.646 OA
ENDBRANCH  21  25
ENDBRANCH  19  21
ENDBRANCH   1  17
TORSDOF 8
ENDMDL
MODEL 6
REMARK VINA RESULT:      -6.6      2.154      3.129
REMARK  8 active torsions:
REMARK  status: ('A' for Active; 'I' for Inactive)
REMARK    1  A    between atoms: C_2  and  C_3 
REMARK    2  A    between atoms: C_2  and  C_22 
REMARK    3  A    between atoms: C_2  and  N_23 
REMARK    4  A    between atoms: C_3  and  O_26 
REMARK    5  A    between atoms: C_4  and  C_5 
REMARK    6  A    between atoms: C_5  and  C_18 
REMARK    7  A    between atoms: N_11  and  C_18 
REMARK    8  A    between atoms: C_18  and  C_21 
REMARK       I    between atoms: C_21  and  N_23 
ROOT
HETATM    1  C           1     -21.103  -7.883  -4.718  0.00  0.00     0.278 C 
ENDROOT
BRANCH   1   2
HETATM    2  C           1     -19.818  -8.194  -3.963  0.00  0.00     0.083 C 
BRANCH   2   3
HETATM    3  C           1     -20.143  -8.939  -2.707  0.00  0.00    -0.028 A 
HETATM    4  C           1     -19.675 -10.185  -2.358  0.00  0.00     0.096 A 
HETATM    5  N           1     -20.207 -10.506  -1.137  0.00  0.00    -0.365 N 
HETATM    6  C           1     -21.014  -9.485  -0.686  0.00  0.00     0.042 A 
HETATM    7  H           1     -20.024 -11.401  -0.619  0.00  0.00     0.165 HD
HETATM    8  C           1     -21.756  -9.373   0.496  0.00  0.00     0.030 A 
HETATM    9  C           1     -20.990  -8.484  -1.658  0.00  0.00    -0.002 A 
HETATM   10  C           1     -22.494  -8.202   0.687  0.00  0.00     0.002 A 
HETATM   11  C           1     -22.489  -7.186  -0.266  0.00  0.00     0.001 A 
HETATM   12  C           1     -21.742  -7.314  -1.444  0.00  0.00     0.014 A 
ENDBRANCH   2   3
ENDBRANCH   1   2
BRANCH   1  13
HETATM   13  N           1     -21.156  -8.702  -5.974  0.00  0.00    -0.066 N 
HETATM   14  H           1     -20.363  -9.382  -5.981  0.00  0.00     0.275 HD
HETATM   15  H           1     -22.061  -9.222  -6.013  0.00  0.00     0.275 HD
HETATM   16  H           1     -21.081  -8.071  -6.804  0.00  0.00     0.275 HD
ENDBRANCH   1  13
BRANCH   1  17
HETATM   17  C           1     -21.137  -6.417  -5.073  0.00  0.00     0.249 C 
HETATM   18  O           1     -21.262  -5.587  -4.204  0.00  0.00    -0.271 OA
HETATM   19  N           1     -21.026  -6.026  -6.381  0.00  0.00    -0.343 N 
HETATM   20  H           1     -20.920  -6.721  -7.109  0.00  0.00     0.163 HD
BRANCH  19  21
HETATM   21  C           1     -21.058  -4.618  -6.721  0.00  0.00     0.209 C 
BRANCH  21  22
HETATM   22  C           1     -19.927  -4.302  -7.692  0.00  0.00     0.200 C 
BRANCH  22  23
HETATM   23  O           1     -20.021  -5.143  -8.810  0.00  0.00    -0.398 OA
HETATM   24  H           1     -19.249  -5.684  -8.810  0.00  0.00     0.209 HD
ENDBRANCH  22  23
ENDBRANCH  21  22
BRANCH  21  25
HETATM   25  C           1     -22.381  -4.287  -7.368  0.00  0.00     0.198 C 
HETATM   26  O           1     -23.449  -4.595  -6.798  0.00  0.00    -0.646 OA
HETATM   27  O           1     -22.407  -3.706  -8.475  0.00  0.00    -0.646 OA
ENDBRANCH  21  25
ENDBRANCH  19  21
ENDBRANCH   1  17
TORSDOF 8
ENDMDL
MODEL 7
REMARK VINA RESULT:      -6.5      4.190      8.415
REMARK  8 active torsions:
REMARK  status: ('A' for Active; 'I' for Inactive)
REMARK    1  A    between atoms: C_2  and  C_3 
REMARK    2  A    between atoms: C_2  and  C_22 
REMARK    3  A    between atoms: C_2  and  N_23 
REMARK    4  A    between atoms: C_3  and  O_26 
REMARK    5  A    between atoms: C_4  and  C_5 
REMARK    6  A    between atoms: C_5  and  C_18 
REMARK    7  A    between atoms: N_11  and  C_18 
REMARK    8  A    between atoms: C_18  and  C_21 
REMARK       I    between atoms: C_21  and  N_23 
ROOT
HETATM    1  C           1     -21.250  -7.483  -3.781  0.00  0.00     0.278 C 
ENDROOT
BRANCH   1   2
HETATM    2  C           1     -21.944  -6.363  -4.544  0.00  0.00     0.083 C 
BRANCH   2   3
HETATM    3  C           1     -21.199  -6.084  -5.811  0.00  0.00    -0.028 A 
HETATM    4  C           1     -19.937  -6.535  -6.126  0.00  0.00     0.096 A 
HETATM    5  N           1     -19.621  -6.060  -7.371  0.00  0.00    -0.365 N 
HETATM    6  C           1     -20.659  -5.306  -7.871  0.00  0.00     0.042 A 
HETATM    7  H           1     -18.717  -6.245  -7.873  0.00  0.00     0.165 HD
HETATM    8  C           1     -20.782  -4.631  -9.092  0.00  0.00     0.030 A 
HETATM    9  C           1     -21.667  -5.306  -6.907  0.00  0.00    -0.002 A 
HETATM   10  C           1     -21.971  -3.937  -9.330  0.00  0.00     0.002 A 
HETATM   11  C           1     -22.994  -3.919  -8.384  0.00  0.00     0.001 A 
HETATM   12  C           1     -22.855  -4.599  -7.168  0.00  0.00     0.014 A 
ENDBRANCH   2   3
ENDBRANCH   1   2
BRANCH   1  13
HETATM   13  N           1     -21.721  -8.809  -4.303  0.00  0.00    -0.066 N 
HETATM   14  H           1     -22.687  -8.709  -4.689  0.00  0.00     0.275 HD
HETATM   15  H           1     -21.076  -9.135  -5.057  0.00  0.00     0.275 HD
HETATM   16  H           1     -21.729  -9.506  -3.524  0.00  0.00     0.275 HD
ENDBRANCH   1  13
BRANCH   1  17
HETATM   17  C           1     -21.583  -7.374  -2.313  0.00  0.00     0.249 C 
HETATM   18  O           1     -21.963  -6.323  -1.856  0.00  0.00    -0.271 OA
HETATM   19  N           1     -21.453  -8.467  -1.499  0.00  0.00    -0.343 N 
HETATM   20  H           1     -21.135  -9.348  -1.882  0.00  0.00     0.163 HD
BRANCH  19  21
HETATM   21  C           1     -21.773  -8.362  -0.089  0.00  0.00     0.209 C 
BRANCH  21  22
HETATM   22  C           1     -23.240  -8.706   0.128  0.00  0.00     0.200 C 
BRANCH  22  23
HETATM   23  O           1     -23.899  -7.607   0.696  0.00  0.00    -0.398 OA
HETATM   24  H           1     -24.503  -7.950   1.334  0.00  0.00     0.209 HD
ENDBRANCH  22  23
ENDBRANCH  21  22
BRANCH  21  25
HETATM   25  C           1     -20.911  -9.323   0.694  0.00  0.00     0.198 C 
HETATM   26  O           1     -20.647  -9.091   1.893  0.00  0.00    -0.646 OA
HETATM   27  O           1     -20.462 -10.351   0.142  0.00  0.00    -0.646 OA
ENDBRANCH  21  25
ENDBRANCH  19  21
ENDBRANCH   1  17
TORSDOF 8
ENDMDL
MODEL 8
REMARK VINA RESULT:      -6.5      2.194      3.922
REMARK  8 active torsions:
REMARK  status: ('A' for Active; 'I' for Inactive)
REMARK    1  A    between atoms: C_2  and  C_3 
REMARK    2  A    between atoms: C_2  and  C_22 
REMARK    3  A    between atoms: C_2  and  N_23 
REMARK    4  A    between atoms: C_3  and  O_26 
REMARK    5  A    between atoms: C_4  and  C_5 
REMARK    6  A    between atoms: C_5  and  C_18 
REMARK    7  A    between atoms: N_11  and  C_18 
REMARK    8  A    between atoms: C_18  and  C_21 
REMARK       I    between atoms: C_21  and  N_23 
ROOT
HETATM    1  C           1     -21.480  -8.215  -4.474  0.00  0.00     0.278 C 
ENDROOT
BRANCH   1   2
HETATM    2  C           1     -20.603  -8.385  -3.241  0.00  0.00     0.083 C 
BRANCH   2   3
HETATM    3  C           1     -21.468  -8.588  -2.037  0.00  0.00    -0.028 A 
HETATM    4  C           1     -21.651  -7.692  -1.008  0.00  0.00     0.096 A 
HETATM    5  N           1     -22.513  -8.259  -0.107  0.00  0.00    -0.365 N 
HETATM    6  C           1     -22.896  -9.510  -0.536  0.00  0.00     0.042 A 
HETATM    7  H           1     -22.838  -7.803   0.782  0.00  0.00     0.165 HD
HETATM    8  C           1     -23.754 -10.446   0.054  0.00  0.00     0.030 A 
HETATM    9  C           1     -22.250  -9.742  -1.751  0.00  0.00    -0.002 A 
HETATM   10  C           1     -23.957 -11.652  -0.621  0.00  0.00     0.002 A 
HETATM   11  C           1     -23.326 -11.911  -1.836  0.00  0.00     0.001 A 
HETATM   12  C           1     -22.469 -10.965  -2.412  0.00  0.00     0.014 A 
ENDBRANCH   2   3
ENDBRANCH   1   2
BRANCH   1  13
HETATM   13  N           1     -20.978  -9.107  -5.571  0.00  0.00    -0.066 N 
HETATM   14  H           1     -20.710  -8.528  -6.398  0.00  0.00     0.275 HD
HETATM   15  H           1     -20.143  -9.638  -5.232  0.00  0.00     0.275 HD
HETATM   16  H           1     -21.730  -9.779  -5.845  0.00  0.00     0.275 HD
ENDBRANCH   1  13
BRANCH   1  17
HETATM   17  C           1     -21.430  -6.778  -4.934  0.00  0.00     0.249 C 
HETATM   18  O           1     -21.836  -5.898  -4.213  0.00  0.00    -0.271 OA
HETATM   19  N           1     -20.924  -6.472  -6.169  0.00  0.00    -0.343 N 
HETATM   20  H           1     -20.583  -7.208  -6.773  0.00  0.00     0.163 HD
BRANCH  19  21
HETATM   21  C           1     -20.876  -5.092  -6.610  0.00  0.00     0.209 C 
BRANCH  21  22
HETATM   22  C           1     -19.550  -4.826  -7.310  0.00  0.00     0.200 C 
BRANCH  22  23
HETATM   23  O           1     -19.654  -3.663  -8.085  0.00  0.00    -0.398 OA
HETATM   24  H           1     -20.546  -3.365  -8.012  0.00  0.00     0.209 HD
ENDBRANCH  22  23
ENDBRANCH  21  22
BRANCH  21  25
HETATM   25  C           1     -22.011  -4.831  -7.570  0.00  0.00     0.198 C 
HETATM   26  O           1     -23.101  -4.394  -7.144  0.00  0.00    -0.646 OA
HETATM   27  O           1     -21.860  -5.054  -8.791  0.00  0.00    -0.646 OA
ENDBRANCH  21  25
ENDBRANCH  19  21
ENDBRANCH   1  17
TORSDOF 8
ENDMDL
MODEL 9
REMARK VINA RESULT:      -6.5      4.609      8.054
REMARK  8 active torsions:
REMARK  status: ('A' for Active; 'I' for Inactive)
REMARK    1  A    between atoms: C_2  and  C_3 
REMARK    2  A    between atoms: C_2  and  C_22 
REMARK    3  A    between atoms: C_2  and  N_23 
REMARK    4  A    between atoms: C_3  and  O_26 
REMARK    5  A    between atoms: C_4  and  C_5 
REMARK    6  A    between atoms: C_5  and  C_18 
REMARK    7  A    between atoms: N_11  and  C_18 
REMARK    8  A    between atoms: C_18  and  C_21 
REMARK       I    between atoms: C_21  and  N_23 
ROOT
HETATM    1  C           1     -19.945  -8.395  -3.836  0.00  0.00     0.278 C 
ENDROOT
BRANCH   1   2
HETATM    2  C           1     -20.559  -8.477  -5.228  0.00  0.00     0.083 C 
BRANCH   2   3
HETATM    3  C           1     -21.253  -7.191  -5.545  0.00  0.00    -0.028 A 
HETATM    4  C           1     -22.499  -6.810  -5.101  0.00  0.00     0.096 A 
HETATM    5  N           1     -22.766  -5.569  -5.615  0.00  0.00    -0.365 N 
HETATM    6  C           1     -21.711  -5.136  -6.386  0.00  0.00     0.042 A 
HETATM    7  H           1     -23.648  -5.025  -5.444  0.00  0.00     0.165 HD
HETATM    8  C           1     -21.541  -3.943  -7.100  0.00  0.00     0.030 A 
HETATM    9  C           1     -20.743  -6.140  -6.359  0.00  0.00    -0.002 A 
HETATM   10  C           1     -20.346  -3.776  -7.805  0.00  0.00     0.002 A 
HETATM   11  C           1     -19.362  -4.763  -7.795  0.00  0.00     0.001 A 
HETATM   12  C           1     -19.548  -5.950  -7.076  0.00  0.00     0.014 A 
ENDBRANCH   2   3
ENDBRANCH   1   2
BRANCH   1  13
HETATM   13  N           1     -18.688  -9.212  -3.796  0.00  0.00    -0.066 N 
HETATM   14  H           1     -18.919 -10.196  -3.530  0.00  0.00     0.275 HD
HETATM   15  H           1     -18.236  -9.203  -4.738  0.00  0.00     0.275 HD
HETATM   16  H           1     -18.031  -8.806  -3.091  0.00  0.00     0.275 HD
ENDBRANCH   1  13
BRANCH   1  17
HETATM   17  C           1     -20.925  -8.931  -2.822  0.00  0.00     0.249 C 
HETATM   18  O           1     -21.760  -9.738  -3.155  0.00  0.00    -0.271 OA
HETATM   19  N           1     -20.869  -8.502  -1.522  0.00  0.00    -0.343 N 
HETATM   20  H           1     -20.169  -7.826  -1.243  0.00  0.00     0.163 HD
BRANCH  19  21
HETATM   21  C           1     -21.810  -9.017  -0.548  0.00  0.00     0.209 C 
BRANCH  21  22
HETATM   22  C           1     -21.052  -9.544   0.663  0.00  0.00     0.200 C 
BRANCH  22  23
HETATM   23  O           1     -20.953  -8.534   1.630  0.00  0.00    -0.398 OA
HETATM   24  H           1     -21.711  -7.983   1.528  0.00  0.00     0.209 HD
ENDBRANCH  22  23
ENDBRANCH  21  22
BRANCH  21  25
HETATM   25  C           1     -22.741  -7.910  -0.115  0.00  0.00     0.198 C 
HETATM   26  O           1     -22.650  -6.778  -0.634  0.00  0.00    -0.646 OA
HETATM   27  O           1     -23.603  -8.128   0.765  0.00  0.00    -0.646 OA
ENDBRANCH  21  25
ENDBRANCH  19  21
ENDBRANCH   1  17
TORSDOF 8
ENDMDL
