MODEL 1
REMARK VINA RESULT:      -7.0      0.000      0.000
REMARK  11 active torsions:
REMARK  status: ('A' for Active; 'I' for Inactive)
REMARK    1  A    between atoms: S_1  and  C_2 
REMARK    2  A    between atoms: C_2  and  C_3 
REMARK    3  A    between atoms: C_3  and  C_4 
REMARK    4  A    between atoms: C_3  and  N_7 
REMARK       I    between atoms: N_7  and  C_8 
REMARK    5  A    between atoms: C_8  and  C_9 
REMARK    6  A    between atoms: C_9  and  C_10 
REMARK    7  A    between atoms: C_9  and  N_22 
REMARK    8  A    between atoms: C_10  and  C_11 
REMARK    9  A    between atoms: C_14  and  O_15 
REMARK   10  A    between atoms: O_15  and  P_16 
REMARK   11  A    between atoms: P_16  and  O_17 
ROOT
HETATM    1  C           1     -21.130  -6.232  -5.023  0.00  0.00     0.278 C 
ENDROOT
BRANCH   1   2
HETATM    2  C           1     -20.501  -7.601  -5.101  0.00  0.00     0.249 C 
HETATM    3  N           1     -20.953  -8.610  -4.294  0.00  0.00    -0.344 N 
HETATM    4  H           1     -21.709  -8.437  -3.644  0.00  0.00     0.163 HD
HETATM    5  O           1     -19.598  -7.807  -5.878  0.00  0.00    -0.271 OA
BRANCH   3   6
HETATM    6  C           1     -20.348  -9.925  -4.369  0.00  0.00     0.194 C 
BRANCH   6   7
HETATM    7  C           1     -20.193 -10.495  -2.965  0.00  0.00     0.106 C 
BRANCH   7   8
HETATM    8  S           1     -21.033  -9.415  -1.774  0.00  0.00    -0.180 SA
HETATM    9  H           1     -22.282  -9.697  -2.186  0.00  0.00     0.101 HD
ENDBRANCH   7   8
ENDBRANCH   6   7
BRANCH   6  10
HETATM   10  C           1     -21.229 -10.838  -5.187  0.00  0.00     0.197 C 
HETATM   11  O           1     -21.164 -10.814  -6.435  0.00  0.00    -0.646 OA
HETATM   12  O           1     -22.022 -11.616  -4.616  0.00  0.00    -0.646 OA
ENDBRANCH   6  10
ENDBRANCH   3   6
ENDBRANCH   1   2
BRANCH   1  13
HETATM   13  C           1     -20.203  -5.209  -5.666  0.00  0.00     0.081 C 
BRANCH  13  14
HETATM   14  C           1     -20.765  -4.785  -6.986  0.00  0.00    -0.056 A 
HETATM   15  C           1     -22.043  -4.229  -7.054  0.00  0.00     0.010 A 
HETATM   16  C           1     -22.567  -3.833  -8.284  0.00  0.00     0.038 A 
HETATM   17  C           1     -21.814  -3.992  -9.447  0.00  0.00     0.081 A 
HETATM   18  C           1     -20.536  -4.547  -9.380  0.00  0.00     0.038 A 
HETATM   19  C           1     -20.012  -4.943  -8.149  0.00  0.00     0.010 A 
BRANCH  17  20
HETATM   20  O           1     -22.322  -3.607 -10.643  0.00  0.00    -0.247 OA
BRANCH  20  21
HETATM   21  P           1     -23.703  -4.286 -11.135  0.00  0.00     0.411 P 
HETATM   22  O           1     -23.975  -5.493 -10.322  0.00  0.00    -0.624 OA
HETATM   23  O           1     -24.812  -3.320 -10.972  0.00  0.00    -0.624 OA
BRANCH  21  24
HETATM   24  O           1     -23.575  -4.702 -12.689  0.00  0.00    -0.300 OA
HETATM   25  H           1     -23.664  -3.894 -13.166  0.00  0.00     0.223 HD
ENDBRANCH  21  24
ENDBRANCH  20  21
ENDBRANCH  17  20
ENDBRANCH  13  14
ENDBRANCH   1  13
BRANCH   1  26
HETATM   26  N           1     -21.357  -5.868  -3.585  0.00  0.00    -0.066 N 
HETATM   27  H           1     -22.381  -5.868  -3.383  0.00  0.00     0.275 HD
HETATM   28  H           1     -20.879  -6.565  -2.971  0.00  0.00     0.275 HD
HETATM   29  H           1     -20.965  -4.916  -3.402  0.00  0.00     0.275 HD
ENDBRANCH   1  26
TORSDOF 11
ENDMDL
MODEL 2
REMARK VINA RESULT:      -6.9      4.637      8.488
REMARK  11 active torsions:
REMARK  status: ('A' for Active; 'I' for Inactive)
REMARK    1  A    between atoms: S_1  and  C_2 
REMARK    2  A    between atoms: C_2  and  C_3 
REMARK    3  A    between atoms: C_3  and  C_4 
REMARK    4  A    between atoms: C_3  and  N_7 
REMARK       I    between atoms: N_7  and  C_8 
REMARK    5  A    between atoms: C_8  and  C_9 
REMARK    6  A    between atoms: C_9  and  C_10 
REMARK    7  A    between atoms: C_9  and  N_22 
REMARK    8  A    between atoms: C_10  and  C_11 
REMARK    9  A    between atoms: C_14  and  O_15 
REMARK   10  A    between atoms: O_15  and  P_16 
REMARK   11  A    between atoms: P_16  and  O_17 
ROOT
HETATM    1  C           1     -22.390  -5.078  -6.156  0.00  0.00     0.278 C 
ENDROOT
BRANCH   1   2
HETATM    2  C           1     -22.265  -4.313  -7.450  0.00  0.00     0.249 C 
HETATM    3  N           1     -23.259  -4.386  -8.388  0.00  0.00    -0.344 N 
HETATM    4  H           1     -24.078  -4.954  -8.213  0.00  0.00     0.163 HD
HETATM    5  O           1     -21.286  -3.636  -7.659  0.00  0.00    -0.271 OA
BRANCH   3   6
HETATM    6  C           1     -23.138  -3.652  -9.632  0.00  0.00     0.194 C 
BRANCH   6   7
HETATM    7  C           1     -22.351  -4.481 -10.639  0.00  0.00     0.106 C 
BRANCH   7   8
HETATM    8  S           1     -21.031  -3.466 -11.360  0.00  0.00    -0.180 SA
HETATM    9  H           1     -20.322  -4.493 -11.860  0.00  0.00     0.101 HD
ENDBRANCH   7   8
ENDBRANCH   6   7
BRANCH   6  10
HETATM   10  C           1     -24.514  -3.367 -10.184  0.00  0.00     0.197 C 
HETATM   11  O           1     -25.362  -2.781  -9.476  0.00  0.00    -0.646 OA
HETATM   12  O           1     -24.805  -3.717 -11.347  0.00  0.00    -0.646 OA
ENDBRANCH   6  10
ENDBRANCH   3   6
ENDBRANCH   1   2
BRANCH   1  13
HETATM   13  C           1     -21.562  -6.354  -6.236  0.00  0.00     0.081 C 
BRANCH  13  14
HETATM   14  C           1     -21.437  -6.956  -4.872  0.00  0.00    -0.056 A 
HETATM   15  C           1     -21.191  -6.138  -3.768  0.00  0.00     0.010 A 
HETATM   16  C           1     -21.075  -6.699  -2.497  0.00  0.00     0.038 A 
HETATM   17  C           1     -21.204  -8.077  -2.328  0.00  0.00     0.081 A 
HETATM   18  C           1     -21.451  -8.895  -3.431  0.00  0.00     0.038 A 
HETATM   19  C           1     -21.567  -8.335  -4.702  0.00  0.00     0.010 A 
BRANCH  17  20
HETATM   20  O           1     -21.092  -8.623  -1.092  0.00  0.00    -0.247 OA
BRANCH  20  21
HETATM   21  P           1     -22.296  -8.380  -0.043  0.00  0.00     0.411 P 
HETATM   22  O           1     -23.029  -7.148  -0.412  0.00  0.00    -0.624 OA
HETATM   23  O           1     -23.220  -9.535  -0.078  0.00  0.00    -0.624 OA
BRANCH  21  24
HETATM   24  O           1     -21.689  -8.221   1.444  0.00  0.00    -0.300 OA
HETATM   25  H           1     -21.793  -7.307   1.653  0.00  0.00     0.223 HD
ENDBRANCH  21  24
ENDBRANCH  20  21
ENDBRANCH  17  20
ENDBRANCH  13  14
ENDBRANCH   1  13
BRANCH   1  26
HETATM   26  N           1     -23.829  -5.431  -5.921  0.00  0.00    -0.066 N 
HETATM   27  H           1     -24.413  -4.566  -5.971  0.00  0.00     0.275 HD
HETATM   28  H           1     -24.145  -6.107  -6.653  0.00  0.00     0.275 HD
HETATM   29  H           1     -23.931  -5.867  -4.977  0.00  0.00     0.275 HD
ENDBRANCH   1  26
TORSDOF 11
ENDMDL
MODEL 3
REMARK VINA RESULT:      -6.8      1.601      1.822
REMARK  11 active torsions:
REMARK  status: ('A' for Active; 'I' for Inactive)
REMARK    1  A    between atoms: S_1  and  C_2 
REMARK    2  A    between atoms: C_2  and  C_3 
REMARK    3  A    between atoms: C_3  and  C_4 
REMARK    4  A    between atoms: C_3  and  N_7 
REMARK       I    between atoms: N_7  and  C_8 
REMARK    5  A    between atoms: C_8  and  C_9 
REMARK    6  A    between atoms: C_9  and  C_10 
REMARK    7  A    between atoms: C_9  and  N_22 
REMARK    8  A    between atoms: C_10  and  C_11 
REMARK    9  A    between atoms: C_14  and  O_15 
REMARK   10  A    between atoms: O_15  and  P_16 
REMARK   11  A    between atoms: P_16  and  O_17 
ROOT
HETATM    1  C           1     -21.603  -6.639  -4.797  0.00  0.00     0.278 C 
ENDROOT
BRANCH   1   2
HETATM    2  C           1     -21.100  -8.029  -4.495  0.00  0.00     0.249 C 
HETATM    3  N           1     -20.797  -8.885  -5.519  0.00  0.00    -0.344 N 
HETATM    4  H           1     -20.910  -8.585  -6.479  0.00  0.00     0.163 HD
HETATM    5  O           1     -20.965  -8.387  -3.348  0.00  0.00    -0.271 OA
BRANCH   3   6
HETATM    6  C           1     -20.315 -10.220  -5.230  0.00  0.00     0.194 C 
BRANCH   6   7
HETATM    7  C           1     -21.139 -11.240  -6.005  0.00  0.00     0.106 C 
BRANCH   7   8
HETATM    8  S           1     -22.177 -12.184  -4.854  0.00  0.00    -0.180 SA
HETATM    9  H           1     -22.134 -13.338  -5.542  0.00  0.00     0.101 HD
ENDBRANCH   7   8
ENDBRANCH   6   7
BRANCH   6  10
HETATM   10  C           1     -18.866 -10.332  -5.638  0.00  0.00     0.197 C 
HETATM   11  O           1     -18.564 -10.841  -6.739  0.00  0.00    -0.646 OA
HETATM   12  O           1     -17.968  -9.918  -4.874  0.00  0.00    -0.646 OA
ENDBRANCH   6  10
ENDBRANCH   3   6
ENDBRANCH   1   2
BRANCH   1  13
HETATM   13  C           1     -20.493  -5.828  -5.454  0.00  0.00     0.081 C 
BRANCH  13  14
HETATM   14  C           1     -20.988  -5.259  -6.747  0.00  0.00    -0.056 A 
HETATM   15  C           1     -22.243  -4.653  -6.807  0.00  0.00     0.010 A 
HETATM   16  C           1     -22.704  -4.122  -8.011  0.00  0.00     0.038 A 
HETATM   17  C           1     -21.911  -4.197  -9.156  0.00  0.00     0.081 A 
HETATM   18  C           1     -20.655  -4.802  -9.096  0.00  0.00     0.038 A 
HETATM   19  C           1     -20.194  -5.333  -7.892  0.00  0.00     0.010 A 
BRANCH  17  20
HETATM   20  O           1     -22.358  -3.681 -10.326  0.00  0.00    -0.247 OA
BRANCH  20  21
HETATM   21  P           1     -23.693  -4.317 -10.976  0.00  0.00     0.411 P 
HETATM   22  O           1     -24.029  -5.577 -10.274  0.00  0.00    -0.624 OA
HETATM   23  O           1     -24.812  -3.360 -10.838  0.00  0.00    -0.624 OA
BRANCH  21  24
HETATM   24  O           1     -23.437  -4.625 -12.540  0.00  0.00    -0.300 OA
HETATM   25  H           1     -23.924  -3.964 -13.001  0.00  0.00     0.223 HD
ENDBRANCH  21  24
ENDBRANCH  20  21
ENDBRANCH  17  20
ENDBRANCH  13  14
ENDBRANCH   1  13
BRANCH   1  26
HETATM   26  N           1     -22.021  -5.970  -3.521  0.00  0.00    -0.066 N 
HETATM   27  H           1     -22.229  -4.964  -3.706  0.00  0.00     0.275 HD
HETATM   28  H           1     -22.875  -6.440  -3.146  0.00  0.00     0.275 HD
HETATM   29  H           1     -21.248  -6.043  -2.821  0.00  0.00     0.275 HD
ENDBRANCH   1  26
TORSDOF 11
ENDMDL
MODEL 4
REMARK VINA RESULT:      -6.7      4.190      8.271
REMARK  11 active torsions:
REMARK  status: ('A' for Active; 'I' for Inactive)
REMARK    1  A    between atoms: S_1  and  C_2 
REMARK    2  A    between atoms: C_2  and  C_3 
REMARK    3  A    between atoms: C_3  and  C_4 
REMARK    4  A    between atoms: C_3  and  N_7 
REMARK       I    between atoms: N_7  and  C_8 
REMARK    5  A    between atoms: C_8  and  C_9 
REMARK    6  A    between atoms: C_9  and  C_10 
REMARK    7  A    between atoms: C_9  and  N_22 
REMARK    8  A    between atoms: C_10  and  C_11 
REMARK    9  A    between atoms: C_14  and  O_15 
REMARK   10  A    between atoms: O_15  and  P_16 
REMARK   11  A    between atoms: P_16  and  O_17 
ROOT
HETATM    1  C           1     -21.189  -5.671  -6.890  0.00  0.00     0.278 C 
ENDROOT
BRANCH   1   2
HETATM    2  C           1     -21.777  -4.519  -7.667  0.00  0.00     0.249 C 
HETATM    3  N           1     -22.240  -4.717  -8.939  0.00  0.00    -0.344 N 
HETATM    4  H           1     -22.188  -5.637  -9.359  0.00  0.00     0.163 HD
HETATM    5  O           1     -21.839  -3.421  -7.165  0.00  0.00    -0.271 OA
BRANCH   3   6
HETATM    6  C           1     -22.804  -3.610  -9.686  0.00  0.00     0.194 C 
BRANCH   6   7
HETATM    7  C           1     -21.913  -3.294 -10.880  0.00  0.00     0.106 C 
BRANCH   7   8
HETATM    8  S           1     -20.447  -4.363 -10.844  0.00  0.00    -0.180 SA
HETATM    9  H           1     -20.232  -4.261  -9.520  0.00  0.00     0.101 HD
ENDBRANCH   7   8
ENDBRANCH   6   7
BRANCH   6  10
HETATM   10  C           1     -24.183  -3.983 -10.174  0.00  0.00     0.197 C 
HETATM   11  O           1     -24.958  -3.096 -10.595  0.00  0.00    -0.646 OA
HETATM   12  O           1     -24.550  -5.177 -10.156  0.00  0.00    -0.646 OA
ENDBRANCH   6  10
ENDBRANCH   3   6
ENDBRANCH   1   2
BRANCH   1  13
HETATM   13  C           1     -20.847  -5.212  -5.479  0.00  0.00     0.081 C 
BRANCH  13  14
HETATM   14  C           1     -21.127  -6.318  -4.510  0.00  0.00    -0.056 A 
HETATM   15  C           1     -21.227  -6.041  -3.146  0.00  0.00     0.010 A 
HETATM   16  C           1     -21.489  -7.070  -2.243  0.00  0.00     0.038 A 
HETATM   17  C           1     -21.651  -8.377  -2.702  0.00  0.00     0.081 A 
HETATM   18  C           1     -21.552  -8.654  -4.066  0.00  0.00     0.038 A 
HETATM   19  C           1     -21.290  -7.624  -4.969  0.00  0.00     0.010 A 
BRANCH  17  20
HETATM   20  O           1     -21.906  -9.379  -1.826  0.00  0.00    -0.247 OA
BRANCH  20  21
HETATM   21  P           1     -20.727 -10.440  -1.523  0.00  0.00     0.411 P 
HETATM   22  O           1     -20.687 -10.731  -0.072  0.00  0.00    -0.624 OA
HETATM   23  O           1     -20.986 -11.690  -2.270  0.00  0.00    -0.624 OA
BRANCH  21  24
HETATM   24  O           1     -19.311  -9.820  -1.985  0.00  0.00    -0.300 OA
HETATM   25  H           1     -19.214 -10.078  -2.886  0.00  0.00     0.223 HD
ENDBRANCH  21  24
ENDBRANCH  20  21
ENDBRANCH  17  20
ENDBRANCH  13  14
ENDBRANCH   1  13
BRANCH   1  26
HETATM   26  N           1     -19.944  -6.152  -7.574  0.00  0.00    -0.066 N 
HETATM   27  H           1     -19.418  -6.789  -6.934  0.00  0.00     0.275 HD
HETATM   28  H           1     -20.203  -6.668  -8.445  0.00  0.00     0.275 HD
HETATM   29  H           1     -19.344  -5.333  -7.820  0.00  0.00     0.275 HD
ENDBRANCH   1  26
TORSDOF 11
ENDMDL
MODEL 5
REMARK VINA RESULT:      -6.5      1.713      2.290
REMARK  11 active torsions:
REMARK  status: ('A' for Active; 'I' for Inactive)
REMARK    1  A    between atoms: S_1  and  C_2 
REMARK    2  A    between atoms: C_2  and  C_3 
REMARK    3  A    between atoms: C_3  and  C_4 
REMARK    4  A    between atoms: C_3  and  N_7 
REMARK       I    between atoms: N_7  and  C_8 
REMARK    5  A    between atoms: C_8  and  C_9 
REMARK    6  A    between atoms: C_9  and  C_10 
REMARK    7  A    between atoms: C_9  and  N_22 
REMARK    8  A    between atoms: C_10  and  C_11 
REMARK    9  A    between atoms: C_14  and  O_15 
REMARK   10  A    between atoms: O_15  and  P_16 
REMARK   11  A    between atoms: P_16  and  O_17 
ROOT
HETATM    1  C           1     -21.577  -6.774  -4.650  0.00  0.00     0.278 C 
ENDROOT
BRANCH   1   2
HETATM    2  C           1     -21.311  -8.204  -4.249  0.00  0.00     0.249 C 
HETATM    3  N           1     -20.967  -8.500  -2.957  0.00  0.00    -0.344 N 
HETATM    4  H           1     -20.892  -7.760  -2.272  0.00  0.00     0.163 HD
HETATM    5  O           1     -21.401  -9.088  -5.068  0.00  0.00    -0.271 OA
BRANCH   3   6
HETATM    6  C           1     -20.711  -9.873  -2.572  0.00  0.00     0.194 C 
BRANCH   6   7
HETATM    7  C           1     -19.226 -10.053  -2.283  0.00  0.00     0.106 C 
BRANCH   7   8
HETATM    8  S           1     -18.656 -11.624  -2.991  0.00  0.00    -0.180 SA
HETATM    9  H           1     -18.018 -12.052  -1.887  0.00  0.00     0.101 HD
ENDBRANCH   7   8
ENDBRANCH   6   7
BRANCH   6  10
HETATM   10  C           1     -21.507 -10.206  -1.333  0.00  0.00     0.197 C 
HETATM   11  O           1     -22.755 -10.262  -1.389  0.00  0.00    -0.646 OA
HETATM   12  O           1     -20.919 -10.423  -0.253  0.00  0.00    -0.646 OA
ENDBRANCH   6  10
ENDBRANCH   3   6
ENDBRANCH   1   2
BRANCH   1  13
HETATM   13  C           1     -20.434  -6.268  -5.520  0.00  0.00     0.081 C 
BRANCH  13  14
HETATM   14  C           1     -20.989  -5.517  -6.689  0.00  0.00    -0.056 A 
HETATM   15  C           1     -20.236  -5.391  -7.857  0.00  0.00     0.010 A 
HETATM   16  C           1     -20.753  -4.691  -8.948  0.00  0.00     0.038 A 
HETATM   17  C           1     -22.022  -4.118  -8.871  0.00  0.00     0.081 A 
HETATM   18  C           1     -22.775  -4.245  -7.703  0.00  0.00     0.038 A 
HETATM   19  C           1     -22.258  -4.944  -6.613  0.00  0.00     0.010 A 
BRANCH  17  20
HETATM   20  O           1     -22.525  -3.438  -9.930  0.00  0.00    -0.247 OA
BRANCH  20  21
HETATM   21  P           1     -23.649  -4.165 -10.833  0.00  0.00     0.411 P 
HETATM   22  O           1     -24.053  -5.435 -10.189  0.00  0.00    -0.624 OA
HETATM   23  O           1     -24.826  -3.278 -10.961  0.00  0.00    -0.624 OA
BRANCH  21  24
HETATM   24  O           1     -23.046  -4.474 -12.298  0.00  0.00    -0.300 OA
HETATM   25  H           1     -22.313  -3.888 -12.389  0.00  0.00     0.223 HD
ENDBRANCH  21  24
ENDBRANCH  20  21
ENDBRANCH  17  20
ENDBRANCH  13  14
ENDBRANCH   1  13
BRANCH   1  26
HETATM   26  N           1     -21.684  -5.921  -3.420  0.00  0.00    -0.066 N 
HETATM   27  H           1     -22.658  -5.552  -3.335  0.00  0.00     0.275 HD
HETATM   28  H           1     -21.454  -6.495  -2.578  0.00  0.00     0.275 HD
HETATM   29  H           1     -21.014  -5.123  -3.492  0.00  0.00     0.275 HD
ENDBRANCH   1  26
TORSDOF 11
ENDMDL
MODEL 6
REMARK VINA RESULT:      -6.4      2.317      2.750
REMARK  11 active torsions:
REMARK  status: ('A' for Active; 'I' for Inactive)
REMARK    1  A    between atoms: S_1  and  C_2 
REMARK    2  A    between atoms: C_2  and  C_3 
REMARK    3  A    between atoms: C_3  and  C_4 
REMARK    4  A    between atoms: C_3  and  N_7 
REMARK       I    between atoms: N_7  and  C_8 
REMARK    5  A    between atoms: C_8  and  C_9 
REMARK    6  A    between atoms: C_9  and  C_10 
REMARK    7  A    between atoms: C_9  and  N_22 
REMARK    8  A    between atoms: C_10  and  C_11 
REMARK    9  A    between atoms: C_14  and  O_15 
REMARK   10  A    between atoms: O_15  and  P_16 
REMARK   11  A    between atoms: P_16  and  O_17 
ROOT
HETATM    1  C           1     -20.182  -6.441  -5.354  0.00  0.00     0.278 C 
ENDROOT
BRANCH   1   2
HETATM    2  C           1     -21.213  -7.090  -4.464  0.00  0.00     0.249 C 
HETATM    3  N           1     -20.824  -7.721  -3.313  0.00  0.00    -0.344 N 
HETATM    4  H           1     -19.845  -7.753  -3.059  0.00  0.00     0.163 HD
HETATM    5  O           1     -22.382  -7.053  -4.768  0.00  0.00    -0.271 OA
BRANCH   3   6
HETATM    6  C           1     -21.815  -8.346  -2.459  0.00  0.00     0.194 C 
BRANCH   6   7
HETATM    7  C           1     -21.474  -9.819  -2.274  0.00  0.00     0.106 C 
BRANCH   7   8
HETATM    8  S           1     -22.447 -10.817  -3.436  0.00  0.00    -0.180 SA
HETATM    9  H           1     -21.395 -11.304  -4.118  0.00  0.00     0.101 HD
ENDBRANCH   7   8
ENDBRANCH   6   7
BRANCH   6  10
HETATM   10  C           1     -21.824  -7.660  -1.114  0.00  0.00     0.197 C 
HETATM   11  O           1     -22.656  -6.758  -0.878  0.00  0.00    -0.646 OA
HETATM   12  O           1     -20.998  -7.994  -0.238  0.00  0.00    -0.646 OA
ENDBRANCH   6  10
ENDBRANCH   3   6
ENDBRANCH   1   2
BRANCH   1  13
HETATM   13  C           1     -20.441  -4.942  -5.423  0.00  0.00     0.081 C 
BRANCH  13  14
HETATM   14  C           1     -20.961  -4.585  -6.780  0.00  0.00    -0.056 A 
HETATM   15  C           1     -22.331  -4.406  -6.976  0.00  0.00     0.010 A 
HETATM   16  C           1     -22.817  -4.074  -8.240  0.00  0.00     0.038 A 
HETATM   17  C           1     -21.934  -3.920  -9.309  0.00  0.00     0.081 A 
HETATM   18  C           1     -20.564  -4.099  -9.113  0.00  0.00     0.038 A 
HETATM   19  C           1     -20.078  -4.431  -7.849  0.00  0.00     0.010 A 
BRANCH  17  20
HETATM   20  O           1     -22.405  -3.597 -10.537  0.00  0.00    -0.247 OA
BRANCH  20  21
HETATM   21  P           1     -23.763  -4.311 -11.042  0.00  0.00     0.411 P 
HETATM   22  O           1     -23.642  -4.638 -12.481  0.00  0.00    -0.624 OA
HETATM   23  O           1     -23.982  -5.554 -10.269  0.00  0.00    -0.624 OA
BRANCH  21  24
HETATM   24  O           1     -25.011  -3.312 -10.821  0.00  0.00    -0.300 OA
HETATM   25  H           1     -24.655  -2.578 -10.348  0.00  0.00     0.223 HD
ENDBRANCH  21  24
ENDBRANCH  20  21
ENDBRANCH  17  20
ENDBRANCH  13  14
ENDBRANCH   1  13
BRANCH   1  26
HETATM   26  N           1     -20.270  -7.027  -6.732  0.00  0.00    -0.066 N 
HETATM   27  H           1     -20.209  -6.262  -7.441  0.00  0.00     0.275 HD
HETATM   28  H           1     -19.482  -7.699  -6.875  0.00  0.00     0.275 HD
HETATM   29  H           1     -21.180  -7.529  -6.838  0.00  0.00     0.275 HD
ENDBRANCH   1  26
TORSDOF 11
ENDMDL
MODEL 7
REMARK VINA RESULT:      -6.3      2.014      2.760
REMARK  11 active torsions:
REMARK  status: ('A' for Active; 'I' for Inactive)
REMARK    1  A    between atoms: S_1  and  C_2 
REMARK    2  A    between atoms: C_2  and  C_3 
REMARK    3  A    between atoms: C_3  and  C_4 
REMARK    4  A    between atoms: C_3  and  N_7 
REMARK       I    between atoms: N_7  and  C_8 
REMARK    5  A    between atoms: C_8  and  C_9 
REMARK    6  A    between atoms: C_9  and  C_10 
REMARK    7  A    between atoms: C_9  and  N_22 
REMARK    8  A    between atoms: C_10  and  C_11 
REMARK    9  A    between atoms: C_14  and  O_15 
REMARK   10  A    between atoms: O_15  and  P_16 
REMARK   11  A    between atoms: P_16  and  O_17 
ROOT
HETATM    1  C           1     -20.346  -7.570  -4.984  0.00  0.00     0.278 C 
ENDROOT
BRANCH   1   2
HETATM    2  C           1     -20.263  -8.401  -3.727  0.00  0.00     0.249 C 
HETATM    3  N           1     -21.365  -8.546  -2.928  0.00  0.00    -0.344 N 
HETATM    4  H           1     -22.235  -8.095  -3.180  0.00  0.00     0.163 HD
HETATM    5  O           1     -19.223  -8.939  -3.426  0.00  0.00    -0.271 OA
BRANCH   3   6
HETATM    6  C           1     -21.284  -9.343  -1.720  0.00  0.00     0.194 C 
BRANCH   6   7
HETATM    7  C           1     -21.392  -8.436  -0.502  0.00  0.00     0.106 C 
BRANCH   7   8
HETATM    8  S           1     -22.277  -6.917  -0.953  0.00  0.00    -0.180 SA
HETATM    9  H           1     -21.178  -6.166  -1.146  0.00  0.00     0.101 HD
ENDBRANCH   7   8
ENDBRANCH   6   7
BRANCH   6  10
HETATM   10  C           1     -22.414 -10.344  -1.702  0.00  0.00     0.197 C 
HETATM   11  O           1     -22.539 -11.162  -2.639  0.00  0.00    -0.646 OA
HETATM   12  O           1     -23.225 -10.353  -0.751  0.00  0.00    -0.646 OA
ENDBRANCH   6  10
ENDBRANCH   3   6
ENDBRANCH   1   2
BRANCH   1  13
HETATM   13  C           1     -21.055  -6.257  -4.680  0.00  0.00     0.081 C 
BRANCH  13  14
HETATM   14  C           1     -21.159  -5.442  -5.931  0.00  0.00    -0.056 A 
HETATM   15  C           1     -20.001  -4.996  -6.570  0.00  0.00     0.010 A 
HETATM   16  C           1     -20.097  -4.237  -7.736  0.00  0.00     0.038 A 
HETATM   17  C           1     -21.350  -3.924  -8.264  0.00  0.00     0.081 A 
HETATM   18  C           1     -22.507  -4.371  -7.625  0.00  0.00     0.038 A 
HETATM   19  C           1     -22.411  -5.130  -6.459  0.00  0.00     0.010 A 
BRANCH  17  20
HETATM   20  O           1     -21.444  -3.187  -9.397  0.00  0.00    -0.247 OA
BRANCH  20  21
HETATM   21  P           1     -21.409  -3.964 -10.813  0.00  0.00     0.411 P 
HETATM   22  O           1     -20.183  -4.790 -10.891  0.00  0.00    -0.624 OA
HETATM   23  O           1     -22.600  -4.835 -10.925  0.00  0.00    -0.624 OA
BRANCH  21  24
HETATM   24  O           1     -21.412  -2.890 -12.017  0.00  0.00    -0.300 OA
HETATM   25  H           1     -22.314  -2.633 -12.113  0.00  0.00     0.223 HD
ENDBRANCH  21  24
ENDBRANCH  20  21
ENDBRANCH  17  20
ENDBRANCH  13  14
ENDBRANCH   1  13
BRANCH   1  26
HETATM   26  N           1     -21.115  -8.322  -6.030  0.00  0.00    -0.066 N 
HETATM   27  H           1     -20.684  -9.262  -6.172  0.00  0.00     0.275 HD
HETATM   28  H           1     -22.106  -8.436  -5.718  0.00  0.00     0.275 HD
HETATM   29  H           1     -21.092  -7.789  -6.928  0.00  0.00     0.275 HD
ENDBRANCH   1  26
TORSDOF 11
ENDMDL
MODEL 8
REMARK VINA RESULT:      -6.2      1.501      2.115
REMARK  11 active torsions:
REMARK  status: ('A' for Active; 'I' for Inactive)
REMARK    1  A    between atoms: S_1  and  C_2 
REMARK    2  A    between atoms: C_2  and  C_3 
REMARK    3  A    between atoms: C_3  and  C_4 
REMARK    4  A    between atoms: C_3  and  N_7 
REMARK       I    between atoms: N_7  and  C_8 
REMARK    5  A    between atoms: C_8  and  C_9 
REMARK    6  A    between atoms: C_9  and  C_10 
REMARK    7  A    between atoms: C_9  and  N_22 
REMARK    8  A    between atoms: C_10  and  C_11 
REMARK    9  A    between atoms: C_14  and  O_15 
REMARK   10  A    between atoms: O_15  and  P_16 
REMARK   11  A    between atoms: P_16  and  O_17 
ROOT
HETATM    1  C           1     -20.865  -7.510  -5.138  0.00  0.00     0.278 C 
ENDROOT
BRANCH   1   2
HETATM    2  C           1     -20.255  -8.885  -5.018  0.00  0.00     0.249 C 
HETATM    3  N           1     -20.887  -9.965  -5.574  0.00  0.00    -0.344 N 
HETATM    4  H           1     -21.763  -9.841  -6.064  0.00  0.00     0.163 HD
HETATM    5  O           1     -19.209  -9.033  -4.432  0.00  0.00    -0.271 OA
BRANCH   3   6
HETATM    6  C           1     -20.302 -11.285  -5.459  0.00  0.00     0.194 C 
BRANCH   6   7
HETATM    7  C           1     -21.262 -12.206  -4.718  0.00  0.00     0.106 C 
BRANCH   7   8
HETATM    8  S           1     -20.885 -12.176  -2.943  0.00  0.00    -0.180 SA
HETATM    9  H           1     -22.067 -11.664  -2.557  0.00  0.00     0.101 HD
ENDBRANCH   7   8
ENDBRANCH   6   7
BRANCH   6  10
HETATM   10  C           1     -20.037 -11.841  -6.837  0.00  0.00     0.197 C 
HETATM   11  O           1     -18.958 -11.588  -7.416  0.00  0.00    -0.646 OA
HETATM   12  O           1     -20.897 -12.551  -7.400  0.00  0.00    -0.646 OA
ENDBRANCH   6  10
ENDBRANCH   3   6
ENDBRANCH   1   2
BRANCH   1  13
HETATM   13  C           1     -19.936  -6.609  -5.941  0.00  0.00     0.081 C 
BRANCH  13  14
HETATM   14  C           1     -20.746  -5.732  -6.843  0.00  0.00    -0.056 A 
HETATM   15  C           1     -20.227  -5.331  -8.075  0.00  0.00     0.010 A 
HETATM   16  C           1     -20.981  -4.515  -8.917  0.00  0.00     0.038 A 
HETATM   17  C           1     -22.254  -4.098  -8.528  0.00  0.00     0.081 A 
HETATM   18  C           1     -22.773  -4.499  -7.297  0.00  0.00     0.038 A 
HETATM   19  C           1     -22.019  -5.316  -6.455  0.00  0.00     0.010 A 
BRANCH  17  20
HETATM   20  O           1     -22.988  -3.305  -9.346  0.00  0.00    -0.247 OA
BRANCH  20  21
HETATM   21  P           1     -23.747  -3.995 -10.593  0.00  0.00     0.411 P 
HETATM   22  O           1     -24.992  -3.250 -10.884  0.00  0.00    -0.624 OA
HETATM   23  O           1     -22.866  -3.970 -11.781  0.00  0.00    -0.624 OA
BRANCH  21  24
HETATM   24  O           1     -24.109  -5.524 -10.224  0.00  0.00    -0.300 OA
HETATM   25  H           1     -23.692  -5.679  -9.393  0.00  0.00     0.223 HD
ENDBRANCH  21  24
ENDBRANCH  20  21
ENDBRANCH  17  20
ENDBRANCH  13  14
ENDBRANCH   1  13
BRANCH   1  26
HETATM   26  N           1     -21.063  -6.930  -3.768  0.00  0.00    -0.066 N 
HETATM   27  H           1     -20.760  -5.930  -3.766  0.00  0.00     0.275 HD
HETATM   28  H           1     -22.073  -6.989  -3.508  0.00  0.00     0.275 HD
HETATM   29  H           1     -20.493  -7.468  -3.077  0.00  0.00     0.275 HD
ENDBRANCH   1  26
TORSDOF 11
ENDMDL
MODEL 9
REMARK VINA RESULT:      -6.0      1.741      2.139
REMARK  11 active torsions:
REMARK  status: ('A' for Active; 'I' for Inactive)
REMARK    1  A    between atoms: S_1  and  C_2 
REMARK    2  A    between atoms: C_2  and  C_3 
REMARK    3  A    between atoms: C_3  and  C_4 
REMARK    4  A    between atoms: C_3  and  N_7 
REMARK       I    between atoms: N_7  and  C_8 
REMARK    5  A    between atoms: C_8  and  C_9 
REMARK    6  A    between atoms: C_9  and  C_10 
REMARK    7  A    between atoms: C_9  and  N_22 
REMARK    8  A    between atoms: C_10  and  C_11 
REMARK    9  A    between atoms: C_14  and  O_15 
REMARK   10  A    between atoms: O_15  and  P_16 
REMARK   11  A    between atoms: P_16  and  O_17 
ROOT
HETATM    1  C           1     -21.635  -6.413  -4.506  0.00  0.00     0.278 C 
ENDROOT
BRANCH   1   2
HETATM    2  C           1     -21.121  -7.831  -4.492  0.00  0.00     0.249 C 
HETATM    3  N           1     -20.594  -8.357  -3.344  0.00  0.00    -0.344 N 
HETATM    4  H           1     -20.551  -7.795  -2.504  0.00  0.00     0.163 HD
HETATM    5  O           1     -21.173  -8.503  -5.496  0.00  0.00    -0.271 OA
BRANCH   3   6
HETATM    6  C           1     -20.099  -9.719  -3.331  0.00  0.00     0.194 C 
BRANCH   6   7
HETATM    7  C           1     -18.664  -9.735  -2.821  0.00  0.00     0.106 C 
BRANCH   7   8
HETATM    8  S           1     -17.521  -9.832  -4.227  0.00  0.00    -0.180 SA
HETATM    9  H           1     -16.416 -10.053  -3.494  0.00  0.00     0.101 HD
ENDBRANCH   7   8
ENDBRANCH   6   7
BRANCH   6  10
HETATM   10  C           1     -20.964 -10.560  -2.423  0.00  0.00     0.197 C 
HETATM   11  O           1     -22.204 -10.578  -2.581  0.00  0.00    -0.646 OA
HETATM   12  O           1     -20.440 -11.237  -1.513  0.00  0.00    -0.646 OA
ENDBRANCH   6  10
ENDBRANCH   3   6
ENDBRANCH   1   2
BRANCH   1  13
HETATM   13  C           1     -20.494  -5.461  -4.840  0.00  0.00     0.081 C 
BRANCH  13  14
HETATM   14  C           1     -20.512  -5.152  -6.305  0.00  0.00    -0.056 A 
HETATM   15  C           1     -21.631  -5.480  -7.073  0.00  0.00     0.010 A 
HETATM   16  C           1     -21.649  -5.193  -8.437  0.00  0.00     0.038 A 
HETATM   17  C           1     -20.549  -4.577  -9.035  0.00  0.00     0.081 A 
HETATM   18  C           1     -19.431  -4.248  -8.267  0.00  0.00     0.038 A 
HETATM   19  C           1     -19.413  -4.536  -6.903  0.00  0.00     0.010 A 
BRANCH  17  20
HETATM   20  O           1     -20.565  -4.297 -10.360  0.00  0.00    -0.247 OA
BRANCH  20  21
HETATM   21  P           1     -21.895  -3.619 -10.976  0.00  0.00     0.411 P 
HETATM   22  O           1     -22.836  -3.297  -9.880  0.00  0.00    -0.624 OA
HETATM   23  O           1     -21.528  -2.378 -11.694  0.00  0.00    -0.624 OA
BRANCH  21  24
HETATM   24  O           1     -22.598  -4.647 -12.003  0.00  0.00    -0.300 OA
HETATM   25  H           1     -22.165  -4.502 -12.828  0.00  0.00     0.223 HD
ENDBRANCH  21  24
ENDBRANCH  20  21
ENDBRANCH  17  20
ENDBRANCH  13  14
ENDBRANCH   1  13
BRANCH   1  26
HETATM   26  N           1     -22.193  -6.070  -3.156  0.00  0.00    -0.066 N 
HETATM   27  H           1     -22.445  -5.056  -3.130  0.00  0.00     0.275 HD
HETATM   28  H           1     -23.046  -6.646  -2.976  0.00  0.00     0.275 HD
HETATM   29  H           1     -21.476  -6.270  -2.423  0.00  0.00     0.275 HD
ENDBRANCH   1  26
TORSDOF 11
ENDMDL
