MODEL 1
REMARK VINA RESULT:      -7.0      0.000      0.000
REMARK  17 active torsions:
REMARK  status: ('A' for Active; 'I' for Inactive)
REMARK    1  A    between atoms: C_1  and  C_11 
REMARK    2  A    between atoms: C_1  and  C_7 
REMARK    3  A    between atoms: C_1  and  N_23 
REMARK    4  A    between atoms: C_2  and  C_3 
REMARK    5  A    between atoms: C_2  and  C_38 
REMARK    6  A    between atoms: C_2  and  N_12 
REMARK    7  A    between atoms: C_3  and  C_4 
REMARK    8  A    between atoms: C_4  and  N_5 
REMARK    9  A    between atoms: N_5  and  C_16 
REMARK   10  A    between atoms: C_7  and  C_18 
REMARK       I    between atoms: N_8  and  C_9 
REMARK       I    between atoms: C_9  and  N_10 
REMARK       I    between atoms: C_11  and  N_12 
REMARK   11  A    between atoms: C_15  and  C_16 
REMARK   12  A    between atoms: C_16  and  C_17 
REMARK   13  A    between atoms: C_17  and  C_35 
REMARK   14  A    between atoms: C_18  and  C_28 
REMARK       I    between atoms: N_24  and  C_26 
REMARK       I    between atoms: N_25  and  C_26 
REMARK   15  A    between atoms: N_27  and  C_28 
REMARK   16  A    between atoms: N_33  and  C_34 
REMARK   17  A    between atoms: C_34  and  C_35 
ROOT
HETATM    1  C           1     -34.789  -2.929 -16.473  0.00  0.00     0.187 C 
ENDROOT
BRANCH   1   2
HETATM    2  C           1     -33.733  -2.971 -17.569  0.00  0.00     0.066 C 
BRANCH   2   3
HETATM    3  C           1     -32.455  -3.593 -17.021  0.00  0.00     0.273 C 
BRANCH   3   4
HETATM    4  N           1     -31.345  -3.226 -17.858  0.00  0.00     0.098 N 
HETATM    5  H           1     -31.198  -2.218 -17.805  0.00  0.00     0.317 HD
BRANCH   4   6
HETATM    6  C           1     -30.180  -3.908 -17.363  0.00  0.00     0.320 C 
BRANCH   6   7
HETATM    7  C           1     -29.097  -2.901 -17.063  0.00  0.00     0.207 C 
HETATM    8  O           1     -27.977  -3.286 -16.662  0.00  0.00    -0.646 OA
HETATM    9  O           1     -29.322  -1.680 -17.214  0.00  0.00    -0.646 OA
ENDBRANCH   6   7
BRANCH   6  10
HETATM   10  C           1     -29.682  -4.889 -18.417  0.00  0.00     0.048 C 
BRANCH  10  11
HETATM   11  C           1     -30.266  -6.269 -18.142  0.00  0.00     0.023 C 
BRANCH  11  12
HETATM   12  C           1     -29.893  -6.707 -16.732  0.00  0.00     0.138 C 
BRANCH  12  13
HETATM   13  N           1     -28.535  -7.269 -16.736  0.00  0.00    -0.227 N 
HETATM   14  C           1     -27.646  -6.783 -15.976  0.00  0.00     0.665 C 
HETATM   15  N           1     -27.928  -5.813 -15.213  0.00  0.00    -0.235 N 
HETATM   16  N           1     -26.445  -7.279 -15.980  0.00  0.00    -0.235 N 
HETATM   17  H           1     -28.898  -5.412 -15.210  0.00  0.00     0.174 HD
HETATM   18  H           1     -27.191  -5.410 -14.583  0.00  0.00     0.174 HD
HETATM   19  H           1     -26.213  -8.079 -16.611  0.00  0.00     0.174 HD
HETATM   20  H           1     -25.712  -6.878 -15.353  0.00  0.00     0.174 HD
HETATM   21  H           1     -28.301  -8.073 -17.370  0.00  0.00     0.177 HD
ENDBRANCH  12  13
ENDBRANCH  11  12
ENDBRANCH  10  11
ENDBRANCH   6  10
ENDBRANCH   4   6
ENDBRANCH   3   4
ENDBRANCH   2   3
ENDBRANCH   1   2
BRANCH   1  22
HETATM   22  C           1     -34.534  -4.040 -15.484  0.00  0.00     0.196 C 
HETATM   23  O           1     -34.897  -5.206 -15.749  0.00  0.00    -0.646 OA
HETATM   24  O           1     -33.961  -3.794 -14.402  0.00  0.00    -0.646 OA
ENDBRANCH   1  22
BRANCH   1  25
HETATM   25  N           1     -34.725  -1.651 -15.790  0.00  0.00    -0.345 N 
HETATM   26  C           1     -35.683  -0.702 -16.023  0.00  0.00     0.249 C 
HETATM   27  O           1     -36.582  -0.927 -16.798  0.00  0.00    -0.271 OA
HETATM   28  H           1     -33.972  -1.462 -15.140  0.00  0.00     0.163 HD
BRANCH  26  29
HETATM   29  C           1     -35.616   0.628 -15.311  0.00  0.00     0.274 C 
BRANCH  29  30
HETATM   30  C           1     -36.170   0.478 -13.900  0.00  0.00     0.044 C 
BRANCH  30  31
HETATM   31  C           1     -35.019   0.301 -12.919  0.00  0.00     0.023 C 
BRANCH  31  32
HETATM   32  C           1     -35.354  -0.817 -11.940  0.00  0.00     0.138 C 
BRANCH  32  33
HETATM   33  N           1     -34.469  -1.965 -12.185  0.00  0.00    -0.227 N 
HETATM   34  C           1     -33.708  -2.386 -11.265  0.00  0.00     0.665 C 
HETATM   35  N           1     -33.708  -1.801 -10.104  0.00  0.00    -0.235 N 
HETATM   36  N           1     -32.946  -3.374 -11.476  0.00  0.00    -0.235 N 
HETATM   37  H           1     -33.079  -2.148  -9.344  0.00  0.00     0.174 HD
HETATM   38  H           1     -34.336  -0.984  -9.930  0.00  0.00     0.174 HD
HETATM   39  H           1     -32.315  -3.723 -10.713  0.00  0.00     0.174 HD
HETATM   40  H           1     -32.946  -3.846 -12.414  0.00  0.00     0.174 HD
HETATM   41  H           1     -34.469  -2.438 -13.122  0.00  0.00     0.177 HD
ENDBRANCH  32  33
ENDBRANCH  31  32
ENDBRANCH  30  31
ENDBRANCH  29  30
BRANCH  29  42
HETATM   42  N           1     -36.433   1.637 -16.063  0.00  0.00    -0.067 N 
HETATM   43  H           1     -36.346   2.570 -15.600  0.00  0.00     0.275 HD
HETATM   44  H           1     -36.086   1.703 -17.046  0.00  0.00     0.275 HD
HETATM   45  H           1     -37.436   1.342 -16.065  0.00  0.00     0.275 HD
ENDBRANCH  29  42
ENDBRANCH  26  29
ENDBRANCH   1  25
TORSDOF 17
ENDMDL
MODEL 2
REMARK VINA RESULT:      -6.8      1.542      8.062
REMARK  17 active torsions:
REMARK  status: ('A' for Active; 'I' for Inactive)
REMARK    1  A    between atoms: C_1  and  C_11 
REMARK    2  A    between atoms: C_1  and  C_7 
REMARK    3  A    between atoms: C_1  and  N_23 
REMARK    4  A    between atoms: C_2  and  C_3 
REMARK    5  A    between atoms: C_2  and  C_38 
REMARK    6  A    between atoms: C_2  and  N_12 
REMARK    7  A    between atoms: C_3  and  C_4 
REMARK    8  A    between atoms: C_4  and  N_5 
REMARK    9  A    between atoms: N_5  and  C_16 
REMARK   10  A    between atoms: C_7  and  C_18 
REMARK       I    between atoms: N_8  and  C_9 
REMARK       I    between atoms: C_9  and  N_10 
REMARK       I    between atoms: C_11  and  N_12 
REMARK   11  A    between atoms: C_15  and  C_16 
REMARK   12  A    between atoms: C_16  and  C_17 
REMARK   13  A    between atoms: C_17  and  C_35 
REMARK   14  A    between atoms: C_18  and  C_28 
REMARK       I    between atoms: N_24  and  C_26 
REMARK       I    between atoms: N_25  and  C_26 
REMARK   15  A    between atoms: N_27  and  C_28 
REMARK   16  A    between atoms: N_33  and  C_34 
REMARK   17  A    between atoms: C_34  and  C_35 
ROOT
HETATM    1  C           1     -33.474  -3.601 -15.936  0.00  0.00     0.187 C 
ENDROOT
BRANCH   1   2
HETATM    2  C           1     -34.153  -3.019 -17.168  0.00  0.00     0.066 C 
BRANCH   2   3
HETATM    3  C           1     -35.307  -2.123 -16.737  0.00  0.00     0.273 C 
BRANCH   3   4
HETATM    4  N           1     -34.800  -1.032 -15.950  0.00  0.00     0.098 N 
HETATM    5  H           1     -34.502  -0.276 -16.568  0.00  0.00     0.317 HD
BRANCH   4   6
HETATM    6  C           1     -35.868  -0.569 -15.106  0.00  0.00     0.320 C 
BRANCH   6   7
HETATM    7  C           1     -36.577   0.581 -15.778  0.00  0.00     0.207 C 
HETATM    8  O           1     -35.976   1.659 -15.973  0.00  0.00    -0.646 OA
HETATM    9  O           1     -37.768   0.454 -16.138  0.00  0.00    -0.646 OA
ENDBRANCH   6   7
BRANCH   6  10
HETATM   10  C           1     -35.294  -0.103 -13.774  0.00  0.00     0.048 C 
BRANCH  10  11
HETATM   11  C           1     -36.311  -0.353 -12.667  0.00  0.00     0.023 C 
BRANCH  11  12
HETATM   12  C           1     -35.599  -0.900 -11.437  0.00  0.00     0.138 C 
BRANCH  12  13
HETATM   13  N           1     -34.697  -1.990 -11.837  0.00  0.00    -0.227 N 
HETATM   14  C           1     -33.737  -2.327 -11.082  0.00  0.00     0.665 C 
HETATM   15  N           1     -33.556  -1.726  -9.983  0.00  0.00    -0.235 N 
HETATM   16  N           1     -32.940  -3.291 -11.436  0.00  0.00    -0.235 N 
HETATM   17  H           1     -34.200  -0.948  -9.697  0.00  0.00     0.174 HD
HETATM   18  H           1     -32.761  -2.006  -9.357  0.00  0.00     0.174 HD
HETATM   19  H           1     -33.090  -3.787 -12.343  0.00  0.00     0.174 HD
HETATM   20  H           1     -32.149  -3.569 -10.812  0.00  0.00     0.174 HD
HETATM   21  H           1     -34.847  -2.489 -12.748  0.00  0.00     0.177 HD
ENDBRANCH  12  13
ENDBRANCH  11  12
ENDBRANCH  10  11
ENDBRANCH   6  10
ENDBRANCH   4   6
ENDBRANCH   3   4
ENDBRANCH   2   3
ENDBRANCH   1   2
BRANCH   1  22
HETATM   22  C           1     -34.491  -4.338 -15.100  0.00  0.00     0.196 C 
HETATM   23  O           1     -34.620  -4.064 -13.887  0.00  0.00    -0.646 OA
HETATM   24  O           1     -35.206  -5.222 -15.620  0.00  0.00    -0.646 OA
ENDBRANCH   1  22
BRANCH   1  25
HETATM   25  N           1     -32.430  -4.520 -16.347  0.00  0.00    -0.345 N 
HETATM   26  C           1     -31.394  -4.076 -17.122  0.00  0.00     0.249 C 
HETATM   27  O           1     -31.347  -2.919 -17.465  0.00  0.00    -0.271 OA
HETATM   28  H           1     -32.469  -5.490 -16.060  0.00  0.00     0.163 HD
BRANCH  26  29
HETATM   29  C           1     -30.308  -5.033 -17.550  0.00  0.00     0.274 C 
BRANCH  29  30
HETATM   30  C           1     -29.563  -5.539 -16.321  0.00  0.00     0.044 C 
BRANCH  30  31
HETATM   31  C           1     -28.068  -5.312 -16.503  0.00  0.00     0.023 C 
BRANCH  31  32
HETATM   32  C           1     -27.303  -6.523 -15.984  0.00  0.00     0.138 C 
BRANCH  32  33
HETATM   33  N           1     -26.246  -6.882 -16.940  0.00  0.00    -0.227 N 
HETATM   34  C           1     -25.057  -7.044 -16.538  0.00  0.00     0.665 C 
HETATM   35  N           1     -24.770  -6.889 -15.279  0.00  0.00    -0.235 N 
HETATM   36  N           1     -24.147  -7.354 -17.360  0.00  0.00    -0.235 N 
HETATM   37  H           1     -23.788  -7.022 -14.947  0.00  0.00     0.174 HD
HETATM   38  H           1     -25.521  -6.633 -14.599  0.00  0.00     0.174 HD
HETATM   39  H           1     -23.160  -7.488 -17.027  0.00  0.00     0.174 HD
HETATM   40  H           1     -24.378  -7.478 -18.378  0.00  0.00     0.174 HD
HETATM   41  H           1     -26.478  -7.007 -17.956  0.00  0.00     0.177 HD
ENDBRANCH  32  33
ENDBRANCH  31  32
ENDBRANCH  30  31
ENDBRANCH  29  30
BRANCH  29  42
HETATM   42  N           1     -29.347  -4.324 -18.458  0.00  0.00    -0.067 N 
HETATM   43  H           1     -29.876  -3.691 -19.099  0.00  0.00     0.275 HD
HETATM   44  H           1     -28.678  -3.761 -17.886  0.00  0.00     0.275 HD
HETATM   45  H           1     -28.818  -5.027 -19.022  0.00  0.00     0.275 HD
ENDBRANCH  29  42
ENDBRANCH  26  29
ENDBRANCH   1  25
TORSDOF 17
ENDMDL
MODEL 3
REMARK VINA RESULT:      -6.7     14.053     17.709
REMARK  17 active torsions:
REMARK  status: ('A' for Active; 'I' for Inactive)
REMARK    1  A    between atoms: C_1  and  C_11 
REMARK    2  A    between atoms: C_1  and  C_7 
REMARK    3  A    between atoms: C_1  and  N_23 
REMARK    4  A    between atoms: C_2  and  C_3 
REMARK    5  A    between atoms: C_2  and  C_38 
REMARK    6  A    between atoms: C_2  and  N_12 
REMARK    7  A    between atoms: C_3  and  C_4 
REMARK    8  A    between atoms: C_4  and  N_5 
REMARK    9  A    between atoms: N_5  and  C_16 
REMARK   10  A    between atoms: C_7  and  C_18 
REMARK       I    between atoms: N_8  and  C_9 
REMARK       I    between atoms: C_9  and  N_10 
REMARK       I    between atoms: C_11  and  N_12 
REMARK   11  A    between atoms: C_15  and  C_16 
REMARK   12  A    between atoms: C_16  and  C_17 
REMARK   13  A    between atoms: C_17  and  C_35 
REMARK   14  A    between atoms: C_18  and  C_28 
REMARK       I    between atoms: N_24  and  C_26 
REMARK       I    between atoms: N_25  and  C_26 
REMARK   15  A    between atoms: N_27  and  C_28 
REMARK   16  A    between atoms: N_33  and  C_34 
REMARK   17  A    between atoms: C_34  and  C_35 
ROOT
HETATM    1  C           1     -20.719 -10.742  -5.299  0.00  0.00     0.187 C 
ENDROOT
BRANCH   1   2
HETATM    2  C           1     -19.305 -10.201  -5.136  0.00  0.00     0.066 C 
BRANCH   2   3
HETATM    3  C           1     -19.361  -8.697  -4.894  0.00  0.00     0.273 C 
BRANCH   3   4
HETATM    4  N           1     -20.600  -8.175  -5.405  0.00  0.00     0.098 N 
HETATM    5  H           1     -21.376  -8.534  -4.848  0.00  0.00     0.317 HD
BRANCH   4   6
HETATM    6  C           1     -20.550  -6.742  -5.291  0.00  0.00     0.320 C 
BRANCH   6   7
HETATM    7  C           1     -21.816  -6.246  -4.636  0.00  0.00     0.207 C 
HETATM    8  O           1     -22.834  -6.028  -5.328  0.00  0.00    -0.646 OA
HETATM    9  O           1     -21.845  -6.051  -3.402  0.00  0.00    -0.646 OA
ENDBRANCH   6   7
BRANCH   6  10
HETATM   10  C           1     -20.422  -6.129  -6.679  0.00  0.00     0.048 C 
BRANCH  10  11
HETATM   11  C           1     -19.842  -4.725  -6.562  0.00  0.00     0.023 C 
BRANCH  11  12
HETATM   12  C           1     -20.511  -3.812  -7.582  0.00  0.00     0.138 C 
BRANCH  12  13
HETATM   13  N           1     -21.968  -3.853  -7.396  0.00  0.00    -0.227 N 
HETATM   14  C           1     -22.732  -3.953  -8.401  0.00  0.00     0.665 C 
HETATM   15  N           1     -22.241  -4.017  -9.566  0.00  0.00    -0.235 N 
HETATM   16  N           1     -24.021  -3.990  -8.237  0.00  0.00    -0.235 N 
HETATM   17  H           1     -21.199  -3.987  -9.699  0.00  0.00     0.174 HD
HETATM   18  H           1     -22.874  -4.099 -10.399  0.00  0.00     0.174 HD
HETATM   19  H           1     -24.426  -3.937  -7.275  0.00  0.00     0.174 HD
HETATM   20  H           1     -24.651  -4.072  -9.066  0.00  0.00     0.174 HD
HETATM   21  H           1     -22.376  -3.801  -6.430  0.00  0.00     0.177 HD
ENDBRANCH  12  13
ENDBRANCH  11  12
ENDBRANCH  10  11
ENDBRANCH   6  10
ENDBRANCH   4   6
ENDBRANCH   3   4
ENDBRANCH   2   3
ENDBRANCH   1   2
BRANCH   1  22
HETATM   22  C           1     -20.770 -11.667  -6.491  0.00  0.00     0.196 C 
HETATM   23  O           1     -21.817 -12.301  -6.744  0.00  0.00    -0.646 OA
HETATM   24  O           1     -19.767 -11.798  -7.224  0.00  0.00    -0.646 OA
ENDBRANCH   1  22
BRANCH   1  25
HETATM   25  N           1     -21.097 -11.472  -4.105  0.00  0.00    -0.345 N 
HETATM   26  C           1     -21.912 -10.887  -3.174  0.00  0.00     0.249 C 
HETATM   27  O           1     -22.316  -9.762  -3.346  0.00  0.00    -0.271 OA
HETATM   28  H           1     -20.759 -12.416  -3.961  0.00  0.00     0.163 HD
BRANCH  26  29
HETATM   29  C           1     -22.306 -11.648  -1.932  0.00  0.00     0.274 C 
BRANCH  29  30
HETATM   30  C           1     -21.124 -11.704  -0.973  0.00  0.00     0.044 C 
BRANCH  30  31
HETATM   31  C           1     -21.558 -11.202   0.398  0.00  0.00     0.023 C 
BRANCH  31  32
HETATM   32  C           1     -20.906  -9.853   0.675  0.00  0.00     0.138 C 
BRANCH  32  33
HETATM   33  N           1     -21.886  -8.780   0.455  0.00  0.00    -0.227 N 
HETATM   34  C           1     -21.719  -7.955  -0.490  0.00  0.00     0.665 C 
HETATM   35  N           1     -20.679  -8.055  -1.264  0.00  0.00    -0.235 N 
HETATM   36  N           1     -22.563  -7.031  -0.680  0.00  0.00    -0.235 N 
HETATM   37  H           1     -20.541  -7.373  -2.044  0.00  0.00     0.174 HD
HETATM   38  H           1     -19.982  -8.817  -1.106  0.00  0.00     0.174 HD
HETATM   39  H           1     -22.424  -6.346  -1.464  0.00  0.00     0.174 HD
HETATM   40  H           1     -23.402  -6.950  -0.054  0.00  0.00     0.174 HD
HETATM   41  H           1     -22.726  -8.700   1.080  0.00  0.00     0.177 HD
ENDBRANCH  32  33
ENDBRANCH  31  32
ENDBRANCH  30  31
ENDBRANCH  29  30
BRANCH  29  42
HETATM   42  N           1     -22.708 -13.044  -2.308  0.00  0.00    -0.067 N 
HETATM   43  H           1     -21.853 -13.621  -2.472  0.00  0.00     0.275 HD
HETATM   44  H           1     -23.269 -13.465  -1.534  0.00  0.00     0.275 HD
HETATM   45  H           1     -23.282 -13.018  -3.181  0.00  0.00     0.275 HD
ENDBRANCH  29  42
ENDBRANCH  26  29
ENDBRANCH   1  25
TORSDOF 17
ENDMDL
MODEL 4
REMARK VINA RESULT:      -6.6     14.061     18.065
REMARK  17 active torsions:
REMARK  status: ('A' for Active; 'I' for Inactive)
REMARK    1  A    between atoms: C_1  and  C_11 
REMARK    2  A    between atoms: C_1  and  C_7 
REMARK    3  A    between atoms: C_1  and  N_23 
REMARK    4  A    between atoms: C_2  and  C_3 
REMARK    5  A    between atoms: C_2  and  C_38 
REMARK    6  A    between atoms: C_2  and  N_12 
REMARK    7  A    between atoms: C_3  and  C_4 
REMARK    8  A    between atoms: C_4  and  N_5 
REMARK    9  A    between atoms: N_5  and  C_16 
REMARK   10  A    between atoms: C_7  and  C_18 
REMARK       I    between atoms: N_8  and  C_9 
REMARK       I    between atoms: C_9  and  N_10 
REMARK       I    between atoms: C_11  and  N_12 
REMARK   11  A    between atoms: C_15  and  C_16 
REMARK   12  A    between atoms: C_16  and  C_17 
REMARK   13  A    between atoms: C_17  and  C_35 
REMARK   14  A    between atoms: C_18  and  C_28 
REMARK       I    between atoms: N_24  and  C_26 
REMARK       I    between atoms: N_25  and  C_26 
REMARK   15  A    between atoms: N_27  and  C_28 
REMARK   16  A    between atoms: N_33  and  C_34 
REMARK   17  A    between atoms: C_34  and  C_35 
ROOT
HETATM    1  C           1     -21.541  -7.971  -0.988  0.00  0.00     0.187 C 
ENDROOT
BRANCH   1   2
HETATM    2  C           1     -22.116  -6.683  -1.562  0.00  0.00     0.066 C 
BRANCH   2   3
HETATM    3  C           1     -21.407  -6.347  -2.868  0.00  0.00     0.273 C 
BRANCH   3   4
HETATM    4  N           1     -22.372  -6.265  -3.931  0.00  0.00     0.098 N 
HETATM    5  H           1     -22.896  -5.393  -3.847  0.00  0.00     0.317 HD
BRANCH   4   6
HETATM    6  C           1     -21.653  -6.276  -5.176  0.00  0.00     0.320 C 
BRANCH   6   7
HETATM    7  C           1     -21.003  -7.624  -5.367  0.00  0.00     0.207 C 
HETATM    8  O           1     -21.591  -8.662  -4.992  0.00  0.00    -0.646 OA
HETATM    9  O           1     -19.875  -7.703  -5.900  0.00  0.00    -0.646 OA
ENDBRANCH   6   7
BRANCH   6  10
HETATM   10  C           1     -20.580  -5.194  -5.150  0.00  0.00     0.048 C 
BRANCH  10  11
HETATM   11  C           1     -20.647  -4.382  -6.437  0.00  0.00     0.023 C 
BRANCH  11  12
HETATM   12  C           1     -22.025  -4.541  -7.067  0.00  0.00     0.138 C 
BRANCH  12  13
HETATM   13  N           1     -21.958  -4.180  -8.490  0.00  0.00    -0.227 N 
HETATM   14  C           1     -23.011  -3.845  -9.109  0.00  0.00     0.665 C 
HETATM   15  N           1     -24.121  -3.820  -8.501  0.00  0.00    -0.235 N 
HETATM   16  N           1     -22.951  -3.525 -10.368  0.00  0.00    -0.235 N 
HETATM   17  H           1     -24.169  -4.078  -7.485  0.00  0.00     0.174 HD
HETATM   18  H           1     -24.993  -3.542  -9.014  0.00  0.00     0.174 HD
HETATM   19  H           1     -22.034  -3.545 -10.868  0.00  0.00     0.174 HD
HETATM   20  H           1     -23.820  -3.248 -10.878  0.00  0.00     0.174 HD
HETATM   21  H           1     -21.037  -4.200  -8.994  0.00  0.00     0.177 HD
ENDBRANCH  12  13
ENDBRANCH  11  12
ENDBRANCH  10  11
ENDBRANCH   6  10
ENDBRANCH   4   6
ENDBRANCH   3   4
ENDBRANCH   2   3
ENDBRANCH   1   2
BRANCH   1  22
HETATM   22  C           1     -21.955  -8.108   0.457  0.00  0.00     0.196 C 
HETATM   23  O           1     -23.152  -7.956   0.780  0.00  0.00    -0.646 OA
HETATM   24  O           1     -21.101  -8.374   1.330  0.00  0.00    -0.646 OA
ENDBRANCH   1  22
BRANCH   1  25
HETATM   25  N           1     -22.042  -9.103  -1.742  0.00  0.00    -0.345 N 
HETATM   26  C           1     -21.272 -10.224  -1.888  0.00  0.00     0.249 C 
HETATM   27  O           1     -20.173 -10.272  -1.389  0.00  0.00    -0.271 OA
HETATM   28  H           1     -22.964  -9.064  -2.161  0.00  0.00     0.163 HD
BRANCH  26  29
HETATM   29  C           1     -21.795 -11.402  -2.674  0.00  0.00     0.274 C 
BRANCH  29  30
HETATM   30  C           1     -20.675 -11.982  -3.527  0.00  0.00     0.044 C 
BRANCH  30  31
HETATM   31  C           1     -21.137 -12.080  -4.975  0.00  0.00     0.023 C 
BRANCH  31  32
HETATM   32  C           1     -19.924 -12.214  -5.887  0.00  0.00     0.138 C 
BRANCH  32  33
HETATM   33  N           1     -19.417 -10.877  -6.228  0.00  0.00    -0.227 N 
HETATM   34  C           1     -18.185 -10.615  -6.095  0.00  0.00     0.665 C 
HETATM   35  N           1     -17.370 -11.527  -5.654  0.00  0.00    -0.235 N 
HETATM   36  N           1     -17.748  -9.464  -6.388  0.00  0.00    -0.235 N 
HETATM   37  H           1     -16.354 -11.311  -5.544  0.00  0.00     0.174 HD
HETATM   38  H           1     -17.732 -12.477  -5.412  0.00  0.00     0.174 HD
HETATM   39  H           1     -16.727  -9.246  -6.278  0.00  0.00     0.174 HD
HETATM   40  H           1     -18.406  -8.727  -6.743  0.00  0.00     0.174 HD
HETATM   41  H           1     -20.074 -10.141  -6.584  0.00  0.00     0.177 HD
ENDBRANCH  32  33
ENDBRANCH  31  32
ENDBRANCH  30  31
ENDBRANCH  29  30
BRANCH  29  42
HETATM   42  N           1     -22.916 -10.951  -3.562  0.00  0.00    -0.067 N 
HETATM   43  H           1     -23.288 -10.037  -3.218  0.00  0.00     0.275 HD
HETATM   44  H           1     -22.562 -10.837  -4.539  0.00  0.00     0.275 HD
HETATM   45  H           1     -23.680 -11.664  -3.549  0.00  0.00     0.275 HD
ENDBRANCH  29  42
ENDBRANCH  26  29
ENDBRANCH   1  25
TORSDOF 17
ENDMDL
MODEL 5
REMARK VINA RESULT:      -6.5     14.854     18.472
REMARK  17 active torsions:
REMARK  status: ('A' for Active; 'I' for Inactive)
REMARK    1  A    between atoms: C_1  and  C_11 
REMARK    2  A    between atoms: C_1  and  C_7 
REMARK    3  A    between atoms: C_1  and  N_23 
REMARK    4  A    between atoms: C_2  and  C_3 
REMARK    5  A    between atoms: C_2  and  C_38 
REMARK    6  A    between atoms: C_2  and  N_12 
REMARK    7  A    between atoms: C_3  and  C_4 
REMARK    8  A    between atoms: C_4  and  N_5 
REMARK    9  A    between atoms: N_5  and  C_16 
REMARK   10  A    between atoms: C_7  and  C_18 
REMARK       I    between atoms: N_8  and  C_9 
REMARK       I    between atoms: C_9  and  N_10 
REMARK       I    between atoms: C_11  and  N_12 
REMARK   11  A    between atoms: C_15  and  C_16 
REMARK   12  A    between atoms: C_16  and  C_17 
REMARK   13  A    between atoms: C_17  and  C_35 
REMARK   14  A    between atoms: C_18  and  C_28 
REMARK       I    between atoms: N_24  and  C_26 
REMARK       I    between atoms: N_25  and  C_26 
REMARK   15  A    between atoms: N_27  and  C_28 
REMARK   16  A    between atoms: N_33  and  C_34 
REMARK   17  A    between atoms: C_34  and  C_35 
ROOT
HETATM    1  C           1     -19.189  -9.591  -3.214  0.00  0.00     0.187 C 
ENDROOT
BRANCH   1   2
HETATM    2  C           1     -19.110  -8.644  -4.402  0.00  0.00     0.066 C 
BRANCH   2   3
HETATM    3  C           1     -20.026  -9.143  -5.513  0.00  0.00     0.273 C 
BRANCH   3   4
HETATM    4  N           1     -21.261  -8.407  -5.483  0.00  0.00     0.098 N 
HETATM    5  H           1     -21.808  -8.693  -4.671  0.00  0.00     0.317 HD
BRANCH   4   6
HETATM    6  C           1     -20.935  -7.011  -5.375  0.00  0.00     0.320 C 
BRANCH   6   7
HETATM    7  C           1     -22.010  -6.303  -4.587  0.00  0.00     0.207 C 
HETATM    8  O           1     -23.117  -6.062  -5.115  0.00  0.00    -0.646 OA
HETATM    9  O           1     -21.792  -5.958  -3.405  0.00  0.00    -0.646 OA
ENDBRANCH   6   7
BRANCH   6  10
HETATM   10  C           1     -20.844  -6.403  -6.769  0.00  0.00     0.048 C 
BRANCH  10  11
HETATM   11  C           1     -19.882  -5.222  -6.746  0.00  0.00     0.023 C 
BRANCH  11  12
HETATM   12  C           1     -20.502  -4.046  -7.489  0.00  0.00     0.138 C 
BRANCH  12  13
HETATM   13  N           1     -21.966  -4.105  -7.365  0.00  0.00    -0.227 N 
HETATM   14  C           1     -22.695  -3.947  -8.389  0.00  0.00     0.665 C 
HETATM   15  N           1     -22.163  -3.738  -9.518  0.00  0.00    -0.235 N 
HETATM   16  N           1     -23.989  -3.999  -8.279  0.00  0.00    -0.235 N 
HETATM   17  H           1     -21.117  -3.696  -9.607  0.00  0.00     0.174 HD
HETATM   18  H           1     -22.767  -3.607 -10.366  0.00  0.00     0.174 HD
HETATM   19  H           1     -24.427  -4.172  -7.347  0.00  0.00     0.174 HD
HETATM   20  H           1     -24.590  -3.869  -9.124  0.00  0.00     0.174 HD
HETATM   21  H           1     -22.407  -4.278  -6.428  0.00  0.00     0.177 HD
ENDBRANCH  12  13
ENDBRANCH  11  12
ENDBRANCH  10  11
ENDBRANCH   6  10
ENDBRANCH   4   6
ENDBRANCH   3   4
ENDBRANCH   2   3
ENDBRANCH   1   2
BRANCH   1  22
HETATM   22  C           1     -17.829 -10.193  -2.956  0.00  0.00     0.196 C 
HETATM   23  O           1     -16.895  -9.991  -3.761  0.00  0.00    -0.646 OA
HETATM   24  O           1     -17.637 -10.891  -1.938  0.00  0.00    -0.646 OA
ENDBRANCH   1  22
BRANCH   1  25
HETATM   25  N           1     -19.623  -8.859  -2.040  0.00  0.00    -0.345 N 
HETATM   26  C           1     -20.953  -8.801  -1.722  0.00  0.00     0.249 C 
HETATM   27  O           1     -21.766  -9.360  -2.418  0.00  0.00    -0.271 OA
HETATM   28  H           1     -18.942  -8.391  -1.455  0.00  0.00     0.163 HD
BRANCH  26  29
HETATM   29  C           1     -21.404  -8.038  -0.499  0.00  0.00     0.274 C 
BRANCH  29  30
HETATM   30  C           1     -21.951  -9.013   0.535  0.00  0.00     0.044 C 
BRANCH  30  31
HETATM   31  C           1     -20.828  -9.916   1.028  0.00  0.00     0.023 C 
BRANCH  31  32
HETATM   32  C           1     -21.208 -11.373   0.794  0.00  0.00     0.138 C 
BRANCH  32  33
HETATM   33  N           1     -20.262 -11.981  -0.152  0.00  0.00    -0.227 N 
HETATM   34  C           1     -20.678 -12.439  -1.257  0.00  0.00     0.665 C 
HETATM   35  N           1     -21.943 -12.374  -1.552  0.00  0.00    -0.235 N 
HETATM   36  N           1     -19.864 -12.962  -2.072  0.00  0.00    -0.235 N 
HETATM   37  H           1     -22.286 -12.753  -2.463  0.00  0.00     0.174 HD
HETATM   38  H           1     -22.615 -11.943  -0.878  0.00  0.00     0.174 HD
HETATM   39  H           1     -20.209 -13.342  -2.988  0.00  0.00     0.174 HD
HETATM   40  H           1     -18.842 -13.015  -1.833  0.00  0.00     0.174 HD
HETATM   41  H           1     -19.241 -12.033   0.086  0.00  0.00     0.177 HD
ENDBRANCH  32  33
ENDBRANCH  31  32
ENDBRANCH  30  31
ENDBRANCH  29  30
BRANCH  29  42
HETATM   42  N           1     -22.479  -7.066  -0.886  0.00  0.00    -0.067 N 
HETATM   43  H           1     -23.106  -6.897  -0.068  0.00  0.00     0.275 HD
HETATM   44  H           1     -22.042  -6.164  -1.181  0.00  0.00     0.275 HD
HETATM   45  H           1     -23.036  -7.460  -1.677  0.00  0.00     0.275 HD
ENDBRANCH  29  42
ENDBRANCH  26  29
ENDBRANCH   1  25
TORSDOF 17
ENDMDL
MODEL 6
REMARK VINA RESULT:      -6.5     14.671     18.145
REMARK  17 active torsions:
REMARK  status: ('A' for Active; 'I' for Inactive)
REMARK    1  A    between atoms: C_1  and  C_11 
REMARK    2  A    between atoms: C_1  and  C_7 
REMARK    3  A    between atoms: C_1  and  N_23 
REMARK    4  A    between atoms: C_2  and  C_3 
REMARK    5  A    between atoms: C_2  and  C_38 
REMARK    6  A    between atoms: C_2  and  N_12 
REMARK    7  A    between atoms: C_3  and  C_4 
REMARK    8  A    between atoms: C_4  and  N_5 
REMARK    9  A    between atoms: N_5  and  C_16 
REMARK   10  A    between atoms: C_7  and  C_18 
REMARK       I    between atoms: N_8  and  C_9 
REMARK       I    between atoms: C_9  and  N_10 
REMARK       I    between atoms: C_11  and  N_12 
REMARK   11  A    between atoms: C_15  and  C_16 
REMARK   12  A    between atoms: C_16  and  C_17 
REMARK   13  A    between atoms: C_17  and  C_35 
REMARK   14  A    between atoms: C_18  and  C_28 
REMARK       I    between atoms: N_24  and  C_26 
REMARK       I    between atoms: N_25  and  C_26 
REMARK   15  A    between atoms: N_27  and  C_28 
REMARK   16  A    between atoms: N_33  and  C_34 
REMARK   17  A    between atoms: C_34  and  C_35 
ROOT
HETATM    1  C           1     -20.000  -8.896  -4.375  0.00  0.00     0.187 C 
ENDROOT
BRANCH   1   2
HETATM    2  C           1     -21.234  -9.758  -4.602  0.00  0.00     0.066 C 
BRANCH   2   3
HETATM    3  C           1     -22.024  -9.867  -3.304  0.00  0.00     0.273 C 
BRANCH   3   4
HETATM    4  N           1     -21.799  -8.693  -2.504  0.00  0.00     0.098 N 
HETATM    5  H           1     -22.463  -7.966  -2.772  0.00  0.00     0.317 HD
BRANCH   4   6
HETATM    6  C           1     -22.010  -9.054  -1.129  0.00  0.00     0.320 C 
BRANCH   6   7
HETATM    7  C           1     -22.256  -7.807  -0.315  0.00  0.00     0.207 C 
HETATM    8  O           1     -22.634  -6.757  -0.877  0.00  0.00    -0.646 OA
HETATM    9  O           1     -22.081  -7.826   0.923  0.00  0.00    -0.646 OA
ENDBRANCH   6   7
BRANCH   6  10
HETATM   10  C           1     -20.775  -9.771  -0.598  0.00  0.00     0.048 C 
BRANCH  10  11
HETATM   11  C           1     -21.193 -11.074   0.070  0.00  0.00     0.023 C 
BRANCH  11  12
HETATM   12  C           1     -19.957 -11.919   0.354  0.00  0.00     0.138 C 
BRANCH  12  13
HETATM   13  N           1     -18.960 -11.701  -0.704  0.00  0.00    -0.227 N 
HETATM   14  C           1     -17.725 -11.769  -0.434  0.00  0.00     0.665 C 
HETATM   15  N           1     -17.348 -12.025   0.747  0.00  0.00    -0.235 N 
HETATM   16  N           1     -16.844 -11.577  -1.370  0.00  0.00    -0.235 N 
HETATM   17  H           1     -18.060 -12.180   1.503  0.00  0.00     0.174 HD
HETATM   18  H           1     -16.324 -12.081   0.970  0.00  0.00     0.174 HD
HETATM   19  H           1     -17.155 -11.366  -2.345  0.00  0.00     0.174 HD
HETATM   20  H           1     -15.824 -11.633  -1.147  0.00  0.00     0.174 HD
HETATM   21  H           1     -19.273 -11.489  -1.684  0.00  0.00     0.177 HD
ENDBRANCH  12  13
ENDBRANCH  11  12
ENDBRANCH  10  11
ENDBRANCH   6  10
ENDBRANCH   4   6
ENDBRANCH   3   4
ENDBRANCH   2   3
ENDBRANCH   1   2
BRANCH   1  22
HETATM   22  C           1     -18.765  -9.763  -4.413  0.00  0.00     0.196 C 
HETATM   23  O           1     -18.681 -10.763  -3.668  0.00  0.00    -0.646 OA
HETATM   24  O           1     -17.828  -9.482  -5.190  0.00  0.00    -0.646 OA
ENDBRANCH   1  22
BRANCH   1  25
HETATM   25  N           1     -19.915  -7.890  -5.415  0.00  0.00    -0.345 N 
HETATM   26  C           1     -20.469  -6.654  -5.219  0.00  0.00     0.249 C 
HETATM   27  O           1     -21.030  -6.401  -4.179  0.00  0.00    -0.271 OA
HETATM   28  H           1     -19.444  -8.101  -6.286  0.00  0.00     0.163 HD
BRANCH  26  29
HETATM   29  C           1     -20.380  -5.606  -6.302  0.00  0.00     0.274 C 
BRANCH  29  30
HETATM   30  C           1     -21.779  -5.117  -6.653  0.00  0.00     0.044 C 
BRANCH  30  31
HETATM   31  C           1     -21.685  -3.765  -7.348  0.00  0.00     0.023 C 
BRANCH  31  32
HETATM   32  C           1     -22.237  -3.882  -8.763  0.00  0.00     0.138 C 
BRANCH  32  33
HETATM   33  N           1     -23.660  -3.516  -8.767  0.00  0.00    -0.227 N 
HETATM   34  C           1     -24.407  -3.890  -9.718  0.00  0.00     0.665 C 
HETATM   35  N           1     -23.915  -4.595 -10.693  0.00  0.00    -0.235 N 
HETATM   36  N           1     -25.633  -3.575  -9.721  0.00  0.00    -0.235 N 
HETATM   37  H           1     -24.531  -4.902 -11.479  0.00  0.00     0.174 HD
HETATM   38  H           1     -22.902  -4.854 -10.691  0.00  0.00     0.174 HD
HETATM   39  H           1     -26.253  -3.884 -10.511  0.00  0.00     0.174 HD
HETATM   40  H           1     -26.031  -3.004  -8.934  0.00  0.00     0.174 HD
HETATM   41  H           1     -24.058  -2.947  -7.980  0.00  0.00     0.177 HD
ENDBRANCH  32  33
ENDBRANCH  31  32
ENDBRANCH  30  31
ENDBRANCH  29  30
BRANCH  29  42
HETATM   42  N           1     -19.740  -6.202  -7.521  0.00  0.00    -0.067 N 
HETATM   43  H           1     -19.679  -7.240  -7.411  0.00  0.00     0.275 HD
HETATM   44  H           1     -20.317  -5.976  -8.362  0.00  0.00     0.275 HD
HETATM   45  H           1     -18.780  -5.808  -7.639  0.00  0.00     0.275 HD
ENDBRANCH  29  42
ENDBRANCH  26  29
ENDBRANCH   1  25
TORSDOF 17
ENDMDL
MODEL 7
REMARK VINA RESULT:      -6.5     14.087     17.563
REMARK  17 active torsions:
REMARK  status: ('A' for Active; 'I' for Inactive)
REMARK    1  A    between atoms: C_1  and  C_11 
REMARK    2  A    between atoms: C_1  and  C_7 
REMARK    3  A    between atoms: C_1  and  N_23 
REMARK    4  A    between atoms: C_2  and  C_3 
REMARK    5  A    between atoms: C_2  and  C_38 
REMARK    6  A    between atoms: C_2  and  N_12 
REMARK    7  A    between atoms: C_3  and  C_4 
REMARK    8  A    between atoms: C_4  and  N_5 
REMARK    9  A    between atoms: N_5  and  C_16 
REMARK   10  A    between atoms: C_7  and  C_18 
REMARK       I    between atoms: N_8  and  C_9 
REMARK       I    between atoms: C_9  and  N_10 
REMARK       I    between atoms: C_11  and  N_12 
REMARK   11  A    between atoms: C_15  and  C_16 
REMARK   12  A    between atoms: C_16  and  C_17 
REMARK   13  A    between atoms: C_17  and  C_35 
REMARK   14  A    between atoms: C_18  and  C_28 
REMARK       I    between atoms: N_24  and  C_26 
REMARK       I    between atoms: N_25  and  C_26 
REMARK   15  A    between atoms: N_27  and  C_28 
REMARK   16  A    between atoms: N_33  and  C_34 
REMARK   17  A    between atoms: C_34  and  C_35 
ROOT
HETATM    1  C           1     -20.049  -9.162  -4.570  0.00  0.00     0.187 C 
ENDROOT
BRANCH   1   2
HETATM    2  C           1     -19.573  -9.588  -3.188  0.00  0.00     0.066 C 
BRANCH   2   3
HETATM    3  C           1     -20.018  -8.558  -2.157  0.00  0.00     0.273 C 
BRANCH   3   4
HETATM    4  N           1     -20.671  -9.226  -1.063  0.00  0.00     0.098 N 
HETATM    5  H           1     -20.322  -8.852  -0.180  0.00  0.00     0.317 HD
BRANCH   4   6
HETATM    6  C           1     -22.081  -8.966  -1.172  0.00  0.00     0.320 C 
BRANCH   6   7
HETATM    7  C           1     -22.434  -7.759  -0.337  0.00  0.00     0.207 C 
HETATM    8  O           1     -22.683  -6.666  -0.891  0.00  0.00    -0.646 OA
HETATM    9  O           1     -22.477  -7.853   0.908  0.00  0.00    -0.646 OA
ENDBRANCH   6   7
BRANCH   6  10
HETATM   10  C           1     -22.858 -10.176  -0.670  0.00  0.00     0.048 C 
BRANCH  10  11
HETATM   11  C           1     -21.916 -11.108   0.081  0.00  0.00     0.023 C 
BRANCH  11  12
HETATM   12  C           1     -22.150 -12.543  -0.376  0.00  0.00     0.138 C 
BRANCH  12  13
HETATM   13  N           1     -22.037 -12.615  -1.840  0.00  0.00    -0.227 N 
HETATM   14  C           1     -22.742 -13.443  -2.490  0.00  0.00     0.665 C 
HETATM   15  N           1     -23.544 -14.207  -1.878  0.00  0.00    -0.235 N 
HETATM   16  N           1     -22.641 -13.507  -3.784  0.00  0.00    -0.235 N 
HETATM   17  H           1     -23.626 -14.155  -0.833  0.00  0.00     0.174 HD
HETATM   18  H           1     -24.129 -14.893  -2.417  0.00  0.00     0.174 HD
HETATM   19  H           1     -21.979 -12.876  -4.288  0.00  0.00     0.174 HD
HETATM   20  H           1     -23.223 -14.190  -4.320  0.00  0.00     0.174 HD
HETATM   21  H           1     -21.371 -11.981  -2.347  0.00  0.00     0.177 HD
ENDBRANCH  12  13
ENDBRANCH  11  12
ENDBRANCH  10  11
ENDBRANCH   6  10
ENDBRANCH   4   6
ENDBRANCH   3   4
ENDBRANCH   2   3
ENDBRANCH   1   2
BRANCH   1  22
HETATM   22  C           1     -21.065 -10.154  -5.081  0.00  0.00     0.196 C 
HETATM   23  O           1     -21.913 -10.637  -4.300  0.00  0.00    -0.646 OA
HETATM   24  O           1     -21.058 -10.493  -6.284  0.00  0.00    -0.646 OA
ENDBRANCH   1  22
BRANCH   1  25
HETATM   25  N           1     -20.657  -7.848  -4.488  0.00  0.00    -0.345 N 
HETATM   26  C           1     -20.456  -6.937  -5.489  0.00  0.00     0.249 C 
HETATM   27  O           1     -19.771  -7.226  -6.441  0.00  0.00    -0.271 OA
HETATM   28  H           1     -21.232  -7.606  -3.690  0.00  0.00     0.163 HD
BRANCH  26  29
HETATM   29  C           1     -21.090  -5.570  -5.403  0.00  0.00     0.274 C 
BRANCH  29  30
HETATM   30  C           1     -21.985  -5.347  -6.615  0.00  0.00     0.044 C 
BRANCH  30  31
HETATM   31  C           1     -21.666  -3.996  -7.242  0.00  0.00     0.023 C 
BRANCH  31  32
HETATM   32  C           1     -22.155  -3.978  -8.685  0.00  0.00     0.138 C 
BRANCH  32  33
HETATM   33  N           1     -23.558  -3.544  -8.722  0.00  0.00    -0.227 N 
HETATM   34  C           1     -24.319  -3.940  -9.653  0.00  0.00     0.665 C 
HETATM   35  N           1     -23.857  -4.728 -10.578  0.00  0.00    -0.235 N 
HETATM   36  N           1     -25.527  -3.567  -9.686  0.00  0.00    -0.235 N 
HETATM   37  H           1     -24.484  -5.055 -11.348  0.00  0.00     0.174 HD
HETATM   38  H           1     -22.858  -5.036 -10.552  0.00  0.00     0.174 HD
HETATM   39  H           1     -26.158  -3.895 -10.459  0.00  0.00     0.174 HD
HETATM   40  H           1     -25.900  -2.929  -8.939  0.00  0.00     0.174 HD
HETATM   41  H           1     -23.931  -2.907  -7.975  0.00  0.00     0.177 HD
ENDBRANCH  32  33
ENDBRANCH  31  32
ENDBRANCH  30  31
ENDBRANCH  29  30
BRANCH  29  42
HETATM   42  N           1     -20.016  -4.522  -5.377  0.00  0.00    -0.067 N 
HETATM   43  H           1     -20.418  -3.620  -5.038  0.00  0.00     0.275 HD
HETATM   44  H           1     -19.250  -4.825  -4.734  0.00  0.00     0.275 HD
HETATM   45  H           1     -19.633  -4.392  -6.340  0.00  0.00     0.275 HD
ENDBRANCH  29  42
ENDBRANCH  26  29
ENDBRANCH   1  25
TORSDOF 17
ENDMDL
MODEL 8
REMARK VINA RESULT:      -6.4     14.193     17.665
REMARK  17 active torsions:
REMARK  status: ('A' for Active; 'I' for Inactive)
REMARK    1  A    between atoms: C_1  and  C_11 
REMARK    2  A    between atoms: C_1  and  C_7 
REMARK    3  A    between atoms: C_1  and  N_23 
REMARK    4  A    between atoms: C_2  and  C_3 
REMARK    5  A    between atoms: C_2  and  C_38 
REMARK    6  A    between atoms: C_2  and  N_12 
REMARK    7  A    between atoms: C_3  and  C_4 
REMARK    8  A    between atoms: C_4  and  N_5 
REMARK    9  A    between atoms: N_5  and  C_16 
REMARK   10  A    between atoms: C_7  and  C_18 
REMARK       I    between atoms: N_8  and  C_9 
REMARK       I    between atoms: C_9  and  N_10 
REMARK       I    between atoms: C_11  and  N_12 
REMARK   11  A    between atoms: C_15  and  C_16 
REMARK   12  A    between atoms: C_16  and  C_17 
REMARK   13  A    between atoms: C_17  and  C_35 
REMARK   14  A    between atoms: C_18  and  C_28 
REMARK       I    between atoms: N_24  and  C_26 
REMARK       I    between atoms: N_25  and  C_26 
REMARK   15  A    between atoms: N_27  and  C_28 
REMARK   16  A    between atoms: N_33  and  C_34 
REMARK   17  A    between atoms: C_34  and  C_35 
ROOT
HETATM    1  C           1     -21.431  -7.891  -2.283  0.00  0.00     0.187 C 
ENDROOT
BRANCH   1   2
HETATM    2  C           1     -20.196  -8.630  -1.788  0.00  0.00     0.066 C 
BRANCH   2   3
HETATM    3  C           1     -20.347 -10.120  -2.071  0.00  0.00     0.273 C 
BRANCH   3   4
HETATM    4  N           1     -20.310 -10.344  -3.492  0.00  0.00     0.098 N 
HETATM    5  H           1     -21.023  -9.773  -3.944  0.00  0.00     0.317 HD
BRANCH   4   6
HETATM    6  C           1     -19.009  -9.949  -3.962  0.00  0.00     0.320 C 
BRANCH   6   7
HETATM    7  C           1     -18.986  -9.992  -5.470  0.00  0.00     0.207 C 
HETATM    8  O           1     -18.134  -9.331  -6.102  0.00  0.00    -0.646 OA
HETATM    9  O           1     -19.821 -10.688  -6.087  0.00  0.00    -0.646 OA
ENDBRANCH   6   7
BRANCH   6  10
HETATM   10  C           1     -17.960 -10.907  -3.411  0.00  0.00     0.048 C 
BRANCH  10  11
HETATM   11  C           1     -16.754 -10.114  -2.924  0.00  0.00     0.023 C 
BRANCH  11  12
HETATM   12  C           1     -15.477 -10.755  -3.453  0.00  0.00     0.138 C 
BRANCH  12  13
HETATM   13  N           1     -15.499 -10.750  -4.923  0.00  0.00    -0.227 N 
HETATM   14  C           1     -15.129 -11.777  -5.565  0.00  0.00     0.665 C 
HETATM   15  N           1     -14.740 -12.807  -4.941  0.00  0.00    -0.235 N 
HETATM   16  N           1     -15.148 -11.773  -6.865  0.00  0.00    -0.235 N 
HETATM   17  H           1     -14.724 -12.811  -3.892  0.00  0.00     0.174 HD
HETATM   18  H           1     -14.433 -13.658  -5.474  0.00  0.00     0.174 HD
HETATM   19  H           1     -15.469 -10.922  -7.380  0.00  0.00     0.174 HD
HETATM   20  H           1     -14.842 -12.620  -7.395  0.00  0.00     0.174 HD
HETATM   21  H           1     -15.822  -9.896  -5.441  0.00  0.00     0.177 HD
ENDBRANCH  12  13
ENDBRANCH  11  12
ENDBRANCH  10  11
ENDBRANCH   6  10
ENDBRANCH   4   6
ENDBRANCH   3   4
ENDBRANCH   2   3
ENDBRANCH   1   2
BRANCH   1  22
HETATM   22  C           1     -22.118  -7.220  -1.119  0.00  0.00     0.196 C 
HETATM   23  O           1     -22.486  -6.029  -1.213  0.00  0.00    -0.646 OA
HETATM   24  O           1     -22.320  -7.854  -0.061  0.00  0.00    -0.646 OA
ENDBRANCH   1  22
BRANCH   1  25
HETATM   25  N           1     -21.038  -6.888  -3.254  0.00  0.00    -0.345 N 
HETATM   26  C           1     -21.321  -7.071  -4.580  0.00  0.00     0.249 C 
HETATM   27  O           1     -21.900  -8.067  -4.943  0.00  0.00    -0.271 OA
HETATM   28  H           1     -20.554  -6.052  -2.950  0.00  0.00     0.163 HD
BRANCH  26  29
HETATM   29  C           1     -20.912  -6.026  -5.590  0.00  0.00     0.274 C 
BRANCH  29  30
HETATM   30  C           1     -22.151  -5.471  -6.279  0.00  0.00     0.044 C 
BRANCH  30  31
HETATM   31  C           1     -21.770  -4.252  -7.108  0.00  0.00     0.023 C 
BRANCH  31  32
HETATM   32  C           1     -22.330  -4.400  -8.517  0.00  0.00     0.138 C 
BRANCH  32  33
HETATM   33  N           1     -23.706  -3.885  -8.554  0.00  0.00    -0.227 N 
HETATM   34  C           1     -24.401  -4.011  -9.605  0.00  0.00     0.665 C 
HETATM   35  N           1     -23.896  -4.594 -10.652  0.00  0.00    -0.235 N 
HETATM   36  N           1     -25.586  -3.568  -9.637  0.00  0.00    -0.235 N 
HETATM   37  H           1     -24.470  -4.698 -11.519  0.00  0.00     0.174 HD
HETATM   38  H           1     -22.918  -4.960 -10.625  0.00  0.00     0.174 HD
HETATM   39  H           1     -26.162  -3.672 -10.509  0.00  0.00     0.174 HD
HETATM   40  H           1     -25.993  -3.096  -8.792  0.00  0.00     0.174 HD
HETATM   41  H           1     -24.114  -3.414  -7.709  0.00  0.00     0.177 HD
ENDBRANCH  32  33
ENDBRANCH  31  32
ENDBRANCH  30  31
ENDBRANCH  29  30
BRANCH  29  42
HETATM   42  N           1     -20.009  -6.649  -6.613  0.00  0.00    -0.067 N 
HETATM   43  H           1     -19.085  -6.866  -6.177  0.00  0.00     0.275 HD
HETATM   44  H           1     -20.442  -7.532  -6.967  0.00  0.00     0.275 HD
HETATM   45  H           1     -19.872  -5.985  -7.408  0.00  0.00     0.275 HD
ENDBRANCH  29  42
ENDBRANCH  26  29
ENDBRANCH   1  25
TORSDOF 17
ENDMDL
MODEL 9
REMARK VINA RESULT:      -6.4      2.839      5.503
REMARK  17 active torsions:
REMARK  status: ('A' for Active; 'I' for Inactive)
REMARK    1  A    between atoms: C_1  and  C_11 
REMARK    2  A    between atoms: C_1  and  C_7 
REMARK    3  A    between atoms: C_1  and  N_23 
REMARK    4  A    between atoms: C_2  and  C_3 
REMARK    5  A    between atoms: C_2  and  C_38 
REMARK    6  A    between atoms: C_2  and  N_12 
REMARK    7  A    between atoms: C_3  and  C_4 
REMARK    8  A    between atoms: C_4  and  N_5 
REMARK    9  A    between atoms: N_5  and  C_16 
REMARK   10  A    between atoms: C_7  and  C_18 
REMARK       I    between atoms: N_8  and  C_9 
REMARK       I    between atoms: C_9  and  N_10 
REMARK       I    between atoms: C_11  and  N_12 
REMARK   11  A    between atoms: C_15  and  C_16 
REMARK   12  A    between atoms: C_16  and  C_17 
REMARK   13  A    between atoms: C_17  and  C_35 
REMARK   14  A    between atoms: C_18  and  C_28 
REMARK       I    between atoms: N_24  and  C_26 
REMARK       I    between atoms: N_25  and  C_26 
REMARK   15  A    between atoms: N_27  and  C_28 
REMARK   16  A    between atoms: N_33  and  C_34 
REMARK   17  A    between atoms: C_34  and  C_35 
ROOT
HETATM    1  C           1     -29.743  -4.001 -17.335  0.00  0.00     0.187 C 
ENDROOT
BRANCH   1   2
HETATM    2  C           1     -29.474  -4.495 -18.750  0.00  0.00     0.066 C 
BRANCH   2   3
HETATM    3  C           1     -28.434  -5.608 -18.711  0.00  0.00     0.273 C 
BRANCH   3   4
HETATM    4  N           1     -28.879  -6.649 -17.824  0.00  0.00     0.098 N 
HETATM    5  H           1     -29.225  -7.437 -18.372  0.00  0.00     0.317 HD
BRANCH   4   6
HETATM    6  C           1     -27.748  -7.069 -17.041  0.00  0.00     0.320 C 
BRANCH   6   7
HETATM    7  C           1     -28.096  -6.992 -15.575  0.00  0.00     0.207 C 
HETATM    8  O           1     -28.817  -6.063 -15.151  0.00  0.00    -0.646 OA
HETATM    9  O           1     -27.661  -7.857 -14.784  0.00  0.00    -0.646 OA
ENDBRANCH   6   7
BRANCH   6  10
HETATM   10  C           1     -26.565  -6.154 -17.331  0.00  0.00     0.048 C 
BRANCH  10  11
HETATM   11  C           1     -25.267  -6.885 -17.011  0.00  0.00     0.023 C 
BRANCH  11  12
HETATM   12  C           1     -24.365  -6.879 -18.239  0.00  0.00     0.138 C 
BRANCH  12  13
HETATM   13  N           1     -25.154  -7.224 -19.430  0.00  0.00    -0.227 N 
HETATM   14  C           1     -24.620  -7.874 -20.376  0.00  0.00     0.665 C 
HETATM   15  N           1     -23.407  -8.226 -20.297  0.00  0.00    -0.235 N 
HETATM   16  N           1     -25.319  -8.180 -21.430  0.00  0.00    -0.235 N 
HETATM   17  H           1     -22.843  -7.979 -19.447  0.00  0.00     0.174 HD
HETATM   18  H           1     -22.965  -8.765 -21.082  0.00  0.00     0.174 HD
HETATM   19  H           1     -26.320  -7.890 -21.494  0.00  0.00     0.174 HD
HETATM   20  H           1     -24.878  -8.716 -22.210  0.00  0.00     0.174 HD
HETATM   21  H           1     -26.161  -6.933 -19.495  0.00  0.00     0.177 HD
ENDBRANCH  12  13
ENDBRANCH  11  12
ENDBRANCH  10  11
ENDBRANCH   6  10
ENDBRANCH   4   6
ENDBRANCH   3   4
ENDBRANCH   2   3
ENDBRANCH   1   2
BRANCH   1  22
HETATM   22  C           1     -28.874  -2.801 -17.046  0.00  0.00     0.196 C 
HETATM   23  O           1     -29.292  -1.652 -17.303  0.00  0.00    -0.646 OA
HETATM   24  O           1     -27.738  -2.957 -16.548  0.00  0.00    -0.646 OA
ENDBRANCH   1  22
BRANCH   1  25
HETATM   25  N           1     -31.138  -3.628 -17.210  0.00  0.00    -0.345 N 
HETATM   26  C           1     -32.071  -4.568 -16.867  0.00  0.00     0.249 C 
HETATM   27  O           1     -31.732  -5.710 -16.667  0.00  0.00    -0.271 OA
HETATM   28  H           1     -31.422  -2.670 -17.377  0.00  0.00     0.163 HD
BRANCH  26  29
HETATM   29  C           1     -33.523  -4.178 -16.737  0.00  0.00     0.274 C 
BRANCH  29  30
HETATM   30  C           1     -33.691  -2.710 -17.104  0.00  0.00     0.044 C 
BRANCH  30  31
HETATM   31  C           1     -35.142  -2.297 -16.900  0.00  0.00     0.023 C 
BRANCH  31  32
HETATM   32  C           1     -35.194  -0.986 -16.125  0.00  0.00     0.138 C 
BRANCH  32  33
HETATM   33  N           1     -36.406  -0.243 -16.497  0.00  0.00    -0.227 N 
HETATM   34  C           1     -37.031   0.427 -15.624  0.00  0.00     0.665 C 
HETATM   35  N           1     -36.602   0.455 -14.397  0.00  0.00    -0.235 N 
HETATM   36  N           1     -38.075   1.066 -15.944  0.00  0.00    -0.235 N 
HETATM   37  H           1     -37.118   1.008 -13.675  0.00  0.00     0.174 HD
HETATM   38  H           1     -35.741  -0.074 -14.132  0.00  0.00     0.174 HD
HETATM   39  H           1     -38.594   1.622 -15.219  0.00  0.00     0.174 HD
HETATM   40  H           1     -38.422   1.043 -16.935  0.00  0.00     0.174 HD
HETATM   41  H           1     -36.753  -0.266 -17.488  0.00  0.00     0.177 HD
ENDBRANCH  32  33
ENDBRANCH  31  32
ENDBRANCH  30  31
ENDBRANCH  29  30
BRANCH  29  42
HETATM   42  N           1     -33.972  -4.393 -15.321  0.00  0.00    -0.067 N 
HETATM   43  H           1     -34.384  -3.508 -14.948  0.00  0.00     0.275 HD
HETATM   44  H           1     -34.693  -5.149 -15.296  0.00  0.00     0.275 HD
HETATM   45  H           1     -33.154  -4.670 -14.734  0.00  0.00     0.275 HD
ENDBRANCH  29  42
ENDBRANCH  26  29
ENDBRANCH   1  25
TORSDOF 17
ENDMDL
