MODEL 1
REMARK VINA RESULT:      -7.5      0.000      0.000
REMARK  8 active torsions:
REMARK  status: ('A' for Active; 'I' for Inactive)
REMARK    1  A    between atoms: C_10  and  C_11 
REMARK    2  A    between atoms: C_11  and  N_14 
REMARK       I    between atoms: N_13  and  C_21 
REMARK       I    between atoms: N_14  and  C_15 
REMARK    3  A    between atoms: C_15  and  C_16 
REMARK    4  A    between atoms: C_16  and  C_17 
REMARK    5  A    between atoms: C_16  and  N_26 
REMARK    6  A    between atoms: C_17  and  C_18 
REMARK    7  A    between atoms: C_18  and  C_19 
REMARK    8  A    between atoms: C_19  and  N_20 
REMARK       I    between atoms: N_20  and  C_21 
ROOT
HETATM    1  C           1     -34.152  -2.033 -11.885  0.00  0.00     0.274 C 
ENDROOT
BRANCH   1   2
HETATM    2  C           1     -35.205  -1.458 -12.801  0.00  0.00     0.249 C 
HETATM    3  N           1     -34.839  -0.884 -13.988  0.00  0.00    -0.345 N 
HETATM    4  H           1     -33.863  -0.845 -14.252  0.00  0.00     0.163 HD
HETATM    5  O           1     -36.370  -1.504 -12.486  0.00  0.00    -0.271 OA
BRANCH   3   6
HETATM    6  C           1     -35.851  -0.330 -14.868  0.00  0.00     0.181 C 
HETATM    7  C           1     -35.544   1.138 -15.133  0.00  0.00     0.043 C 
BRANCH   6   8
HETATM    8  C           1     -35.851  -1.089 -16.173  0.00  0.00     0.196 C 
HETATM    9  O           1     -35.061  -2.043 -16.341  0.00  0.00    -0.646 OA
HETATM   10  O           1     -36.641  -0.763 -17.086  0.00  0.00    -0.646 OA
ENDBRANCH   6   8
ENDBRANCH   3   6
ENDBRANCH   1   2
BRANCH   1  11
HETATM   11  C           1     -34.000  -3.523 -12.161  0.00  0.00     0.044 C 
BRANCH  11  12
HETATM   12  C           1     -33.648  -4.246 -10.868  0.00  0.00     0.023 C 
BRANCH  12  13
HETATM   13  C           1     -34.577  -5.439 -10.683  0.00  0.00     0.138 C 
BRANCH  13  14
HETATM   14  N           1     -33.815  -6.685 -10.854  0.00  0.00    -0.227 N 
HETATM   15  C           1     -34.175  -7.736 -10.247  0.00  0.00     0.665 C 
HETATM   16  N           1     -35.218  -7.713  -9.470  0.00  0.00    -0.235 N 
HETATM   17  N           1     -33.519  -8.808 -10.394  0.00  0.00    -0.235 N 
HETATM   18  H           1     -35.759  -6.827  -9.350  0.00  0.00     0.174 HD
HETATM   19  H           1     -35.514  -8.580  -8.969  0.00  0.00     0.174 HD
HETATM   20  H           1     -32.677  -8.828 -11.021  0.00  0.00     0.174 HD
HETATM   21  H           1     -33.818  -9.679  -9.890  0.00  0.00     0.174 HD
HETATM   22  H           1     -32.973  -6.704 -11.481  0.00  0.00     0.177 HD
ENDBRANCH  13  14
ENDBRANCH  12  13
ENDBRANCH  11  12
ENDBRANCH   1  11
BRANCH   1  23
HETATM   23  N           1     -34.564  -1.829 -10.458  0.00  0.00    -0.067 N 
HETATM   24  H           1     -33.890  -2.318  -9.828  0.00  0.00     0.275 HD
HETATM   25  H           1     -35.523  -2.218 -10.312  0.00  0.00     0.275 HD
HETATM   26  H           1     -34.566  -0.807 -10.240  0.00  0.00     0.275 HD
ENDBRANCH   1  23
TORSDOF 8
ENDMDL
MODEL 2
REMARK VINA RESULT:      -6.3     13.174     14.388
REMARK  8 active torsions:
REMARK  status: ('A' for Active; 'I' for Inactive)
REMARK    1  A    between atoms: C_10  and  C_11 
REMARK    2  A    between atoms: C_11  and  N_14 
REMARK       I    between atoms: N_13  and  C_21 
REMARK       I    between atoms: N_14  and  C_15 
REMARK    3  A    between atoms: C_15  and  C_16 
REMARK    4  A    between atoms: C_16  and  C_17 
REMARK    5  A    between atoms: C_16  and  N_26 
REMARK    6  A    between atoms: C_17  and  C_18 
REMARK    7  A    between atoms: C_18  and  C_19 
REMARK    8  A    between atoms: C_19  and  N_20 
REMARK       I    between atoms: N_20  and  C_21 
ROOT
HETATM    1  C           1     -20.069  -5.043  -8.532  0.00  0.00     0.274 C 
ENDROOT
BRANCH   1   2
HETATM    2  C           1     -20.897  -4.424  -9.632  0.00  0.00     0.249 C 
HETATM    3  N           1     -22.250  -4.628  -9.667  0.00  0.00    -0.345 N 
HETATM    4  H           1     -22.695  -5.193  -8.955  0.00  0.00     0.163 HD
HETATM    5  O           1     -20.365  -3.749 -10.481  0.00  0.00    -0.271 OA
BRANCH   3   6
HETATM    6  C           1     -23.046  -4.034 -10.724  0.00  0.00     0.181 C 
HETATM    7  C           1     -23.379  -5.094 -11.765  0.00  0.00     0.043 C 
BRANCH   6   8
HETATM    8  C           1     -24.323  -3.481 -10.141  0.00  0.00     0.196 C 
HETATM    9  O           1     -25.249  -3.116 -10.897  0.00  0.00    -0.646 OA
HETATM   10  O           1     -24.456  -3.388  -8.901  0.00  0.00    -0.646 OA
ENDBRANCH   6   8
ENDBRANCH   3   6
ENDBRANCH   1   2
BRANCH   1  11
HETATM   11  C           1     -20.990  -5.703  -7.514  0.00  0.00     0.044 C 
BRANCH  11  12
HETATM   12  C           1     -20.275  -5.806  -6.173  0.00  0.00     0.023 C 
BRANCH  12  13
HETATM   13  C           1     -21.036  -6.762  -5.264  0.00  0.00     0.138 C 
BRANCH  13  14
HETATM   14  N           1     -21.683  -6.002  -4.184  0.00  0.00    -0.227 N 
HETATM   15  C           1     -21.749  -6.490  -3.018  0.00  0.00     0.665 C 
HETATM   16  N           1     -21.246  -7.664  -2.775  0.00  0.00    -0.235 N 
HETATM   17  N           1     -22.305  -5.835  -2.089  0.00  0.00    -0.235 N 
HETATM   18  H           1     -20.786  -8.204  -3.543  0.00  0.00     0.174 HD
HETATM   19  H           1     -21.301  -8.067  -1.813  0.00  0.00     0.174 HD
HETATM   20  H           1     -22.712  -4.887  -2.284  0.00  0.00     0.174 HD
HETATM   21  H           1     -22.360  -6.241  -1.122  0.00  0.00     0.174 HD
HETATM   22  H           1     -22.089  -5.054  -4.380  0.00  0.00     0.177 HD
ENDBRANCH  13  14
ENDBRANCH  12  13
ENDBRANCH  11  12
ENDBRANCH   1  11
BRANCH   1  23
HETATM   23  N           1     -19.259  -3.977  -7.856  0.00  0.00    -0.067 N 
HETATM   24  H           1     -19.481  -3.049  -8.282  0.00  0.00     0.275 HD
HETATM   25  H           1     -18.242  -4.182  -7.978  0.00  0.00     0.275 HD
HETATM   26  H           1     -19.491  -3.958  -6.837  0.00  0.00     0.275 HD
ENDBRANCH   1  23
TORSDOF 8
ENDMDL
MODEL 3
REMARK VINA RESULT:      -6.3     13.470     14.727
REMARK  8 active torsions:
REMARK  status: ('A' for Active; 'I' for Inactive)
REMARK    1  A    between atoms: C_10  and  C_11 
REMARK    2  A    between atoms: C_11  and  N_14 
REMARK       I    between atoms: N_13  and  C_21 
REMARK       I    between atoms: N_14  and  C_15 
REMARK    3  A    between atoms: C_15  and  C_16 
REMARK    4  A    between atoms: C_16  and  C_17 
REMARK    5  A    between atoms: C_16  and  N_26 
REMARK    6  A    between atoms: C_17  and  C_18 
REMARK    7  A    between atoms: C_18  and  C_19 
REMARK    8  A    between atoms: C_19  and  N_20 
REMARK       I    between atoms: N_20  and  C_21 
ROOT
HETATM    1  C           1     -21.192  -5.824  -6.923  0.00  0.00     0.274 C 
ENDROOT
BRANCH   1   2
HETATM    2  C           1     -21.659  -4.621  -7.705  0.00  0.00     0.249 C 
HETATM    3  N           1     -22.228  -4.786  -8.940  0.00  0.00    -0.345 N 
HETATM    4  H           1     -22.335  -5.714  -9.327  0.00  0.00     0.163 HD
HETATM    5  O           1     -21.531  -3.512  -7.243  0.00  0.00    -0.271 OA
BRANCH   3   6
HETATM    6  C           1     -22.676  -3.629  -9.692  0.00  0.00     0.181 C 
HETATM    7  C           1     -21.798  -3.453 -10.923  0.00  0.00     0.043 C 
BRANCH   6   8
HETATM    8  C           1     -24.109  -3.834 -10.120  0.00  0.00     0.196 C 
HETATM    9  O           1     -24.699  -2.947 -10.774  0.00  0.00    -0.646 OA
HETATM   10  O           1     -24.706  -4.891  -9.822  0.00  0.00    -0.646 OA
ENDBRANCH   6   8
ENDBRANCH   3   6
ENDBRANCH   1   2
BRANCH   1  11
HETATM   11  C           1     -21.098  -5.464  -5.446  0.00  0.00     0.044 C 
BRANCH  11  12
HETATM   12  C           1     -21.820  -6.520  -4.619  0.00  0.00     0.023 C 
BRANCH  12  13
HETATM   13  C           1     -21.664  -6.199  -3.139  0.00  0.00     0.138 C 
BRANCH  13  14
HETATM   14  N           1     -21.059  -7.347  -2.448  0.00  0.00    -0.227 N 
HETATM   15  C           1     -21.472  -7.686  -1.301  0.00  0.00     0.665 C 
HETATM   16  N           1     -22.431  -7.017  -0.731  0.00  0.00    -0.235 N 
HETATM   17  N           1     -20.951  -8.675  -0.707  0.00  0.00    -0.235 N 
HETATM   18  H           1     -22.861  -6.201  -1.223  0.00  0.00     0.174 HD
HETATM   19  H           1     -22.771  -7.297   0.216  0.00  0.00     0.174 HD
HETATM   20  H           1     -20.177  -9.215  -1.166  0.00  0.00     0.174 HD
HETATM   21  H           1     -21.293  -8.955   0.245  0.00  0.00     0.174 HD
HETATM   22  H           1     -20.285  -7.887  -2.908  0.00  0.00     0.177 HD
ENDBRANCH  13  14
ENDBRANCH  12  13
ENDBRANCH  11  12
ENDBRANCH   1  11
BRANCH   1  23
HETATM   23  N           1     -19.843  -6.251  -7.421  0.00  0.00    -0.067 N 
HETATM   24  H           1     -19.909  -7.212  -7.825  0.00  0.00     0.275 HD
HETATM   25  H           1     -19.163  -6.253  -6.628  0.00  0.00     0.275 HD
HETATM   26  H           1     -19.517  -5.584  -8.157  0.00  0.00     0.275 HD
ENDBRANCH   1  23
TORSDOF 8
ENDMDL
MODEL 4
REMARK VINA RESULT:      -6.2     13.990     16.415
REMARK  8 active torsions:
REMARK  status: ('A' for Active; 'I' for Inactive)
REMARK    1  A    between atoms: C_10  and  C_11 
REMARK    2  A    between atoms: C_11  and  N_14 
REMARK       I    between atoms: N_13  and  C_21 
REMARK       I    between atoms: N_14  and  C_15 
REMARK    3  A    between atoms: C_15  and  C_16 
REMARK    4  A    between atoms: C_16  and  C_17 
REMARK    5  A    between atoms: C_16  and  N_26 
REMARK    6  A    between atoms: C_17  and  C_18 
REMARK    7  A    between atoms: C_18  and  C_19 
REMARK    8  A    between atoms: C_19  and  N_20 
REMARK       I    between atoms: N_20  and  C_21 
ROOT
HETATM    1  C           1     -20.877  -5.719  -5.898  0.00  0.00     0.274 C 
ENDROOT
BRANCH   1   2
HETATM    2  C           1     -21.393  -6.685  -4.860  0.00  0.00     0.249 C 
HETATM    3  N           1     -20.874  -6.669  -3.593  0.00  0.00    -0.345 N 
HETATM    4  H           1     -20.145  -6.010  -3.353  0.00  0.00     0.163 HD
HETATM    5  O           1     -22.263  -7.472  -5.146  0.00  0.00    -0.271 OA
BRANCH   3   6
HETATM    6  C           1     -21.369  -7.598  -2.595  0.00  0.00     0.181 C 
HETATM    7  C           1     -20.194  -8.309  -1.937  0.00  0.00     0.043 C 
BRANCH   6   8
HETATM    8  C           1     -22.151  -6.841  -1.548  0.00  0.00     0.196 C 
HETATM    9  O           1     -22.538  -7.426  -0.514  0.00  0.00    -0.646 OA
HETATM   10  O           1     -22.410  -5.630  -1.716  0.00  0.00    -0.646 OA
ENDBRANCH   6   8
ENDBRANCH   3   6
ENDBRANCH   1   2
BRANCH   1  11
HETATM   11  C           1     -22.052  -5.084  -6.629  0.00  0.00     0.044 C 
BRANCH  11  12
HETATM   12  C           1     -21.576  -3.849  -7.382  0.00  0.00     0.023 C 
BRANCH  12  13
HETATM   13  C           1     -22.118  -3.881  -8.805  0.00  0.00     0.138 C 
BRANCH  13  14
HETATM   14  N           1     -23.533  -3.478  -8.800  0.00  0.00    -0.227 N 
HETATM   15  C           1     -24.321  -3.925  -9.683  0.00  0.00     0.665 C 
HETATM   16  N           1     -23.880  -4.740 -10.596  0.00  0.00    -0.235 N 
HETATM   17  N           1     -25.538  -3.579  -9.679  0.00  0.00    -0.235 N 
HETATM   18  H           1     -22.875  -5.026 -10.599  0.00  0.00     0.174 HD
HETATM   19  H           1     -24.532  -5.108 -11.325  0.00  0.00     0.174 HD
HETATM   20  H           1     -25.895  -2.921  -8.942  0.00  0.00     0.174 HD
HETATM   21  H           1     -26.192  -3.949 -10.412  0.00  0.00     0.174 HD
HETATM   22  H           1     -23.888  -2.821  -8.063  0.00  0.00     0.177 HD
ENDBRANCH  13  14
ENDBRANCH  12  13
ENDBRANCH  11  12
ENDBRANCH   1  11
BRANCH   1  23
HETATM   23  N           1     -20.015  -6.454  -6.881  0.00  0.00    -0.067 N 
HETATM   24  H           1     -20.496  -7.334  -7.175  0.00  0.00     0.275 HD
HETATM   25  H           1     -19.100  -6.690  -6.435  0.00  0.00     0.275 HD
HETATM   26  H           1     -19.849  -5.851  -7.717  0.00  0.00     0.275 HD
ENDBRANCH   1  23
TORSDOF 8
ENDMDL
MODEL 5
REMARK VINA RESULT:      -6.2      4.893      6.942
REMARK  8 active torsions:
REMARK  status: ('A' for Active; 'I' for Inactive)
REMARK    1  A    between atoms: C_10  and  C_11 
REMARK    2  A    between atoms: C_11  and  N_14 
REMARK       I    between atoms: N_13  and  C_21 
REMARK       I    between atoms: N_14  and  C_15 
REMARK    3  A    between atoms: C_15  and  C_16 
REMARK    4  A    between atoms: C_16  and  C_17 
REMARK    5  A    between atoms: C_16  and  N_26 
REMARK    6  A    between atoms: C_17  and  C_18 
REMARK    7  A    between atoms: C_18  and  C_19 
REMARK    8  A    between atoms: C_19  and  N_20 
REMARK       I    between atoms: N_20  and  C_21 
ROOT
HETATM    1  C           1     -33.092  -4.525 -16.690  0.00  0.00     0.274 C 
ENDROOT
BRANCH   1   2
HETATM    2  C           1     -33.901  -4.530 -15.417  0.00  0.00     0.249 C 
HETATM    3  N           1     -33.367  -4.018 -14.265  0.00  0.00    -0.345 N 
HETATM    4  H           1     -32.430  -3.637 -14.267  0.00  0.00     0.163 HD
HETATM    5  O           1     -35.021  -4.984 -15.413  0.00  0.00    -0.271 OA
BRANCH   3   6
HETATM    6  C           1     -34.145  -4.023 -13.040  0.00  0.00     0.181 C 
HETATM    7  C           1     -33.275  -4.509 -11.889  0.00  0.00     0.043 C 
BRANCH   6   8
HETATM    8  C           1     -34.631  -2.624 -12.749  0.00  0.00     0.196 C 
HETATM    9  O           1     -34.680  -2.212 -11.570  0.00  0.00    -0.646 OA
HETATM   10  O           1     -34.985  -1.877 -13.687  0.00  0.00    -0.646 OA
ENDBRANCH   6   8
ENDBRANCH   3   6
ENDBRANCH   1   2
BRANCH   1  11
HETATM   11  C           1     -31.620  -4.731 -16.356  0.00  0.00     0.044 C 
BRANCH  11  12
HETATM   12  C           1     -31.030  -5.782 -17.287  0.00  0.00     0.023 C 
BRANCH  12  13
HETATM   13  C           1     -29.824  -5.199 -18.012  0.00  0.00     0.138 C 
BRANCH  13  14
HETATM   14  N           1     -29.925  -3.732 -18.032  0.00  0.00    -0.227 N 
HETATM   15  C           1     -29.087  -3.031 -17.393  0.00  0.00     0.665 C 
HETATM   16  N           1     -28.138  -3.608 -16.717  0.00  0.00    -0.235 N 
HETATM   17  N           1     -29.175  -1.769 -17.410  0.00  0.00    -0.235 N 
HETATM   18  H           1     -28.066  -4.651 -16.704  0.00  0.00     0.174 HD
HETATM   19  H           1     -27.447  -3.029 -16.189  0.00  0.00     0.174 HD
HETATM   20  H           1     -29.941  -1.302 -17.955  0.00  0.00     0.174 HD
HETATM   21  H           1     -28.480  -1.187 -16.879  0.00  0.00     0.174 HD
HETATM   22  H           1     -30.692  -3.266 -18.578  0.00  0.00     0.177 HD
ENDBRANCH  13  14
ENDBRANCH  12  13
ENDBRANCH  11  12
ENDBRANCH   1  11
BRANCH   1  23
HETATM   23  N           1     -33.267  -3.210 -17.389  0.00  0.00    -0.067 N 
HETATM   24  H           1     -32.439  -2.602 -17.198  0.00  0.00     0.275 HD
HETATM   25  H           1     -34.132  -2.741 -17.039  0.00  0.00     0.275 HD
HETATM   26  H           1     -33.350  -3.372 -18.418  0.00  0.00     0.275 HD
ENDBRANCH   1  23
TORSDOF 8
ENDMDL
MODEL 6
REMARK VINA RESULT:      -5.9      5.323      6.652
REMARK  8 active torsions:
REMARK  status: ('A' for Active; 'I' for Inactive)
REMARK    1  A    between atoms: C_10  and  C_11 
REMARK    2  A    between atoms: C_11  and  N_14 
REMARK       I    between atoms: N_13  and  C_21 
REMARK       I    between atoms: N_14  and  C_15 
REMARK    3  A    between atoms: C_15  and  C_16 
REMARK    4  A    between atoms: C_16  and  C_17 
REMARK    5  A    between atoms: C_16  and  N_26 
REMARK    6  A    between atoms: C_17  and  C_18 
REMARK    7  A    between atoms: C_18  and  C_19 
REMARK    8  A    between atoms: C_19  and  N_20 
REMARK       I    between atoms: N_20  and  C_21 
ROOT
HETATM    1  C           1     -33.096  -4.489 -16.725  0.00  0.00     0.274 C 
ENDROOT
BRANCH   1   2
HETATM    2  C           1     -33.896  -4.513 -15.444  0.00  0.00     0.249 C 
HETATM    3  N           1     -33.349  -4.025 -14.288  0.00  0.00    -0.345 N 
HETATM    4  H           1     -32.410  -3.648 -14.291  0.00  0.00     0.163 HD
HETATM    5  O           1     -35.017  -4.962 -15.440  0.00  0.00    -0.271 OA
BRANCH   3   6
HETATM    6  C           1     -34.116  -4.048 -13.057  0.00  0.00     0.181 C 
HETATM    7  C           1     -33.257  -4.611 -11.934  0.00  0.00     0.043 C 
BRANCH   6   8
HETATM    8  C           1     -34.546  -2.643 -12.707  0.00  0.00     0.196 C 
HETATM    9  O           1     -35.315  -2.018 -13.468  0.00  0.00    -0.646 OA
HETATM   10  O           1     -34.132  -2.107 -11.657  0.00  0.00    -0.646 OA
ENDBRANCH   6   8
ENDBRANCH   3   6
ENDBRANCH   1   2
BRANCH   1  11
HETATM   11  C           1     -31.633  -4.777 -16.415  0.00  0.00     0.044 C 
BRANCH  11  12
HETATM   12  C           1     -31.170  -5.981 -17.222  0.00  0.00     0.023 C 
BRANCH  12  13
HETATM   13  C           1     -29.694  -5.826 -17.565  0.00  0.00     0.138 C 
BRANCH  13  14
HETATM   14  N           1     -28.899  -6.754 -16.747  0.00  0.00    -0.227 N 
HETATM   15  C           1     -27.693  -6.485 -16.475  0.00  0.00     0.665 C 
HETATM   16  N           1     -27.155  -5.388 -16.922  0.00  0.00    -0.235 N 
HETATM   17  N           1     -27.009  -7.284 -15.771  0.00  0.00    -0.235 N 
HETATM   18  H           1     -27.720  -4.729 -17.503  0.00  0.00     0.174 HD
HETATM   19  H           1     -26.159  -5.167 -16.698  0.00  0.00     0.174 HD
HETATM   20  H           1     -27.443  -8.169 -15.410  0.00  0.00     0.174 HD
HETATM   21  H           1     -26.008  -7.060 -15.547  0.00  0.00     0.174 HD
HETATM   22  H           1     -29.334  -7.639 -16.386  0.00  0.00     0.177 HD
ENDBRANCH  13  14
ENDBRANCH  12  13
ENDBRANCH  11  12
ENDBRANCH   1  11
BRANCH   1  23
HETATM   23  N           1     -33.216  -3.138 -17.364  0.00  0.00    -0.067 N 
HETATM   24  H           1     -32.360  -2.577 -17.154  0.00  0.00     0.275 HD
HETATM   25  H           1     -34.056  -2.646 -16.985  0.00  0.00     0.275 HD
HETATM   26  H           1     -33.315  -3.250 -18.398  0.00  0.00     0.275 HD
ENDBRANCH   1  23
TORSDOF 8
ENDMDL
MODEL 7
REMARK VINA RESULT:      -5.7     13.479     14.729
REMARK  8 active torsions:
REMARK  status: ('A' for Active; 'I' for Inactive)
REMARK    1  A    between atoms: C_10  and  C_11 
REMARK    2  A    between atoms: C_11  and  N_14 
REMARK       I    between atoms: N_13  and  C_21 
REMARK       I    between atoms: N_14  and  C_15 
REMARK    3  A    between atoms: C_15  and  C_16 
REMARK    4  A    between atoms: C_16  and  C_17 
REMARK    5  A    between atoms: C_16  and  N_26 
REMARK    6  A    between atoms: C_17  and  C_18 
REMARK    7  A    between atoms: C_18  and  C_19 
REMARK    8  A    between atoms: C_19  and  N_20 
REMARK       I    between atoms: N_20  and  C_21 
ROOT
HETATM    1  C           1     -20.909  -5.470  -6.978  0.00  0.00     0.274 C 
ENDROOT
BRANCH   1   2
HETATM    2  C           1     -21.496  -4.400  -7.866  0.00  0.00     0.249 C 
HETATM    3  N           1     -21.682  -4.644  -9.200  0.00  0.00    -0.345 N 
HETATM    4  H           1     -21.427  -5.541  -9.591  0.00  0.00     0.163 HD
HETATM    5  O           1     -21.802  -3.328  -7.399  0.00  0.00    -0.271 OA
BRANCH   3   6
HETATM    6  C           1     -22.246  -3.615 -10.053  0.00  0.00     0.181 C 
HETATM    7  C           1     -21.431  -3.518 -11.336  0.00  0.00     0.043 C 
BRANCH   6   8
HETATM    8  C           1     -23.675  -3.969 -10.389  0.00  0.00     0.196 C 
HETATM    9  O           1     -24.504  -3.063 -10.620  0.00  0.00    -0.646 OA
HETATM   10  O           1     -24.028  -5.167 -10.436  0.00  0.00    -0.646 OA
ENDBRANCH   6   8
ENDBRANCH   3   6
ENDBRANCH   1   2
BRANCH   1  11
HETATM   11  C           1     -21.899  -5.811  -5.872  0.00  0.00     0.044 C 
BRANCH  11  12
HETATM   12  C           1     -21.158  -5.936  -4.548  0.00  0.00     0.023 C 
BRANCH  12  13
HETATM   13  C           1     -21.141  -7.395  -4.111  0.00  0.00     0.138 C 
BRANCH  13  14
HETATM   14  N           1     -19.877  -8.019  -4.530  0.00  0.00    -0.227 N 
HETATM   15  C           1     -19.892  -9.029  -5.291  0.00  0.00     0.665 C 
HETATM   16  N           1     -21.025  -9.518  -5.703  0.00  0.00    -0.235 N 
HETATM   17  N           1     -18.803  -9.566  -5.652  0.00  0.00    -0.235 N 
HETATM   18  H           1     -21.923  -9.074  -5.405  0.00  0.00     0.174 HD
HETATM   19  H           1     -21.036 -10.352  -6.331  0.00  0.00     0.174 HD
HETATM   20  H           1     -17.889  -9.173  -5.320  0.00  0.00     0.174 HD
HETATM   21  H           1     -18.816 -10.405  -6.283  0.00  0.00     0.174 HD
HETATM   22  H           1     -18.963  -7.625  -4.198  0.00  0.00     0.177 HD
ENDBRANCH  13  14
ENDBRANCH  12  13
ENDBRANCH  11  12
ENDBRANCH   1  11
BRANCH   1  23
HETATM   23  N           1     -19.632  -4.970  -6.370  0.00  0.00    -0.067 N 
HETATM   24  H           1     -19.836  -4.141  -5.767  0.00  0.00     0.275 HD
HETATM   25  H           1     -18.969  -4.695  -7.128  0.00  0.00     0.275 HD
HETATM   26  H           1     -19.205  -5.726  -5.790  0.00  0.00     0.275 HD
ENDBRANCH   1  23
TORSDOF 8
ENDMDL
MODEL 8
REMARK VINA RESULT:      -5.6     14.927     17.374
REMARK  8 active torsions:
REMARK  status: ('A' for Active; 'I' for Inactive)
REMARK    1  A    between atoms: C_10  and  C_11 
REMARK    2  A    between atoms: C_11  and  N_14 
REMARK       I    between atoms: N_13  and  C_21 
REMARK       I    between atoms: N_14  and  C_15 
REMARK    3  A    between atoms: C_15  and  C_16 
REMARK    4  A    between atoms: C_16  and  C_17 
REMARK    5  A    between atoms: C_16  and  N_26 
REMARK    6  A    between atoms: C_17  and  C_18 
REMARK    7  A    between atoms: C_18  and  C_19 
REMARK    8  A    between atoms: C_19  and  N_20 
REMARK       I    between atoms: N_20  and  C_21 
ROOT
HETATM    1  C           1     -21.463  -7.050  -5.552  0.00  0.00     0.274 C 
ENDROOT
BRANCH   1   2
HETATM    2  C           1     -20.826  -7.790  -4.402  0.00  0.00     0.249 C 
HETATM    3  N           1     -21.512  -7.950  -3.227  0.00  0.00    -0.345 N 
HETATM    4  H           1     -22.445  -7.571  -3.131  0.00  0.00     0.163 HD
HETATM    5  O           1     -19.712  -8.242  -4.516  0.00  0.00    -0.271 OA
BRANCH   3   6
HETATM    6  C           1     -20.899  -8.660  -2.121  0.00  0.00     0.181 C 
HETATM    7  C           1     -21.241  -7.956  -0.815  0.00  0.00     0.043 C 
BRANCH   6   8
HETATM    8  C           1     -21.423 -10.076  -2.082  0.00  0.00     0.196 C 
HETATM    9  O           1     -22.536 -10.316  -1.566  0.00  0.00    -0.646 OA
HETATM   10  O           1     -20.745 -11.007  -2.565  0.00  0.00    -0.646 OA
ENDBRANCH   6   8
ENDBRANCH   3   6
ENDBRANCH   1   2
BRANCH   1  11
HETATM   11  C           1     -20.405  -6.229  -6.276  0.00  0.00     0.044 C 
BRANCH  11  12
HETATM   12  C           1     -20.621  -4.750  -5.983  0.00  0.00     0.023 C 
BRANCH  12  13
HETATM   13  C           1     -20.811  -3.995  -7.292  0.00  0.00     0.138 C 
BRANCH  13  14
HETATM   14  N           1     -22.228  -3.637  -7.451  0.00  0.00    -0.227 N 
HETATM   15  C           1     -22.868  -4.021  -8.472  0.00  0.00     0.665 C 
HETATM   16  N           1     -22.272  -4.732  -9.384  0.00  0.00    -0.235 N 
HETATM   17  N           1     -24.088  -3.712  -8.609  0.00  0.00    -0.235 N 
HETATM   18  H           1     -21.265  -4.987  -9.270  0.00  0.00     0.174 HD
HETATM   19  H           1     -22.801  -5.048 -10.227  0.00  0.00     0.174 HD
HETATM   20  H           1     -24.570  -3.138  -7.874  0.00  0.00     0.174 HD
HETATM   21  H           1     -24.618  -4.031  -9.457  0.00  0.00     0.174 HD
HETATM   22  H           1     -22.710  -3.062  -6.715  0.00  0.00     0.177 HD
ENDBRANCH  13  14
ENDBRANCH  12  13
ENDBRANCH  11  12
ENDBRANCH   1  11
BRANCH   1  23
HETATM   23  N           1     -22.533  -6.139  -5.029  0.00  0.00    -0.067 N 
HETATM   24  H           1     -22.805  -5.459  -5.775  0.00  0.00     0.275 HD
HETATM   25  H           1     -22.172  -5.618  -4.198  0.00  0.00     0.275 HD
HETATM   26  H           1     -23.366  -6.704  -4.751  0.00  0.00     0.275 HD
ENDBRANCH   1  23
TORSDOF 8
ENDMDL
MODEL 9
REMARK VINA RESULT:      -5.5     14.430     15.938
REMARK  8 active torsions:
REMARK  status: ('A' for Active; 'I' for Inactive)
REMARK    1  A    between atoms: C_10  and  C_11 
REMARK    2  A    between atoms: C_11  and  N_14 
REMARK       I    between atoms: N_13  and  C_21 
REMARK       I    between atoms: N_14  and  C_15 
REMARK    3  A    between atoms: C_15  and  C_16 
REMARK    4  A    between atoms: C_16  and  C_17 
REMARK    5  A    between atoms: C_16  and  N_26 
REMARK    6  A    between atoms: C_17  and  C_18 
REMARK    7  A    between atoms: C_18  and  C_19 
REMARK    8  A    between atoms: C_19  and  N_20 
REMARK       I    between atoms: N_20  and  C_21 
ROOT
HETATM    1  C           1     -21.171  -6.983  -5.509  0.00  0.00     0.274 C 
ENDROOT
BRANCH   1   2
HETATM    2  C           1     -21.009  -5.700  -6.287  0.00  0.00     0.249 C 
HETATM    3  N           1     -21.363  -5.652  -7.609  0.00  0.00    -0.345 N 
HETATM    4  H           1     -21.732  -6.477  -8.064  0.00  0.00     0.163 HD
HETATM    5  O           1     -20.569  -4.715  -5.744  0.00  0.00    -0.271 OA
BRANCH   3   6
HETATM    6  C           1     -21.207  -4.419  -8.357  0.00  0.00     0.181 C 
HETATM    7  C           1     -20.052  -4.565  -9.340  0.00  0.00     0.043 C 
BRANCH   6   8
HETATM    8  C           1     -22.480  -4.128  -9.115  0.00  0.00     0.196 C 
HETATM    9  O           1     -23.567  -4.051  -8.503  0.00  0.00    -0.646 OA
HETATM   10  O           1     -22.446  -3.963 -10.354  0.00  0.00    -0.646 OA
ENDBRANCH   6   8
ENDBRANCH   3   6
ENDBRANCH   1   2
BRANCH   1  11
HETATM   11  C           1     -21.454  -6.658  -4.048  0.00  0.00     0.044 C 
BRANCH  11  12
HETATM   12  C           1     -21.126  -7.870  -3.186  0.00  0.00     0.023 C 
BRANCH  12  13
HETATM   13  C           1     -20.957  -7.431  -1.737  0.00  0.00     0.138 C 
BRANCH  13  14
HETATM   14  N           1     -22.265  -7.443  -1.065  0.00  0.00    -0.227 N 
HETATM   15  C           1     -22.382  -7.958   0.085  0.00  0.00     0.665 C 
HETATM   16  N           1     -21.345  -8.480   0.672  0.00  0.00    -0.235 N 
HETATM   17  N           1     -23.508  -7.968   0.663  0.00  0.00    -0.235 N 
HETATM   18  H           1     -20.416  -8.471   0.194  0.00  0.00     0.174 HD
HETATM   19  H           1     -21.442  -8.906   1.621  0.00  0.00     0.174 HD
HETATM   20  H           1     -24.345  -7.548   0.189  0.00  0.00     0.174 HD
HETATM   21  H           1     -23.604  -8.397   1.616  0.00  0.00     0.174 HD
HETATM   22  H           1     -23.102  -7.022  -1.539  0.00  0.00     0.177 HD
ENDBRANCH  13  14
ENDBRANCH  12  13
ENDBRANCH  11  12
ENDBRANCH   1  11
BRANCH   1  23
HETATM   23  N           1     -19.910  -7.789  -5.607  0.00  0.00    -0.067 N 
HETATM   24  H           1     -19.589  -8.050  -4.647  0.00  0.00     0.275 HD
HETATM   25  H           1     -19.170  -7.224  -6.080  0.00  0.00     0.275 HD
HETATM   26  H           1     -20.094  -8.656  -6.161  0.00  0.00     0.275 HD
ENDBRANCH   1  23
TORSDOF 8
ENDMDL
