MODEL 1
REMARK VINA RESULT:      -6.4      0.000      0.000
REMARK  6 active torsions:
REMARK  status: ('A' for Active; 'I' for Inactive)
REMARK       I    between atoms: N_1  and  C_6 
REMARK    1  A    between atoms: C_3  and  C_13 
REMARK    2  A    between atoms: C_6  and  C_15 
REMARK    3  A    between atoms: N_8  and  C_15 
REMARK    4  A    between atoms: C_13  and  C_14 
REMARK    5  A    between atoms: C_14  and  C_15 
REMARK    6  A    between atoms: C_16  and  C_19 
ROOT
HETATM    1  N           1     -21.612  -4.458  -9.376  0.00  0.00    -0.336 N 
HETATM    2  C           1     -21.728  -4.664  -8.028  0.00  0.00     0.251 C 
HETATM    3  O           1     -22.666  -4.202  -7.424  0.00  0.00    -0.271 OA
HETATM    4  C           1     -20.554  -4.937 -10.261  0.00  0.00     0.127 C 
HETATM    5  C           1     -20.298  -3.761 -11.189  0.00  0.00     0.022 C 
HETATM    6  C           1     -21.589  -2.953 -11.173  0.00  0.00     0.038 C 
HETATM    7  C           1     -22.519  -3.711 -10.243  0.00  0.00     0.188 C 
ENDROOT
BRANCH   2   8
HETATM    8  C           1     -20.683  -5.469  -7.295  0.00  0.00     0.275 C 
BRANCH   8   9
HETATM    9  N           1     -19.689  -4.540  -6.662  0.00  0.00    -0.066 N 
HETATM   10  H           1     -20.122  -3.597  -6.540  0.00  0.00     0.275 HD
HETATM   11  H           1     -19.408  -4.916  -5.728  0.00  0.00     0.275 HD
HETATM   12  H           1     -18.847  -4.460  -7.275  0.00  0.00     0.275 HD
ENDBRANCH   8   9
BRANCH   8  13
HETATM   13  C           1     -21.352  -6.307  -6.214  0.00  0.00     0.053 C 
BRANCH  13  14
HETATM   14  C           1     -20.960  -5.775  -4.842  0.00  0.00     0.115 C 
BRANCH  14  15
HETATM   15  C           1     -21.663  -6.572  -3.772  0.00  0.00     0.172 C 
HETATM   16  O           1     -22.332  -5.987  -2.893  0.00  0.00    -0.648 OA
HETATM   17  O           1     -21.576  -7.820  -3.764  0.00  0.00    -0.648 OA
ENDBRANCH  14  15
ENDBRANCH  13  14
ENDBRANCH   8  13
ENDBRANCH   2   8
BRANCH   7  18
HETATM   18  C           1     -23.411  -4.648 -11.021  0.00  0.00     0.196 C 
HETATM   19  O           1     -24.043  -5.547 -10.425  0.00  0.00    -0.646 OA
HETATM   20  O           1     -23.517  -4.526 -12.261  0.00  0.00    -0.646 OA
ENDBRANCH   7  18
TORSDOF 6
ENDMDL
MODEL 2
REMARK VINA RESULT:      -6.0      2.049      2.697
REMARK  6 active torsions:
REMARK  status: ('A' for Active; 'I' for Inactive)
REMARK       I    between atoms: N_1  and  C_6 
REMARK    1  A    between atoms: C_3  and  C_13 
REMARK    2  A    between atoms: C_6  and  C_15 
REMARK    3  A    between atoms: N_8  and  C_15 
REMARK    4  A    between atoms: C_13  and  C_14 
REMARK    5  A    between atoms: C_14  and  C_15 
REMARK    6  A    between atoms: C_16  and  C_19 
ROOT
HETATM    1  N           1     -22.136  -4.485  -8.927  0.00  0.00    -0.336 N 
HETATM    2  C           1     -21.379  -5.065  -7.944  0.00  0.00     0.251 C 
HETATM    3  O           1     -20.504  -5.845  -8.235  0.00  0.00    -0.271 OA
HETATM    4  C           1     -23.227  -3.529  -8.761  0.00  0.00     0.127 C 
HETATM    5  C           1     -24.260  -3.978  -9.781  0.00  0.00     0.022 C 
HETATM    6  C           1     -23.471  -4.744 -10.835  0.00  0.00     0.038 C 
HETATM    7  C           1     -22.027  -4.688 -10.369  0.00  0.00     0.188 C 
ENDROOT
BRANCH   2   8
HETATM    8  C           1     -21.640  -4.730  -6.496  0.00  0.00     0.275 C 
BRANCH   8   9
HETATM    9  N           1     -22.896  -5.414  -6.042  0.00  0.00    -0.066 N 
HETATM   10  H           1     -22.763  -5.781  -5.074  0.00  0.00     0.275 HD
HETATM   11  H           1     -23.686  -4.730  -6.050  0.00  0.00     0.275 HD
HETATM   12  H           1     -23.114  -6.206  -6.688  0.00  0.00     0.275 HD
ENDBRANCH   8   9
BRANCH   8  13
HETATM   13  C           1     -20.469  -5.207  -5.645  0.00  0.00     0.053 C 
BRANCH  13  14
HETATM   14  C           1     -20.948  -6.281  -4.677  0.00  0.00     0.115 C 
BRANCH  14  15
HETATM   15  C           1     -20.555  -7.641  -5.198  0.00  0.00     0.172 C 
HETATM   16  O           1     -19.505  -8.186  -4.793  0.00  0.00    -0.648 OA
HETATM   17  O           1     -21.279  -8.223  -6.035  0.00  0.00    -0.648 OA
ENDBRANCH  14  15
ENDBRANCH  13  14
ENDBRANCH   8  13
ENDBRANCH   2   8
BRANCH   7  18
HETATM   18  C           1     -21.296  -3.540 -11.019  0.00  0.00     0.196 C 
HETATM   19  O           1     -21.893  -2.796 -11.827  0.00  0.00    -0.646 OA
HETATM   20  O           1     -20.093  -3.331 -10.750  0.00  0.00    -0.646 OA
ENDBRANCH   7  18
TORSDOF 6
ENDMDL
MODEL 3
REMARK VINA RESULT:      -5.7      2.058      6.401
REMARK  6 active torsions:
REMARK  status: ('A' for Active; 'I' for Inactive)
REMARK       I    between atoms: N_1  and  C_6 
REMARK    1  A    between atoms: C_3  and  C_13 
REMARK    2  A    between atoms: C_6  and  C_15 
REMARK    3  A    between atoms: N_8  and  C_15 
REMARK    4  A    between atoms: C_13  and  C_14 
REMARK    5  A    between atoms: C_14  and  C_15 
REMARK    6  A    between atoms: C_16  and  C_19 
ROOT
HETATM    1  N           1     -21.252  -6.636  -5.455  0.00  0.00    -0.336 N 
HETATM    2  C           1     -20.964  -6.017  -6.641  0.00  0.00     0.251 C 
HETATM    3  O           1     -20.014  -6.375  -7.296  0.00  0.00    -0.271 OA
HETATM    4  C           1     -22.351  -6.339  -4.540  0.00  0.00     0.127 C 
HETATM    5  C           1     -21.718  -6.457  -3.164  0.00  0.00     0.022 C 
HETATM    6  C           1     -20.517  -7.374  -3.355  0.00  0.00     0.038 C 
HETATM    7  C           1     -20.528  -7.739  -4.829  0.00  0.00     0.188 C 
ENDROOT
BRANCH   2   8
HETATM    8  C           1     -21.833  -4.885  -7.132  0.00  0.00     0.275 C 
BRANCH   8   9
HETATM    9  N           1     -21.167  -3.575  -6.827  0.00  0.00    -0.066 N 
HETATM   10  H           1     -21.889  -2.824  -6.763  0.00  0.00     0.275 HD
HETATM   11  H           1     -20.658  -3.648  -5.917  0.00  0.00     0.275 HD
HETATM   12  H           1     -20.489  -3.344  -7.588  0.00  0.00     0.275 HD
ENDBRANCH   8   9
BRANCH   8  13
HETATM   13  C           1     -22.033  -5.012  -8.637  0.00  0.00     0.053 C 
BRANCH  13  14
HETATM   14  C           1     -22.613  -3.715  -9.184  0.00  0.00     0.115 C 
BRANCH  14  15
HETATM   15  C           1     -23.725  -4.031 -10.154  0.00  0.00     0.172 C 
HETATM   16  O           1     -24.387  -3.104 -10.670  0.00  0.00    -0.648 OA
HETATM   17  O           1     -23.984  -5.220 -10.442  0.00  0.00    -0.648 OA
ENDBRANCH  14  15
ENDBRANCH  13  14
ENDBRANCH   8  13
ENDBRANCH   2   8
BRANCH   7  18
HETATM   18  C           1     -21.246  -9.048  -5.053  0.00  0.00     0.196 C 
HETATM   19  O           1     -21.343  -9.517  -6.207  0.00  0.00    -0.646 OA
HETATM   20  O           1     -21.743  -9.663  -4.084  0.00  0.00    -0.646 OA
ENDBRANCH   7  18
TORSDOF 6
ENDMDL
MODEL 4
REMARK VINA RESULT:      -5.5      1.734      6.415
REMARK  6 active torsions:
REMARK  status: ('A' for Active; 'I' for Inactive)
REMARK       I    between atoms: N_1  and  C_6 
REMARK    1  A    between atoms: C_3  and  C_13 
REMARK    2  A    between atoms: C_6  and  C_15 
REMARK    3  A    between atoms: N_8  and  C_15 
REMARK    4  A    between atoms: C_13  and  C_14 
REMARK    5  A    between atoms: C_14  and  C_15 
REMARK    6  A    between atoms: C_16  and  C_19 
ROOT
HETATM    1  N           1     -21.547  -6.286  -5.541  0.00  0.00    -0.336 N 
HETATM    2  C           1     -22.306  -5.403  -6.262  0.00  0.00     0.251 C 
HETATM    3  O           1     -23.502  -5.363  -6.103  0.00  0.00    -0.271 OA
HETATM    4  C           1     -20.100  -6.471  -5.603  0.00  0.00     0.127 C 
HETATM    5  C           1     -19.924  -7.978  -5.519  0.00  0.00     0.022 C 
HETATM    6  C           1     -21.181  -8.487  -4.826  0.00  0.00     0.038 C 
HETATM    7  C           1     -22.008  -7.246  -4.543  0.00  0.00     0.188 C 
ENDROOT
BRANCH   2   8
HETATM    8  C           1     -21.647  -4.480  -7.257  0.00  0.00     0.275 C 
BRANCH   8   9
HETATM    9  N           1     -20.851  -5.289  -8.239  0.00  0.00    -0.066 N 
HETATM   10  H           1     -19.967  -5.614  -7.787  0.00  0.00     0.275 HD
HETATM   11  H           1     -21.412  -6.117  -8.542  0.00  0.00     0.275 HD
HETATM   12  H           1     -20.621  -4.700  -9.070  0.00  0.00     0.275 HD
ENDBRANCH   8   9
BRANCH   8  13
HETATM   13  C           1     -22.715  -3.690  -8.003  0.00  0.00     0.053 C 
BRANCH  13  14
HETATM   14  C           1     -22.846  -4.225  -9.422  0.00  0.00     0.115 C 
BRANCH  14  15
HETATM   15  C           1     -24.108  -3.688 -10.049  0.00  0.00     0.172 C 
HETATM   16  O           1     -24.413  -4.011 -11.218  0.00  0.00    -0.648 OA
HETATM   17  O           1     -24.852  -2.920  -9.399  0.00  0.00    -0.648 OA
ENDBRANCH  14  15
ENDBRANCH  13  14
ENDBRANCH   8  13
ENDBRANCH   2   8
BRANCH   7  18
HETATM   18  C           1     -21.750  -6.735  -3.147  0.00  0.00     0.196 C 
HETATM   19  O           1     -20.864  -7.265  -2.442  0.00  0.00    -0.646 OA
HETATM   20  O           1     -22.421  -5.782  -2.695  0.00  0.00    -0.646 OA
ENDBRANCH   7  18
TORSDOF 6
ENDMDL
MODEL 5
REMARK VINA RESULT:      -5.4      2.886      4.144
REMARK  6 active torsions:
REMARK  status: ('A' for Active; 'I' for Inactive)
REMARK       I    between atoms: N_1  and  C_6 
REMARK    1  A    between atoms: C_3  and  C_13 
REMARK    2  A    between atoms: C_6  and  C_15 
REMARK    3  A    between atoms: N_8  and  C_15 
REMARK    4  A    between atoms: C_13  and  C_14 
REMARK    5  A    between atoms: C_14  and  C_15 
REMARK    6  A    between atoms: C_16  and  C_19 
ROOT
HETATM    1  N           1     -21.234  -5.870  -6.641  0.00  0.00    -0.336 N 
HETATM    2  C           1     -20.995  -6.960  -5.847  0.00  0.00     0.251 C 
HETATM    3  O           1     -20.137  -7.754  -6.153  0.00  0.00    -0.271 OA
HETATM    4  C           1     -22.223  -4.816  -6.430  0.00  0.00     0.127 C 
HETATM    5  C           1     -22.774  -4.553  -7.821  0.00  0.00     0.022 C 
HETATM    6  C           1     -21.680  -5.013  -8.776  0.00  0.00     0.038 C 
HETATM    7  C           1     -20.557  -5.509  -7.883  0.00  0.00     0.188 C 
ENDROOT
BRANCH   2   8
HETATM    8  C           1     -21.803  -7.169  -4.590  0.00  0.00     0.275 C 
BRANCH   8   9
HETATM    9  N           1     -21.856  -8.634  -4.268  0.00  0.00    -0.066 N 
HETATM   10  H           1     -22.526  -9.109  -4.912  0.00  0.00     0.275 HD
HETATM   11  H           1     -20.904  -9.050  -4.388  0.00  0.00     0.275 HD
HETATM   12  H           1     -22.170  -8.762  -3.280  0.00  0.00     0.275 HD
ENDBRANCH   8   9
BRANCH   8  13
HETATM   13  C           1     -21.150  -6.421  -3.435  0.00  0.00     0.053 C 
BRANCH  13  14
HETATM   14  C           1     -22.194  -6.121  -2.368  0.00  0.00     0.115 C 
BRANCH  14  15
HETATM   15  C           1     -22.052  -7.106  -1.234  0.00  0.00     0.172 C 
HETATM   16  O           1     -21.091  -7.905  -1.216  0.00  0.00    -0.648 OA
HETATM   17  O           1     -22.896  -7.121  -0.310  0.00  0.00    -0.648 OA
ENDBRANCH  14  15
ENDBRANCH  13  14
ENDBRANCH   8  13
ENDBRANCH   2   8
BRANCH   7  18
HETATM   18  C           1     -19.540  -4.420  -7.643  0.00  0.00     0.196 C 
HETATM   19  O           1     -19.505  -3.422  -8.394  0.00  0.00    -0.646 OA
HETATM   20  O           1     -18.733  -4.517  -6.693  0.00  0.00    -0.646 OA
ENDBRANCH   7  18
TORSDOF 6
ENDMDL
MODEL 6
REMARK VINA RESULT:      -5.3      5.140      9.440
REMARK  6 active torsions:
REMARK  status: ('A' for Active; 'I' for Inactive)
REMARK       I    between atoms: N_1  and  C_6 
REMARK    1  A    between atoms: C_3  and  C_13 
REMARK    2  A    between atoms: C_6  and  C_15 
REMARK    3  A    between atoms: N_8  and  C_15 
REMARK    4  A    between atoms: C_13  and  C_14 
REMARK    5  A    between atoms: C_14  and  C_15 
REMARK    6  A    between atoms: C_16  and  C_19 
ROOT
HETATM    1  N           1     -22.417  -9.488  -0.873  0.00  0.00    -0.336 N 
HETATM    2  C           1     -22.132  -8.149  -0.894  0.00  0.00     0.251 C 
HETATM    3  O           1     -22.013  -7.539   0.142  0.00  0.00    -0.271 OA
HETATM    4  C           1     -22.595 -10.377  -2.017  0.00  0.00     0.127 C 
HETATM    5  C           1     -23.763 -11.260  -1.612  0.00  0.00     0.022 C 
HETATM    6  C           1     -23.775 -11.230  -0.089  0.00  0.00     0.038 C 
HETATM    7  C           1     -22.609 -10.338   0.299  0.00  0.00     0.188 C 
ENDROOT
BRANCH   2   8
HETATM    8  C           1     -21.967  -7.434  -2.213  0.00  0.00     0.275 C 
BRANCH   8   9
HETATM    9  N           1     -22.371  -5.997  -2.056  0.00  0.00    -0.066 N 
HETATM   10  H           1     -21.616  -5.380  -2.430  0.00  0.00     0.275 HD
HETATM   11  H           1     -23.255  -5.825  -2.587  0.00  0.00     0.275 HD
HETATM   12  H           1     -22.525  -5.787  -1.045  0.00  0.00     0.275 HD
ENDBRANCH   8   9
BRANCH   8  13
HETATM   13  C           1     -20.509  -7.504  -2.651  0.00  0.00     0.053 C 
BRANCH  13  14
HETATM   14  C           1     -20.423  -8.148  -4.028  0.00  0.00     0.115 C 
BRANCH  14  15
HETATM   15  C           1     -20.778  -7.131  -5.084  0.00  0.00     0.172 C 
HETATM   16  O           1     -20.735  -5.911  -4.815  0.00  0.00    -0.648 OA
HETATM   17  O           1     -21.114  -7.508  -6.228  0.00  0.00    -0.648 OA
ENDBRANCH  14  15
ENDBRANCH  13  14
ENDBRANCH   8  13
ENDBRANCH   2   8
BRANCH   7  18
HETATM   18  C           1     -21.374 -11.158   0.575  0.00  0.00     0.196 C 
HETATM   19  O           1     -21.470 -12.391   0.755  0.00  0.00    -0.646 OA
HETATM   20  O           1     -20.253 -10.605   0.625  0.00  0.00    -0.646 OA
ENDBRANCH   7  18
TORSDOF 6
ENDMDL
MODEL 7
REMARK VINA RESULT:      -5.2      4.359      8.951
REMARK  6 active torsions:
REMARK  status: ('A' for Active; 'I' for Inactive)
REMARK       I    between atoms: N_1  and  C_6 
REMARK    1  A    between atoms: C_3  and  C_13 
REMARK    2  A    between atoms: C_6  and  C_15 
REMARK    3  A    between atoms: N_8  and  C_15 
REMARK    4  A    between atoms: C_13  and  C_14 
REMARK    5  A    between atoms: C_14  and  C_15 
REMARK    6  A    between atoms: C_16  and  C_19 
ROOT
HETATM    1  N           1     -21.527  -8.452  -1.087  0.00  0.00    -0.336 N 
HETATM    2  C           1     -21.108  -8.000  -2.309  0.00  0.00     0.251 C 
HETATM    3  O           1     -20.102  -8.445  -2.807  0.00  0.00    -0.271 OA
HETATM    4  C           1     -22.708  -8.031  -0.340  0.00  0.00     0.127 C 
HETATM    5  C           1     -22.223  -7.963   1.098  0.00  0.00     0.022 C 
HETATM    6  C           1     -21.023  -8.901   1.158  0.00  0.00     0.038 C 
HETATM    7  C           1     -20.889  -9.462  -0.246  0.00  0.00     0.188 C 
ENDROOT
BRANCH   2   8
HETATM    8  C           1     -21.904  -6.943  -3.035  0.00  0.00     0.275 C 
BRANCH   8   9
HETATM    9  N           1     -21.245  -5.608  -2.853  0.00  0.00    -0.066 N 
HETATM   10  H           1     -21.939  -4.924  -2.478  0.00  0.00     0.275 HD
HETATM   11  H           1     -20.450  -5.701  -2.181  0.00  0.00     0.275 HD
HETATM   12  H           1     -20.884  -5.269  -3.774  0.00  0.00     0.275 HD
ENDBRANCH   8   9
BRANCH   8  13
HETATM   13  C           1     -21.962  -7.280  -4.520  0.00  0.00     0.053 C 
BRANCH  13  14
HETATM   14  C           1     -21.352  -6.141  -5.324  0.00  0.00     0.115 C 
BRANCH  14  15
HETATM   15  C           1     -20.302  -6.690  -6.259  0.00  0.00     0.172 C 
HETATM   16  O           1     -19.661  -7.716  -5.946  0.00  0.00    -0.648 OA
HETATM   17  O           1     -20.075  -6.118  -7.348  0.00  0.00    -0.648 OA
ENDBRANCH  14  15
ENDBRANCH  13  14
ENDBRANCH   8  13
ENDBRANCH   2   8
BRANCH   7  18
HETATM   18  C           1     -21.600 -10.787  -0.366  0.00  0.00     0.196 C 
HETATM   19  O           1     -21.917 -11.227  -1.492  0.00  0.00    -0.646 OA
HETATM   20  O           1     -21.873 -11.446   0.662  0.00  0.00    -0.646 OA
ENDBRANCH   7  18
TORSDOF 6
ENDMDL
MODEL 8
REMARK VINA RESULT:      -5.2      6.555     10.632
REMARK  6 active torsions:
REMARK  status: ('A' for Active; 'I' for Inactive)
REMARK       I    between atoms: N_1  and  C_6 
REMARK    1  A    between atoms: C_3  and  C_13 
REMARK    2  A    between atoms: C_6  and  C_15 
REMARK    3  A    between atoms: N_8  and  C_15 
REMARK    4  A    between atoms: C_13  and  C_14 
REMARK    5  A    between atoms: C_14  and  C_15 
REMARK    6  A    between atoms: C_16  and  C_19 
ROOT
HETATM    1  N           1     -22.077 -10.954   0.211  0.00  0.00    -0.336 N 
HETATM    2  C           1     -21.786  -9.636   0.438  0.00  0.00     0.251 C 
HETATM    3  O           1     -20.932  -9.333   1.237  0.00  0.00    -0.271 OA
HETATM    4  C           1     -23.069 -11.501  -0.710  0.00  0.00     0.127 C 
HETATM    5  C           1     -23.687 -12.653   0.064  0.00  0.00     0.022 C 
HETATM    6  C           1     -22.632 -13.057   1.085  0.00  0.00     0.038 C 
HETATM    7  C           1     -21.462 -12.121   0.839  0.00  0.00     0.188 C 
ENDROOT
BRANCH   2   8
HETATM    8  C           1     -22.532  -8.559  -0.312  0.00  0.00     0.275 C 
BRANCH   8   9
HETATM    9  N           1     -23.554  -7.937   0.594  0.00  0.00    -0.066 N 
HETATM   10  H           1     -23.117  -7.723   1.518  0.00  0.00     0.275 HD
HETATM   11  H           1     -23.906  -7.052   0.163  0.00  0.00     0.275 HD
HETATM   12  H           1     -24.350  -8.600   0.729  0.00  0.00     0.275 HD
ENDBRANCH   8   9
BRANCH   8  13
HETATM   13  C           1     -21.552  -7.491  -0.778  0.00  0.00     0.053 C 
BRANCH  13  14
HETATM   14  C           1     -22.265  -6.515  -1.704  0.00  0.00     0.115 C 
BRANCH  14  15
HETATM   15  C           1     -21.756  -6.694  -3.113  0.00  0.00     0.172 C 
HETATM   16  O           1     -22.295  -6.075  -4.056  0.00  0.00    -0.648 OA
HETATM   17  O           1     -20.793  -7.461  -3.337  0.00  0.00    -0.648 OA
ENDBRANCH  14  15
ENDBRANCH  13  14
ENDBRANCH   8  13
ENDBRANCH   2   8
BRANCH   7  18
HETATM   18  C           1     -20.451 -12.756  -0.083  0.00  0.00     0.196 C 
HETATM   19  O           1     -19.558 -12.056  -0.608  0.00  0.00    -0.646 OA
HETATM   20  O           1     -20.505 -13.982  -0.323  0.00  0.00    -0.646 OA
ENDBRANCH   7  18
TORSDOF 6
ENDMDL
MODEL 9
REMARK VINA RESULT:      -5.0      7.653     10.353
REMARK  6 active torsions:
REMARK  status: ('A' for Active; 'I' for Inactive)
REMARK       I    between atoms: N_1  and  C_6 
REMARK    1  A    between atoms: C_3  and  C_13 
REMARK    2  A    between atoms: C_6  and  C_15 
REMARK    3  A    between atoms: N_8  and  C_15 
REMARK    4  A    between atoms: C_13  and  C_14 
REMARK    5  A    between atoms: C_14  and  C_15 
REMARK    6  A    between atoms: C_16  and  C_19 
ROOT
HETATM    1  N           1     -21.480  -9.702  -0.773  0.00  0.00    -0.336 N 
HETATM    2  C           1     -21.289 -10.649   0.197  0.00  0.00     0.251 C 
HETATM    3  O           1     -20.795 -10.339   1.255  0.00  0.00    -0.271 OA
HETATM    4  C           1     -22.058  -9.894  -2.100  0.00  0.00     0.127 C 
HETATM    5  C           1     -21.189  -9.032  -3.001  0.00  0.00     0.022 C 
HETATM    6  C           1     -20.590  -7.974  -2.083  0.00  0.00     0.038 C 
HETATM    7  C           1     -21.152  -8.281  -0.706  0.00  0.00     0.188 C 
ENDROOT
BRANCH   2   8
HETATM    8  C           1     -21.694 -12.080  -0.055  0.00  0.00     0.275 C 
BRANCH   8   9
HETATM    9  N           1     -20.600 -12.998   0.405  0.00  0.00    -0.066 N 
HETATM   10  H           1     -20.854 -13.985   0.178  0.00  0.00     0.275 HD
HETATM   11  H           1     -19.709 -12.748  -0.081  0.00  0.00     0.275 HD
HETATM   12  H           1     -20.473 -12.899   1.438  0.00  0.00     0.275 HD
ENDBRANCH   8   9
BRANCH   8  13
HETATM   13  C           1     -22.971 -12.391   0.715  0.00  0.00     0.053 C 
BRANCH  13  14
HETATM   14  C           1     -23.110 -13.898   0.883  0.00  0.00     0.115 C 
BRANCH  14  15
HETATM   15  C           1     -23.079 -14.246   2.351  0.00  0.00     0.172 C 
HETATM   16  O           1     -24.149 -14.368   2.987  0.00  0.00    -0.648 OA
HETATM   17  O           1     -21.984 -14.412   2.931  0.00  0.00    -0.648 OA
ENDBRANCH  14  15
ENDBRANCH  13  14
ENDBRANCH   8  13
ENDBRANCH   2   8
BRANCH   7  18
HETATM   18  C           1     -22.386  -7.457  -0.433  0.00  0.00     0.196 C 
HETATM   19  O           1     -22.614  -6.431  -1.109  0.00  0.00    -0.646 OA
HETATM   20  O           1     -23.181  -7.801   0.469  0.00  0.00    -0.646 OA
ENDBRANCH   7  18
TORSDOF 6
ENDMDL
