MODEL 1
REMARK VINA RESULT:      -8.5      0.000      0.000
REMARK  8 active torsions:
REMARK  status: ('A' for Active; 'I' for Inactive)
REMARK    1  A    between atoms: C_3  and  C_25 
REMARK    2  A    between atoms: C_3  and  C_11 
REMARK    3  A    between atoms: C_5  and  C_30 
REMARK    4  A    between atoms: N_6  and  C_25 
REMARK    5  A    between atoms: N_15  and  C_31 
REMARK       I    between atoms: N_15  and  C_24 
REMARK    6  A    between atoms: C_24  and  C_25 
REMARK    7  A    between atoms: C_26  and  C_31 
REMARK    8  A    between atoms: C_30  and  C_31 
ROOT
HETATM    1  H           1     -20.467  -4.435  -4.607  0.00  0.00     0.163 HD
HETATM    2  N           1     -20.920  -5.213  -5.068  0.00  0.00    -0.344 N 
HETATM    3  O           1     -21.938  -7.193  -4.880  0.00  0.00    -0.271 OA
HETATM    4  C           1     -21.397  -6.263  -4.330  0.00  0.00     0.249 C 
ENDROOT
BRANCH   4   5
HETATM    5  C           1     -21.248  -6.259  -2.828  0.00  0.00     0.278 C 
BRANCH   5   6
HETATM    6  C           1     -20.710  -7.607  -2.367  0.00  0.00     0.083 C 
BRANCH   6   7
HETATM    7  C           1     -21.623  -8.181  -1.329  0.00  0.00    -0.028 A 
HETATM    8  C           1     -22.346  -9.401  -1.431  0.00  0.00    -0.002 A 
HETATM    9  C           1     -22.456 -10.395  -2.422  0.00  0.00     0.014 A 
HETATM   10  C           1     -23.067  -9.552  -0.246  0.00  0.00     0.042 A 
HETATM   11  C           1     -23.281 -11.502  -2.193  0.00  0.00     0.001 A 
HETATM   12  C           1     -23.990 -11.627  -1.000  0.00  0.00     0.002 A 
HETATM   13  C           1     -23.898 -10.652  -0.000  0.00  0.00     0.030 A 
HETATM   14  N           1     -22.786  -8.457   0.540  0.00  0.00    -0.365 N 
HETATM   15  H           1     -23.183  -8.287   1.498  0.00  0.00     0.165 HD
HETATM   16  C           1     -21.914  -7.621  -0.105  0.00  0.00     0.096 A 
ENDBRANCH   6   7
ENDBRANCH   5   6
BRANCH   5  17
HETATM   17  N           1     -22.584  -6.010  -2.195  0.00  0.00    -0.066 N 
HETATM   18  H           1     -22.822  -4.995  -2.268  0.00  0.00     0.275 HD
HETATM   19  H           1     -23.313  -6.575  -2.686  0.00  0.00     0.275 HD
HETATM   20  H           1     -22.549  -6.286  -1.187  0.00  0.00     0.275 HD
ENDBRANCH   5  17
ENDBRANCH   4   5
BRANCH   2  21
HETATM   21  C           1     -21.064  -5.217  -6.511  0.00  0.00     0.191 C 
BRANCH  21  22
HETATM   22  C           1     -19.761  -5.636  -7.146  0.00  0.00     0.197 C 
HETATM   23  O           1     -19.400  -6.832  -7.100  0.00  0.00    -0.646 OA
HETATM   24  O           1     -19.043  -4.788  -7.718  0.00  0.00    -0.646 OA
ENDBRANCH  21  22
BRANCH  21  25
HETATM   25  C           1     -21.434  -3.819  -6.988  0.00  0.00     0.094 C 
BRANCH  25  26
HETATM   26  C           1     -22.382  -3.919  -8.141  0.00  0.00     0.028 A 
HETATM   27  C           1     -22.009  -3.904  -9.464  0.00  0.00     0.114 A 
HETATM   28  N           1     -23.178  -4.017 -10.164  0.00  0.00    -0.360 N 
HETATM   29  C           1     -24.194  -4.094  -9.255  0.00  0.00     0.180 A 
HETATM   30  H           1     -23.276  -4.040 -11.209  0.00  0.00     0.166 HD
HETATM   31  N           1     -23.744  -4.037  -8.023  0.00  0.00    -0.354 N 
ATOM     32  HN          1     -24.289  -4.075  -7.162  1.00  0.00     0.166 HD
ENDBRANCH  25  26
ENDBRANCH  21  25
ENDBRANCH   2  21
TORSDOF 8
ENDMDL
MODEL 2
REMARK VINA RESULT:      -8.4      3.780      8.067
REMARK  8 active torsions:
REMARK  status: ('A' for Active; 'I' for Inactive)
REMARK    1  A    between atoms: C_3  and  C_25 
REMARK    2  A    between atoms: C_3  and  C_11 
REMARK    3  A    between atoms: C_5  and  C_30 
REMARK    4  A    between atoms: N_6  and  C_25 
REMARK    5  A    between atoms: N_15  and  C_31 
REMARK       I    between atoms: N_15  and  C_24 
REMARK    6  A    between atoms: C_24  and  C_25 
REMARK    7  A    between atoms: C_26  and  C_31 
REMARK    8  A    between atoms: C_30  and  C_31 
ROOT
HETATM    1  H           1     -19.379  -7.287  -4.030  0.00  0.00     0.163 HD
HETATM    2  N           1     -19.745  -8.090  -4.526  0.00  0.00    -0.344 N 
HETATM    3  O           1     -21.304  -8.920  -5.892  0.00  0.00    -0.271 OA
HETATM    4  C           1     -20.866  -7.963  -5.301  0.00  0.00     0.249 C 
ENDROOT
BRANCH   4   5
HETATM    5  C           1     -21.555  -6.625  -5.417  0.00  0.00     0.278 C 
BRANCH   5   6
HETATM    6  C           1     -20.766  -5.727  -6.361  0.00  0.00     0.083 C 
BRANCH   6   7
HETATM    7  C           1     -21.707  -5.027  -7.289  0.00  0.00    -0.028 A 
HETATM    8  C           1     -21.425  -4.623  -8.624  0.00  0.00    -0.002 A 
HETATM    9  C           1     -20.296  -4.722  -9.458  0.00  0.00     0.014 A 
HETATM   10  C           1     -22.575  -4.009  -9.120  0.00  0.00     0.042 A 
HETATM   11  C           1     -20.357  -4.205 -10.758  0.00  0.00     0.001 A 
HETATM   12  C           1     -21.520  -3.597 -11.227  0.00  0.00     0.002 A 
HETATM   13  C           1     -22.654  -3.487 -10.416  0.00  0.00     0.030 A 
HETATM   14  N           1     -23.517  -4.044  -8.116  0.00  0.00    -0.365 N 
HETATM   15  H           1     -24.490  -3.656  -8.191  0.00  0.00     0.165 HD
HETATM   16  C           1     -23.002  -4.657  -7.005  0.00  0.00     0.096 A 
ENDBRANCH   6   7
ENDBRANCH   5   6
BRANCH   5  17
HETATM   17  N           1     -21.632  -5.983  -4.064  0.00  0.00    -0.066 N 
HETATM   18  H           1     -22.475  -5.368  -4.017  0.00  0.00     0.275 HD
HETATM   19  H           1     -21.699  -6.723  -3.331  0.00  0.00     0.275 HD
HETATM   20  H           1     -20.773  -5.408  -3.903  0.00  0.00     0.275 HD
ENDBRANCH   5  17
ENDBRANCH   4   5
BRANCH   2  21
HETATM   21  C           1     -19.083  -9.375  -4.414  0.00  0.00     0.191 C 
BRANCH  21  22
HETATM   22  C           1     -18.522  -9.534  -3.022  0.00  0.00     0.197 C 
HETATM   23  O           1     -19.295  -9.618  -2.043  0.00  0.00    -0.646 OA
HETATM   24  O           1     -17.286  -9.582  -2.848  0.00  0.00    -0.646 OA
ENDBRANCH  21  22
BRANCH  21  25
HETATM   25  C           1     -17.950  -9.452  -5.429  0.00  0.00     0.094 C 
BRANCH  25  26
HETATM   26  C           1     -18.066 -10.721  -6.212  0.00  0.00     0.028 A 
HETATM   27  C           1     -17.045 -11.622  -6.397  0.00  0.00     0.114 A 
HETATM   28  N           1     -17.584 -12.619  -7.162  0.00  0.00    -0.360 N 
HETATM   29  C           1     -18.886 -12.288  -7.407  0.00  0.00     0.180 A 
HETATM   30  H           1     -17.087 -13.480  -7.500  0.00  0.00     0.166 HD
HETATM   31  N           1     -19.206 -11.146  -6.845  0.00  0.00    -0.354 N 
ATOM     32  HN          1     -20.110 -10.675  -6.872  1.00  0.00     0.166 HD
ENDBRANCH  25  26
ENDBRANCH  21  25
ENDBRANCH   2  21
TORSDOF 8
ENDMDL
MODEL 3
REMARK VINA RESULT:      -8.3      3.218      8.238
REMARK  8 active torsions:
REMARK  status: ('A' for Active; 'I' for Inactive)
REMARK    1  A    between atoms: C_3  and  C_25 
REMARK    2  A    between atoms: C_3  and  C_11 
REMARK    3  A    between atoms: C_5  and  C_30 
REMARK    4  A    between atoms: N_6  and  C_25 
REMARK    5  A    between atoms: N_15  and  C_31 
REMARK       I    between atoms: N_15  and  C_24 
REMARK    6  A    between atoms: C_24  and  C_25 
REMARK    7  A    between atoms: C_26  and  C_31 
REMARK    8  A    between atoms: C_30  and  C_31 
ROOT
HETATM    1  H           1     -21.983  -8.756  -4.537  0.00  0.00     0.163 HD
HETATM    2  N           1     -21.092  -8.700  -5.013  0.00  0.00    -0.344 N 
HETATM    3  O           1     -19.593  -7.434  -6.080  0.00  0.00    -0.271 OA
HETATM    4  C           1     -20.656  -7.501  -5.510  0.00  0.00     0.249 C 
ENDROOT
BRANCH   4   5
HETATM    5  C           1     -21.503  -6.263  -5.346  0.00  0.00     0.278 C 
BRANCH   5   6
HETATM    6  C           1     -20.883  -5.115  -6.130  0.00  0.00     0.083 C 
BRANCH   6   7
HETATM    7  C           1     -21.809  -4.702  -7.231  0.00  0.00    -0.028 A 
HETATM    8  C           1     -21.457  -4.506  -8.595  0.00  0.00    -0.002 A 
HETATM    9  C           1     -20.256  -4.614  -9.321  0.00  0.00     0.014 A 
HETATM   10  C           1     -22.618  -4.128  -9.269  0.00  0.00     0.042 A 
HETATM   11  C           1     -20.260  -4.342 -10.694  0.00  0.00     0.001 A 
HETATM   12  C           1     -21.435  -3.966 -11.342  0.00  0.00     0.002 A 
HETATM   13  C           1     -22.640  -3.852 -10.641  0.00  0.00     0.030 A 
HETATM   14  N           1     -23.633  -4.099  -8.340  0.00  0.00    -0.365 N 
HETATM   15  H           1     -24.632  -3.847  -8.548  0.00  0.00     0.165 HD
HETATM   16  C           1     -23.155  -4.444  -7.104  0.00  0.00     0.096 A 
ENDBRANCH   6   7
ENDBRANCH   5   6
BRANCH   5  17
HETATM   17  N           1     -21.574  -5.896  -3.894  0.00  0.00    -0.066 N 
HETATM   18  H           1     -20.927  -6.508  -3.347  0.00  0.00     0.275 HD
HETATM   19  H           1     -21.293  -4.897  -3.774  0.00  0.00     0.275 HD
HETATM   20  H           1     -22.552  -6.027  -3.549  0.00  0.00     0.275 HD
ENDBRANCH   5  17
ENDBRANCH   4   5
BRANCH   2  21
HETATM   21  C           1     -20.278  -9.889  -5.171  0.00  0.00     0.191 C 
BRANCH  21  22
HETATM   22  C           1     -21.150 -11.044  -5.600  0.00  0.00     0.197 C 
HETATM   23  O           1     -21.076 -11.482  -6.768  0.00  0.00    -0.646 OA
HETATM   24  O           1     -21.946 -11.561  -4.788  0.00  0.00    -0.646 OA
ENDBRANCH  21  22
BRANCH  21  25
HETATM   25  C           1     -19.609 -10.225  -3.844  0.00  0.00     0.094 C 
BRANCH  25  26
HETATM   26  C           1     -18.134  -9.994  -3.956  0.00  0.00     0.028 A 
HETATM   27  C           1     -17.275  -9.897  -2.887  0.00  0.00     0.114 A 
HETATM   28  N           1     -16.043  -9.688  -3.441  0.00  0.00    -0.360 N 
HETATM   29  C           1     -16.201  -9.667  -4.797  0.00  0.00     0.180 A 
HETATM   30  H           1     -15.140  -9.567  -2.918  0.00  0.00     0.166 HD
HETATM   31  N           1     -17.455  -9.849  -5.138  0.00  0.00    -0.354 N 
ATOM     32  HN          1     -17.842  -9.878  -6.082  1.00  0.00     0.166 HD
ENDBRANCH  25  26
ENDBRANCH  21  25
ENDBRANCH   2  21
TORSDOF 8
ENDMDL
MODEL 4
REMARK VINA RESULT:      -8.3      1.957      2.537
REMARK  8 active torsions:
REMARK  status: ('A' for Active; 'I' for Inactive)
REMARK    1  A    between atoms: C_3  and  C_25 
REMARK    2  A    between atoms: C_3  and  C_11 
REMARK    3  A    between atoms: C_5  and  C_30 
REMARK    4  A    between atoms: N_6  and  C_25 
REMARK    5  A    between atoms: N_15  and  C_31 
REMARK       I    between atoms: N_15  and  C_24 
REMARK    6  A    between atoms: C_24  and  C_25 
REMARK    7  A    between atoms: C_26  and  C_31 
REMARK    8  A    between atoms: C_30  and  C_31 
ROOT
HETATM    1  H           1     -21.093  -4.500  -5.538  0.00  0.00     0.163 HD
HETATM    2  N           1     -21.149  -5.240  -6.225  0.00  0.00    -0.344 N 
HETATM    3  O           1     -21.167  -7.434  -6.647  0.00  0.00    -0.271 OA
HETATM    4  C           1     -21.100  -6.549  -5.827  0.00  0.00     0.249 C 
ENDROOT
BRANCH   4   5
HETATM    5  C           1     -20.965  -6.888  -4.363  0.00  0.00     0.278 C 
BRANCH   5   6
HETATM    6  C           1     -21.881  -8.056  -4.024  0.00  0.00     0.083 C 
BRANCH   6   7
HETATM    7  C           1     -21.278  -8.859  -2.914  0.00  0.00    -0.028 A 
HETATM    8  C           1     -21.490  -8.659  -1.522  0.00  0.00    -0.002 A 
HETATM    9  C           1     -22.250  -7.744  -0.769  0.00  0.00     0.014 A 
HETATM   10  C           1     -20.741  -9.624  -0.849  0.00  0.00     0.042 A 
HETATM   11  C           1     -22.235  -7.828   0.628  0.00  0.00     0.001 A 
HETATM   12  C           1     -21.477  -8.803   1.274  0.00  0.00     0.002 A 
HETATM   13  C           1     -20.713  -9.722   0.547  0.00  0.00     0.030 A 
HETATM   14  N           1     -20.101 -10.379  -1.806  0.00  0.00    -0.365 N 
HETATM   15  H           1     -19.460 -11.187  -1.605  0.00  0.00     0.165 HD
HETATM   16  C           1     -20.419  -9.925  -3.059  0.00  0.00     0.096 A 
ENDBRANCH   6   7
ENDBRANCH   5   6
BRANCH   5  17
HETATM   17  N           1     -21.349  -5.696  -3.537  0.00  0.00    -0.066 N 
HETATM   18  H           1     -21.570  -6.003  -2.563  0.00  0.00     0.275 HD
HETATM   19  H           1     -20.555  -5.018  -3.516  0.00  0.00     0.275 HD
HETATM   20  H           1     -22.189  -5.238  -3.957  0.00  0.00     0.275 HD
ENDBRANCH   5  17
ENDBRANCH   4   5
BRANCH   2  21
HETATM   21  C           1     -21.280  -4.915  -7.632  0.00  0.00     0.191 C 
BRANCH  21  22
HETATM   22  C           1     -19.943  -4.469  -8.173  0.00  0.00     0.197 C 
HETATM   23  O           1     -19.850  -4.066  -9.352  0.00  0.00    -0.646 OA
HETATM   24  O           1     -18.930  -4.504  -7.442  0.00  0.00    -0.646 OA
ENDBRANCH  21  22
BRANCH  21  25
HETATM   25  C           1     -22.295  -3.793  -7.801  0.00  0.00     0.094 C 
BRANCH  25  26
HETATM   26  C           1     -23.131  -4.054  -9.015  0.00  0.00     0.028 A 
HETATM   27  C           1     -24.326  -3.433  -9.290  0.00  0.00     0.114 A 
HETATM   28  N           1     -24.736  -3.965 -10.481  0.00  0.00    -0.360 N 
HETATM   29  C           1     -23.793  -4.870 -10.873  0.00  0.00     0.180 A 
HETATM   30  H           1     -25.617  -3.722 -10.998  0.00  0.00     0.166 HD
HETATM   31  N           1     -22.809  -4.945 -10.007  0.00  0.00    -0.354 N 
ATOM     32  HN          1     -21.982  -5.539 -10.060  1.00  0.00     0.166 HD
ENDBRANCH  25  26
ENDBRANCH  21  25
ENDBRANCH   2  21
TORSDOF 8
ENDMDL
MODEL 5
REMARK VINA RESULT:      -8.2      2.227      8.067
REMARK  8 active torsions:
REMARK  status: ('A' for Active; 'I' for Inactive)
REMARK    1  A    between atoms: C_3  and  C_25 
REMARK    2  A    between atoms: C_3  and  C_11 
REMARK    3  A    between atoms: C_5  and  C_30 
REMARK    4  A    between atoms: N_6  and  C_25 
REMARK    5  A    between atoms: N_15  and  C_31 
REMARK       I    between atoms: N_15  and  C_24 
REMARK    6  A    between atoms: C_24  and  C_25 
REMARK    7  A    between atoms: C_26  and  C_31 
REMARK    8  A    between atoms: C_30  and  C_31 
ROOT
HETATM    1  H           1     -21.124  -8.306  -3.877  0.00  0.00     0.163 HD
HETATM    2  N           1     -20.409  -8.276  -4.592  0.00  0.00    -0.344 N 
HETATM    3  O           1     -19.584  -7.260  -6.402  0.00  0.00    -0.271 OA
HETATM    4  C           1     -20.437  -7.297  -5.548  0.00  0.00     0.249 C 
ENDROOT
BRANCH   4   5
HETATM    5  C           1     -21.535  -6.261  -5.534  0.00  0.00     0.278 C 
BRANCH   5   6
HETATM    6  C           1     -21.034  -4.979  -6.187  0.00  0.00     0.083 C 
BRANCH   6   7
HETATM    7  C           1     -21.935  -4.611  -7.323  0.00  0.00    -0.028 A 
HETATM    8  C           1     -21.546  -4.438  -8.680  0.00  0.00    -0.002 A 
HETATM    9  C           1     -20.322  -4.536  -9.369  0.00  0.00     0.014 A 
HETATM   10  C           1     -22.694  -4.099  -9.397  0.00  0.00     0.042 A 
HETATM   11  C           1     -20.291  -4.295 -10.747  0.00  0.00     0.001 A 
HETATM   12  C           1     -21.453  -3.958 -11.437  0.00  0.00     0.002 A 
HETATM   13  C           1     -22.681  -3.853 -10.775  0.00  0.00     0.030 A 
HETATM   14  N           1     -23.737  -4.070  -8.499  0.00  0.00    -0.365 N 
HETATM   15  H           1     -24.734  -3.844  -8.742  0.00  0.00     0.165 HD
HETATM   16  C           1     -23.289  -4.378  -7.242  0.00  0.00     0.096 A 
ENDBRANCH   6   7
ENDBRANCH   5   6
BRANCH   5  17
HETATM   17  N           1     -21.935  -5.976  -4.117  0.00  0.00    -0.066 N 
HETATM   18  H           1     -22.507  -6.770  -3.751  0.00  0.00     0.275 HD
HETATM   19  H           1     -21.079  -5.864  -3.530  0.00  0.00     0.275 HD
HETATM   20  H           1     -22.500  -5.097  -4.085  0.00  0.00     0.275 HD
ENDBRANCH   5  17
ENDBRANCH   4   5
BRANCH   2  21
HETATM   21  C           1     -19.354  -9.271  -4.605  0.00  0.00     0.191 C 
BRANCH  21  22
HETATM   22  C           1     -19.820 -10.489  -5.363  0.00  0.00     0.197 C 
HETATM   23  O           1     -19.184 -10.882  -6.365  0.00  0.00    -0.646 OA
HETATM   24  O           1     -20.841 -11.105  -4.990  0.00  0.00    -0.646 OA
ENDBRANCH  21  22
BRANCH  21  25
HETATM   25  C           1     -19.011  -9.665  -3.174  0.00  0.00     0.094 C 
BRANCH  25  26
HETATM   26  C           1     -20.148  -9.306  -2.270  0.00  0.00     0.028 A 
HETATM   27  C           1     -20.240  -8.136  -1.556  0.00  0.00     0.114 A 
HETATM   28  N           1     -21.423  -8.226  -0.877  0.00  0.00    -0.360 N 
HETATM   29  C           1     -21.991  -9.425  -1.200  0.00  0.00     0.180 A 
HETATM   30  H           1     -21.821  -7.505  -0.225  0.00  0.00     0.166 HD
HETATM   31  N           1     -21.243 -10.100  -2.042  0.00  0.00    -0.354 N 
ATOM     32  HN          1     -21.435 -11.019  -2.441  1.00  0.00     0.166 HD
ENDBRANCH  25  26
ENDBRANCH  21  25
ENDBRANCH   2  21
TORSDOF 8
ENDMDL
MODEL 6
REMARK VINA RESULT:      -7.8     13.832     16.553
REMARK  8 active torsions:
REMARK  status: ('A' for Active; 'I' for Inactive)
REMARK    1  A    between atoms: C_3  and  C_25 
REMARK    2  A    between atoms: C_3  and  C_11 
REMARK    3  A    between atoms: C_5  and  C_30 
REMARK    4  A    between atoms: N_6  and  C_25 
REMARK    5  A    between atoms: N_15  and  C_31 
REMARK       I    between atoms: N_15  and  C_24 
REMARK    6  A    between atoms: C_24  and  C_25 
REMARK    7  A    between atoms: C_26  and  C_31 
REMARK    8  A    between atoms: C_30  and  C_31 
ROOT
HETATM    1  H           1     -32.583  -3.611 -14.091  0.00  0.00     0.163 HD
HETATM    2  N           1     -33.494  -4.051 -14.072  0.00  0.00    -0.344 N 
HETATM    3  O           1     -35.114  -5.096 -15.200  0.00  0.00    -0.271 OA
HETATM    4  C           1     -34.026  -4.571 -15.221  0.00  0.00     0.249 C 
ENDROOT
BRANCH   4   5
HETATM    5  C           1     -33.253  -4.491 -16.515  0.00  0.00     0.278 C 
BRANCH   5   6
HETATM    6  C           1     -31.762  -4.434 -16.213  0.00  0.00     0.083 C 
BRANCH   6   7
HETATM    7  C           1     -31.049  -5.478 -17.013  0.00  0.00    -0.028 A 
HETATM    8  C           1     -29.651  -5.531 -17.268  0.00  0.00    -0.002 A 
HETATM    9  C           1     -28.558  -4.719 -16.909  0.00  0.00     0.014 A 
HETATM   10  C           1     -29.418  -6.662 -18.050  0.00  0.00     0.042 A 
HETATM   11  C           1     -27.274  -5.068 -17.341  0.00  0.00     0.001 A 
HETATM   12  C           1     -27.071  -6.205 -18.121  0.00  0.00     0.002 A 
HETATM   13  C           1     -28.140  -7.026 -18.492  0.00  0.00     0.030 A 
HETATM   14  N           1     -30.636  -7.269 -18.256  0.00  0.00    -0.365 N 
HETATM   15  H           1     -30.784  -8.149 -18.811  0.00  0.00     0.165 HD
HETATM   16  C           1     -31.630  -6.561 -17.633  0.00  0.00     0.096 A 
ENDBRANCH   6   7
ENDBRANCH   5   6
BRANCH   5  17
HETATM   17  N           1     -33.659  -3.256 -17.263  0.00  0.00    -0.066 N 
HETATM   18  H           1     -33.171  -2.426 -16.857  0.00  0.00     0.275 HD
HETATM   19  H           1     -33.397  -3.357 -18.269  0.00  0.00     0.275 HD
HETATM   20  H           1     -34.693  -3.124 -17.183  0.00  0.00     0.275 HD
ENDBRANCH   5  17
ENDBRANCH   4   5
BRANCH   2  21
HETATM   21  C           1     -34.237  -4.129 -12.829  0.00  0.00     0.191 C 
BRANCH  21  22
HETATM   22  C           1     -34.882  -2.795 -12.543  0.00  0.00     0.197 C 
HETATM   23  O           1     -34.639  -1.814 -13.278  0.00  0.00    -0.646 OA
HETATM   24  O           1     -35.657  -2.672 -11.571  0.00  0.00    -0.646 OA
ENDBRANCH  21  22
BRANCH  21  25
HETATM   25  C           1     -33.287  -4.487 -11.693  0.00  0.00     0.094 C 
BRANCH  25  26
HETATM   26  C           1     -33.788  -5.710 -10.990  0.00  0.00     0.028 A 
HETATM   27  C           1     -34.929  -5.760 -10.225  0.00  0.00     0.114 A 
HETATM   28  N           1     -35.003  -7.051  -9.782  0.00  0.00    -0.360 N 
HETATM   29  C           1     -33.925  -7.720 -10.287  0.00  0.00     0.180 A 
HETATM   30  H           1     -35.752  -7.454  -9.166  0.00  0.00     0.166 HD
HETATM   31  N           1     -33.172  -6.935 -11.023  0.00  0.00    -0.354 N 
ATOM     32  HN          1     -32.314  -7.183 -11.513  1.00  0.00     0.166 HD
ENDBRANCH  25  26
ENDBRANCH  21  25
ENDBRANCH   2  21
TORSDOF 8
ENDMDL
MODEL 7
REMARK VINA RESULT:      -7.7      2.293      8.231
REMARK  8 active torsions:
REMARK  status: ('A' for Active; 'I' for Inactive)
REMARK    1  A    between atoms: C_3  and  C_25 
REMARK    2  A    between atoms: C_3  and  C_11 
REMARK    3  A    between atoms: C_5  and  C_30 
REMARK    4  A    between atoms: N_6  and  C_25 
REMARK    5  A    between atoms: N_15  and  C_31 
REMARK       I    between atoms: N_15  and  C_24 
REMARK    6  A    between atoms: C_24  and  C_25 
REMARK    7  A    between atoms: C_26  and  C_31 
REMARK    8  A    between atoms: C_30  and  C_31 
ROOT
HETATM    1  H           1     -19.546  -9.117  -4.669  0.00  0.00     0.163 HD
HETATM    2  N           1     -19.936  -8.533  -3.941  0.00  0.00    -0.344 N 
HETATM    3  O           1     -20.930  -6.611  -3.385  0.00  0.00    -0.271 OA
HETATM    4  C           1     -20.464  -7.309  -4.254  0.00  0.00     0.249 C 
ENDROOT
BRANCH   4   5
HETATM    5  C           1     -20.464  -6.831  -5.686  0.00  0.00     0.278 C 
BRANCH   5   6
HETATM    6  C           1     -20.893  -5.371  -5.735  0.00  0.00     0.083 C 
BRANCH   6   7
HETATM    7  C           1     -20.728  -4.848  -7.127  0.00  0.00    -0.028 A 
HETATM    8  C           1     -21.776  -4.463  -8.008  0.00  0.00    -0.002 A 
HETATM    9  C           1     -23.180  -4.438  -7.908  0.00  0.00     0.014 A 
HETATM   10  C           1     -21.180  -4.038  -9.195  0.00  0.00     0.042 A 
HETATM   11  C           1     -23.937  -3.988  -8.996  0.00  0.00     0.001 A 
HETATM   12  C           1     -23.314  -3.569 -10.170  0.00  0.00     0.002 A 
HETATM   13  C           1     -21.921  -3.586 -10.294  0.00  0.00     0.030 A 
HETATM   14  N           1     -19.819  -4.163  -9.032  0.00  0.00    -0.365 N 
HETATM   15  H           1     -19.101  -3.919  -9.759  0.00  0.00     0.165 HD
HETATM   16  C           1     -19.534  -4.652  -7.784  0.00  0.00     0.096 A 
ENDBRANCH   6   7
ENDBRANCH   5   6
BRANCH   5  17
HETATM   17  N           1     -21.422  -7.660  -6.489  0.00  0.00    -0.066 N 
HETATM   18  H           1     -22.078  -8.157  -5.845  0.00  0.00     0.275 HD
HETATM   19  H           1     -21.965  -7.041  -7.130  0.00  0.00     0.275 HD
HETATM   20  H           1     -20.888  -8.362  -7.051  0.00  0.00     0.275 HD
ENDBRANCH   5  17
ENDBRANCH   4   5
BRANCH   2  21
HETATM   21  C           1     -19.937  -8.992  -2.566  0.00  0.00     0.191 C 
BRANCH  21  22
HETATM   22  C           1     -18.694  -9.808  -2.306  0.00  0.00     0.197 C 
HETATM   23  O           1     -18.779 -10.903  -1.709  0.00  0.00    -0.646 OA
HETATM   24  O           1     -17.580  -9.389  -2.687  0.00  0.00    -0.646 OA
ENDBRANCH  21  22
BRANCH  21  25
HETATM   25  C           1     -21.169  -9.853  -2.319  0.00  0.00     0.094 C 
BRANCH  25  26
HETATM   26  C           1     -21.999  -9.239  -1.235  0.00  0.00     0.028 A 
HETATM   27  C           1     -22.968  -9.902  -0.522  0.00  0.00     0.114 A 
HETATM   28  N           1     -23.464  -8.974   0.351  0.00  0.00    -0.360 N 
HETATM   29  C           1     -22.789  -7.807   0.136  0.00  0.00     0.180 A 
HETATM   30  H           1     -24.226  -9.130   1.057  0.00  0.00     0.166 HD
HETATM   31  N           1     -21.895  -7.937  -0.817  0.00  0.00    -0.354 N 
ATOM     32  HN          1     -21.260  -7.222  -1.171  1.00  0.00     0.166 HD
ENDBRANCH  25  26
ENDBRANCH  21  25
ENDBRANCH   2  21
TORSDOF 8
ENDMDL
MODEL 8
REMARK VINA RESULT:      -7.7      2.681      8.099
REMARK  8 active torsions:
REMARK  status: ('A' for Active; 'I' for Inactive)
REMARK    1  A    between atoms: C_3  and  C_25 
REMARK    2  A    between atoms: C_3  and  C_11 
REMARK    3  A    between atoms: C_5  and  C_30 
REMARK    4  A    between atoms: N_6  and  C_25 
REMARK    5  A    between atoms: N_15  and  C_31 
REMARK       I    between atoms: N_15  and  C_24 
REMARK    6  A    between atoms: C_24  and  C_25 
REMARK    7  A    between atoms: C_26  and  C_31 
REMARK    8  A    between atoms: C_30  and  C_31 
ROOT
HETATM    1  H           1     -20.353  -8.318  -6.628  0.00  0.00     0.163 HD
HETATM    2  N           1     -20.372  -8.513  -5.635  0.00  0.00    -0.344 N 
HETATM    3  O           1     -20.747  -7.760  -3.566  0.00  0.00    -0.271 OA
HETATM    4  C           1     -20.724  -7.529  -4.751  0.00  0.00     0.249 C 
ENDROOT
BRANCH   4   5
HETATM    5  C           1     -21.085  -6.153  -5.257  0.00  0.00     0.278 C 
BRANCH   5   6
HETATM    6  C           1     -20.502  -5.955  -6.650  0.00  0.00     0.083 C 
BRANCH   6   7
HETATM    7  C           1     -21.438  -5.125  -7.471  0.00  0.00    -0.028 A 
HETATM    8  C           1     -21.214  -4.677  -8.802  0.00  0.00    -0.002 A 
HETATM    9  C           1     -20.161  -4.830  -9.723  0.00  0.00     0.014 A 
HETATM   10  C           1     -22.335  -3.938  -9.181  0.00  0.00     0.042 A 
HETATM   11  C           1     -20.266  -4.240 -10.989  0.00  0.00     0.001 A 
HETATM   12  C           1     -21.398  -3.508 -11.340  0.00  0.00     0.002 A 
HETATM   13  C           1     -22.457  -3.341 -10.442  0.00  0.00     0.030 A 
HETATM   14  N           1     -23.203  -3.943  -8.112  0.00  0.00    -0.365 N 
HETATM   15  H           1     -24.139  -3.467  -8.095  0.00  0.00     0.165 HD
HETATM   16  C           1     -22.670  -4.658  -7.073  0.00  0.00     0.096 A 
ENDBRANCH   6   7
ENDBRANCH   5   6
BRANCH   5  17
HETATM   17  N           1     -20.525  -5.117  -4.330  0.00  0.00    -0.066 N 
HETATM   18  H           1     -19.609  -4.775  -4.699  0.00  0.00     0.275 HD
HETATM   19  H           1     -21.192  -4.316  -4.259  0.00  0.00     0.275 HD
HETATM   20  H           1     -20.382  -5.537  -3.383  0.00  0.00     0.275 HD
ENDBRANCH   5  17
ENDBRANCH   4   5
BRANCH   2  21
HETATM   21  C           1     -20.026  -9.834  -5.149  0.00  0.00     0.191 C 
BRANCH  21  22
HETATM   22  C           1     -18.718 -10.270  -5.761  0.00  0.00     0.197 C 
HETATM   23  O           1     -17.637  -9.882  -5.267  0.00  0.00    -0.646 OA
HETATM   24  O           1     -18.715 -11.019  -6.762  0.00  0.00    -0.646 OA
ENDBRANCH  21  22
BRANCH  21  25
HETATM   25  C           1     -21.121 -10.820  -5.536  0.00  0.00     0.094 C 
BRANCH  25  26
HETATM   26  C           1     -21.831 -11.288  -4.305  0.00  0.00     0.028 A 
HETATM   27  C           1     -22.041 -12.606  -3.977  0.00  0.00     0.114 A 
HETATM   28  N           1     -22.717 -12.572  -2.789  0.00  0.00    -0.360 N 
HETATM   29  C           1     -22.887 -11.260  -2.451  0.00  0.00     0.180 A 
HETATM   30  H           1     -23.046 -13.404  -2.238  0.00  0.00     0.166 HD
HETATM   31  N           1     -22.361 -10.460  -3.348  0.00  0.00    -0.354 N 
ATOM     32  HN          1     -22.348  -9.440  -3.336  1.00  0.00     0.166 HD
ENDBRANCH  25  26
ENDBRANCH  21  25
ENDBRANCH   2  21
TORSDOF 8
ENDMDL
MODEL 9
REMARK VINA RESULT:      -7.5      2.945      8.387
REMARK  8 active torsions:
REMARK  status: ('A' for Active; 'I' for Inactive)
REMARK    1  A    between atoms: C_3  and  C_25 
REMARK    2  A    between atoms: C_3  and  C_11 
REMARK    3  A    between atoms: C_5  and  C_30 
REMARK    4  A    between atoms: N_6  and  C_25 
REMARK    5  A    between atoms: N_15  and  C_31 
REMARK       I    between atoms: N_15  and  C_24 
REMARK    6  A    between atoms: C_24  and  C_25 
REMARK    7  A    between atoms: C_26  and  C_31 
REMARK    8  A    between atoms: C_30  and  C_31 
ROOT
HETATM    1  H           1     -20.370  -7.569  -1.410  0.00  0.00     0.163 HD
HETATM    2  N           1     -20.861  -8.422  -1.641  0.00  0.00    -0.344 N 
HETATM    3  O           1     -21.175 -10.091  -3.092  0.00  0.00    -0.271 OA
HETATM    4  C           1     -20.589  -9.072  -2.815  0.00  0.00     0.249 C 
ENDROOT
BRANCH   4   5
HETATM    5  C           1     -19.556  -8.514  -3.764  0.00  0.00     0.278 C 
BRANCH   5   6
HETATM    6  C           1     -20.098  -8.554  -5.186  0.00  0.00     0.083 C 
BRANCH   6   7
HETATM    7  C           1     -20.958  -7.353  -5.428  0.00  0.00    -0.028 A 
HETATM    8  C           1     -20.638  -6.247  -6.263  0.00  0.00    -0.002 A 
HETATM    9  C           1     -19.532  -5.915  -7.067  0.00  0.00     0.014 A 
HETATM   10  C           1     -21.712  -5.360  -6.199  0.00  0.00     0.042 A 
HETATM   11  C           1     -19.540  -4.710  -7.780  0.00  0.00     0.001 A 
HETATM   12  C           1     -20.628  -3.843  -7.698  0.00  0.00     0.002 A 
HETATM   13  C           1     -21.738  -4.150  -6.904  0.00  0.00     0.030 A 
HETATM   14  N           1     -22.646  -5.916  -5.354  0.00  0.00    -0.365 N 
HETATM   15  H           1     -23.569  -5.479  -5.107  0.00  0.00     0.165 HD
HETATM   16  C           1     -22.200  -7.122  -4.882  0.00  0.00     0.096 A 
ENDBRANCH   6   7
ENDBRANCH   5   6
BRANCH   5  17
HETATM   17  N           1     -18.306  -9.339  -3.682  0.00  0.00    -0.066 N 
HETATM   18  H           1     -17.567  -8.802  -3.175  0.00  0.00     0.275 HD
HETATM   19  H           1     -18.507 -10.225  -3.167  0.00  0.00     0.275 HD
HETATM   20  H           1     -17.973  -9.563  -4.647  0.00  0.00     0.275 HD
ENDBRANCH   5  17
ENDBRANCH   4   5
BRANCH   2  21
HETATM   21  C           1     -21.853  -8.959  -0.729  0.00  0.00     0.191 C 
BRANCH  21  22
HETATM   22  C           1     -22.713  -7.836  -0.203  0.00  0.00     0.197 C 
HETATM   23  O           1     -23.415  -8.012   0.816  0.00  0.00    -0.646 OA
HETATM   24  O           1     -22.725  -6.731  -0.787  0.00  0.00    -0.646 OA
ENDBRANCH  21  22
BRANCH  21  25
HETATM   25  C           1     -21.152  -9.648   0.435  0.00  0.00     0.094 C 
BRANCH  25  26
HETATM   26  C           1     -21.411 -11.121   0.371  0.00  0.00     0.028 A 
HETATM   27  C           1     -20.432 -12.086   0.354  0.00  0.00     0.114 A 
HETATM   28  N           1     -21.107 -13.274   0.293  0.00  0.00    -0.360 N 
HETATM   29  C           1     -22.441 -12.987   0.275  0.00  0.00     0.180 A 
HETATM   30  H           1     -20.676 -14.231   0.265  0.00  0.00     0.166 HD
HETATM   31  N           1     -22.656 -11.693   0.322  0.00  0.00    -0.354 N 
ATOM     32  HN          1     -23.557 -11.215   0.323  1.00  0.00     0.166 HD
ENDBRANCH  25  26
ENDBRANCH  21  25
ENDBRANCH   2  21
TORSDOF 8
ENDMDL
