MODEL 1
REMARK VINA RESULT:      -7.4      0.000      0.000
REMARK  8 active torsions:
REMARK  status: ('A' for Active; 'I' for Inactive)
REMARK    1  A    between atoms: C_2  and  C_7 
REMARK    2  A    between atoms: C_7  and  C_11 
REMARK    3  A    between atoms: C_11  and  C_12 
REMARK    4  A    between atoms: C_11  and  N_22 
REMARK    5  A    between atoms: N_16  and  C_17 
REMARK    6  A    between atoms: C_17  and  C_23 
REMARK    7  A    between atoms: C_17  and  C_18 
REMARK    8  A    between atoms: C_18  and  C_19 
REMARK       I    between atoms: N_22  and  C_23 
ROOT
HETATM    1  C           1     -22.288  -5.265  -6.793  0.00  0.00     0.260 C 
ENDROOT
BRANCH   1   2
HETATM    2  N           1     -23.644  -4.977  -6.221  0.00  0.00    -0.067 N 
HETATM    3  H           1     -24.246  -5.826  -6.308  0.00  0.00     0.275 HD
HETATM    4  H           1     -24.081  -4.184  -6.743  0.00  0.00     0.275 HD
HETATM    5  H           1     -23.549  -4.719  -5.213  0.00  0.00     0.275 HD
ENDBRANCH   1   2
BRANCH   1   6
HETATM    6  C           1     -21.390  -5.810  -5.709  0.00  0.00     0.130 C 
HETATM    7  O           1     -20.611  -5.079  -5.147  0.00  0.00    -0.397 OA
HETATM    8  N           1     -21.461  -7.133  -5.364  0.00  0.00    -0.359 N 
HETATM    9  H           1     -22.114  -7.745  -5.836  0.00  0.00     0.162 HD
BRANCH   8  10
HETATM   10  C           1     -20.598  -7.657  -4.322  0.00  0.00     0.184 C 
BRANCH  10  11
HETATM   11  C           1     -21.450  -8.165  -3.166  0.00  0.00     0.040 C 
BRANCH  11  12
HETATM   12  C           1     -21.197  -7.308  -1.933  0.00  0.00    -0.018 C 
HETATM   13  C           1     -21.401  -8.147  -0.679  0.00  0.00     0.289 C 
HETATM   14  C           1     -22.171  -6.136  -1.923  0.00  0.00     0.009 C 
ENDBRANCH  11  12
ENDBRANCH  10  11
BRANCH  10  15
HETATM   15  C           1     -19.774  -8.793  -4.877  0.00  0.00     0.196 C 
HETATM   16  O           1     -18.651  -9.046  -4.392  0.00  0.00    -0.646 OA
HETATM   17  O           1     -20.216  -9.481  -5.821  0.00  0.00    -0.646 OA
ENDBRANCH  10  15
ENDBRANCH   8  10
ENDBRANCH   1   6
BRANCH   1  18
HETATM   18  C           1     -21.689  -3.979  -7.349  0.00  0.00     0.079 C 
BRANCH  18  19
HETATM   19  C           1     -21.622  -4.064  -8.843  0.00  0.00    -0.056 A 
HETATM   20  C           1     -20.385  -4.157  -9.481  0.00  0.00     0.007 A 
HETATM   21  C           1     -20.323  -4.237 -10.872  0.00  0.00     0.001 A 
HETATM   22  C           1     -21.497  -4.223 -11.624  0.00  0.00     0.000 A 
HETATM   23  C           1     -22.734  -4.131 -10.986  0.00  0.00     0.001 A 
HETATM   24  C           1     -22.796  -4.052  -9.596  0.00  0.00     0.007 A 
ENDBRANCH  18  19
ENDBRANCH   1  18
TORSDOF 8
ENDMDL
MODEL 2
REMARK VINA RESULT:      -6.7     14.376     17.499
REMARK  8 active torsions:
REMARK  status: ('A' for Active; 'I' for Inactive)
REMARK    1  A    between atoms: C_2  and  C_7 
REMARK    2  A    between atoms: C_7  and  C_11 
REMARK    3  A    between atoms: C_11  and  C_12 
REMARK    4  A    between atoms: C_11  and  N_22 
REMARK    5  A    between atoms: N_16  and  C_17 
REMARK    6  A    between atoms: C_17  and  C_23 
REMARK    7  A    between atoms: C_17  and  C_18 
REMARK    8  A    between atoms: C_18  and  C_19 
REMARK       I    between atoms: N_22  and  C_23 
ROOT
HETATM    1  C           1     -35.709  -0.740 -11.221  0.00  0.00     0.260 C 
ENDROOT
BRANCH   1   2
HETATM    2  N           1     -36.425   0.374 -10.516  0.00  0.00    -0.067 N 
HETATM    3  H           1     -35.848   1.244 -10.565  0.00  0.00     0.275 HD
HETATM    4  H           1     -36.578   0.112  -9.516  0.00  0.00     0.275 HD
HETATM    5  H           1     -37.348   0.542 -10.976  0.00  0.00     0.275 HD
ENDBRANCH   1   2
BRANCH   1   6
HETATM    6  C           1     -36.157  -0.793 -12.662  0.00  0.00     0.130 C 
HETATM    7  O           1     -37.332  -0.891 -12.925  0.00  0.00    -0.397 OA
HETATM    8  N           1     -35.232  -0.730 -13.668  0.00  0.00    -0.359 N 
HETATM    9  H           1     -34.247  -0.649 -13.447  0.00  0.00     0.162 HD
BRANCH   8  10
HETATM   10  C           1     -35.662  -0.782 -15.053  0.00  0.00     0.184 C 
BRANCH  10  11
HETATM   11  C           1     -35.279   0.516 -15.752  0.00  0.00     0.040 C 
BRANCH  11  12
HETATM   12  C           1     -36.404   1.530 -15.594  0.00  0.00    -0.018 C 
HETATM   13  C           1     -37.738   0.863 -15.905  0.00  0.00     0.289 C 
HETATM   14  C           1     -36.180   2.689 -16.556  0.00  0.00     0.009 C 
ENDBRANCH  11  12
ENDBRANCH  10  11
BRANCH  10  15
HETATM   15  C           1     -34.991  -1.943 -15.744  0.00  0.00     0.196 C 
HETATM   16  O           1     -34.686  -2.966 -15.094  0.00  0.00    -0.646 OA
HETATM   17  O           1     -34.742  -1.881 -16.967  0.00  0.00    -0.646 OA
ENDBRANCH  10  15
ENDBRANCH   8  10
ENDBRANCH   1   6
BRANCH   1  18
HETATM   18  C           1     -36.034  -2.063 -10.539  0.00  0.00     0.079 C 
BRANCH  18  19
HETATM   19  C           1     -34.986  -3.075 -10.886  0.00  0.00    -0.056 A 
HETATM   20  C           1     -33.681  -2.663 -11.153  0.00  0.00     0.007 A 
HETATM   21  C           1     -32.705  -3.606 -11.476  0.00  0.00     0.001 A 
HETATM   22  C           1     -33.034  -4.959 -11.531  0.00  0.00     0.000 A 
HETATM   23  C           1     -34.339  -5.372 -11.263  0.00  0.00     0.001 A 
HETATM   24  C           1     -35.315  -4.429 -10.940  0.00  0.00     0.007 A 
ENDBRANCH  18  19
ENDBRANCH   1  18
TORSDOF 8
ENDMDL
MODEL 3
REMARK VINA RESULT:      -6.7      1.465      2.297
REMARK  8 active torsions:
REMARK  status: ('A' for Active; 'I' for Inactive)
REMARK    1  A    between atoms: C_2  and  C_7 
REMARK    2  A    between atoms: C_7  and  C_11 
REMARK    3  A    between atoms: C_11  and  C_12 
REMARK    4  A    between atoms: C_11  and  N_22 
REMARK    5  A    between atoms: N_16  and  C_17 
REMARK    6  A    between atoms: C_17  and  C_23 
REMARK    7  A    between atoms: C_17  and  C_18 
REMARK    8  A    between atoms: C_18  and  C_19 
REMARK       I    between atoms: N_22  and  C_23 
ROOT
HETATM    1  C           1     -21.608  -6.346  -6.059  0.00  0.00     0.260 C 
ENDROOT
BRANCH   1   2
HETATM    2  N           1     -22.832  -5.946  -5.291  0.00  0.00    -0.067 N 
HETATM    3  H           1     -23.270  -5.111  -5.742  0.00  0.00     0.275 HD
HETATM    4  H           1     -22.566  -5.712  -4.308  0.00  0.00     0.275 HD
HETATM    5  H           1     -23.515  -6.737  -5.287  0.00  0.00     0.275 HD
ENDBRANCH   1   2
BRANCH   1   6
HETATM    6  C           1     -20.783  -7.300  -5.229  0.00  0.00     0.130 C 
HETATM    7  O           1     -19.735  -7.720  -5.656  0.00  0.00    -0.397 OA
HETATM    8  N           1     -21.224  -7.687  -3.993  0.00  0.00    -0.359 N 
HETATM    9  H           1     -22.104  -7.334  -3.635  0.00  0.00     0.162 HD
BRANCH   8  10
HETATM   10  C           1     -20.433  -8.603  -3.195  0.00  0.00     0.184 C 
BRANCH  10  11
HETATM   11  C           1     -20.356  -8.093  -1.762  0.00  0.00     0.040 C 
BRANCH  11  12
HETATM   12  C           1     -21.757  -8.036  -1.167  0.00  0.00    -0.018 C 
HETATM   13  C           1     -22.246  -6.594  -1.155  0.00  0.00     0.289 C 
HETATM   14  C           1     -21.724  -8.572   0.259  0.00  0.00     0.009 C 
ENDBRANCH  11  12
ENDBRANCH  10  11
BRANCH  10  15
HETATM   15  C           1     -21.078  -9.967  -3.209  0.00  0.00     0.196 C 
HETATM   16  O           1     -22.155 -10.143  -3.819  0.00  0.00    -0.646 OA
HETATM   17  O           1     -20.535 -10.921  -2.612  0.00  0.00    -0.646 OA
ENDBRANCH  10  15
ENDBRANCH   8  10
ENDBRANCH   1   6
BRANCH   1  18
HETATM   18  C           1     -20.782  -5.106  -6.377  0.00  0.00     0.079 C 
BRANCH  18  19
HETATM   19  C           1     -21.040  -4.683  -7.791  0.00  0.00    -0.056 A 
HETATM   20  C           1     -22.273  -4.135  -8.142  0.00  0.00     0.007 A 
HETATM   21  C           1     -22.513  -3.742  -9.458  0.00  0.00     0.001 A 
HETATM   22  C           1     -21.519  -3.897 -10.424  0.00  0.00     0.000 A 
HETATM   23  C           1     -20.284  -4.444 -10.073  0.00  0.00     0.001 A 
HETATM   24  C           1     -20.045  -4.837  -8.757  0.00  0.00     0.007 A 
ENDBRANCH  18  19
ENDBRANCH   1  18
TORSDOF 8
ENDMDL
MODEL 4
REMARK VINA RESULT:      -6.5      2.172      3.592
REMARK  8 active torsions:
REMARK  status: ('A' for Active; 'I' for Inactive)
REMARK    1  A    between atoms: C_2  and  C_7 
REMARK    2  A    between atoms: C_7  and  C_11 
REMARK    3  A    between atoms: C_11  and  C_12 
REMARK    4  A    between atoms: C_11  and  N_22 
REMARK    5  A    between atoms: N_16  and  C_17 
REMARK    6  A    between atoms: C_17  and  C_23 
REMARK    7  A    between atoms: C_17  and  C_18 
REMARK    8  A    between atoms: C_18  and  C_19 
REMARK       I    between atoms: N_22  and  C_23 
ROOT
HETATM    1  C           1     -20.250  -7.772  -5.140  0.00  0.00     0.260 C 
ENDROOT
BRANCH   1   2
HETATM    2  N           1     -21.196  -8.540  -6.015  0.00  0.00    -0.067 N 
HETATM    3  H           1     -22.146  -8.546  -5.581  0.00  0.00     0.275 HD
HETATM    4  H           1     -20.853  -9.522  -6.119  0.00  0.00     0.275 HD
HETATM    5  H           1     -21.246  -8.088  -6.956  0.00  0.00     0.275 HD
ENDBRANCH   1   2
BRANCH   1   6
HETATM    6  C           1     -20.026  -8.531  -3.855  0.00  0.00     0.130 C 
HETATM    7  O           1     -18.908  -8.849  -3.530  0.00  0.00    -0.397 OA
HETATM    8  N           1     -21.091  -8.857  -3.059  0.00  0.00    -0.359 N 
HETATM    9  H           1     -22.028  -8.589  -3.333  0.00  0.00     0.162 HD
BRANCH   8  10
HETATM   10  C           1     -20.876  -9.586  -1.824  0.00  0.00     0.184 C 
BRANCH  10  11
HETATM   11  C           1     -21.050  -8.644  -0.641  0.00  0.00     0.040 C 
BRANCH  11  12
HETATM   12  C           1     -22.408  -7.960  -0.730  0.00  0.00    -0.018 C 
HETATM   13  C           1     -22.218  -6.500  -1.122  0.00  0.00     0.289 C 
HETATM   14  C           1     -23.103  -8.035   0.624  0.00  0.00     0.009 C 
ENDBRANCH  11  12
ENDBRANCH  10  11
BRANCH  10  15
HETATM   15  C           1     -21.879 -10.709  -1.724  0.00  0.00     0.196 C 
HETATM   16  O           1     -22.696 -10.902  -2.649  0.00  0.00    -0.646 OA
HETATM   17  O           1     -21.892 -11.447  -0.715  0.00  0.00    -0.646 OA
ENDBRANCH  10  15
ENDBRANCH   8  10
ENDBRANCH   1   6
BRANCH   1  18
HETATM   18  C           1     -20.848  -6.406  -4.826  0.00  0.00     0.079 C 
BRANCH  18  19
HETATM   19  C           1     -20.801  -5.546  -6.051  0.00  0.00    -0.056 A 
HETATM   20  C           1     -19.576  -5.240  -6.643  0.00  0.00     0.007 A 
HETATM   21  C           1     -19.533  -4.440  -7.784  0.00  0.00     0.001 A 
HETATM   22  C           1     -20.715  -3.945  -8.334  0.00  0.00     0.000 A 
HETATM   23  C           1     -21.941  -4.252  -7.743  0.00  0.00     0.001 A 
HETATM   24  C           1     -21.984  -5.053  -6.602  0.00  0.00     0.007 A 
ENDBRANCH  18  19
ENDBRANCH   1  18
TORSDOF 8
ENDMDL
MODEL 5
REMARK VINA RESULT:      -6.5      1.846      2.999
REMARK  8 active torsions:
REMARK  status: ('A' for Active; 'I' for Inactive)
REMARK    1  A    between atoms: C_2  and  C_7 
REMARK    2  A    between atoms: C_7  and  C_11 
REMARK    3  A    between atoms: C_11  and  C_12 
REMARK    4  A    between atoms: C_11  and  N_22 
REMARK    5  A    between atoms: N_16  and  C_17 
REMARK    6  A    between atoms: C_17  and  C_23 
REMARK    7  A    between atoms: C_17  and  C_18 
REMARK    8  A    between atoms: C_18  and  C_19 
REMARK       I    between atoms: N_22  and  C_23 
ROOT
HETATM    1  C           1     -20.460  -5.085  -6.595  0.00  0.00     0.260 C 
ENDROOT
BRANCH   1   2
HETATM    2  N           1     -20.035  -5.987  -7.715  0.00  0.00    -0.067 N 
HETATM    3  H           1     -20.859  -6.202  -8.321  0.00  0.00     0.275 HD
HETATM    4  H           1     -19.650  -6.875  -7.320  0.00  0.00     0.275 HD
HETATM    5  H           1     -19.299  -5.512  -8.285  0.00  0.00     0.275 HD
ENDBRANCH   1   2
BRANCH   1   6
HETATM    6  C           1     -21.364  -5.844  -5.654  0.00  0.00     0.130 C 
HETATM    7  O           1     -22.553  -5.634  -5.659  0.00  0.00    -0.397 OA
HETATM    8  N           1     -20.835  -6.771  -4.797  0.00  0.00    -0.359 N 
HETATM    9  H           1     -19.838  -6.947  -4.794  0.00  0.00     0.162 HD
BRANCH   8  10
HETATM   10  C           1     -21.703  -7.501  -3.893  0.00  0.00     0.184 C 
BRANCH  10  11
HETATM   11  C           1     -21.224  -8.942  -3.781  0.00  0.00     0.040 C 
BRANCH  11  12
HETATM   12  C           1     -19.906  -9.099  -4.530  0.00  0.00    -0.018 C 
HETATM   13  C           1     -19.977 -10.323  -5.433  0.00  0.00     0.289 C 
HETATM   14  C           1     -18.772  -9.272  -3.528  0.00  0.00     0.009 C 
ENDBRANCH  11  12
ENDBRANCH  10  11
BRANCH  10  15
HETATM   15  C           1     -21.668  -6.853  -2.531  0.00  0.00     0.196 C 
HETATM   16  O           1     -22.397  -5.866  -2.289  0.00  0.00    -0.646 OA
HETATM   17  O           1     -20.912  -7.303  -1.644  0.00  0.00    -0.646 OA
ENDBRANCH  10  15
ENDBRANCH   8  10
ENDBRANCH   1   6
BRANCH   1  18
HETATM   18  C           1     -21.211  -3.888  -7.165  0.00  0.00     0.079 C 
BRANCH  18  19
HETATM   19  C           1     -21.413  -4.080  -8.636  0.00  0.00    -0.056 A 
HETATM   20  C           1     -22.666  -4.445  -9.127  0.00  0.00     0.007 A 
HETATM   21  C           1     -22.854  -4.623 -10.497  0.00  0.00     0.001 A 
HETATM   22  C           1     -21.788  -4.437 -11.377  0.00  0.00     0.000 A 
HETATM   23  C           1     -20.534  -4.070 -10.887  0.00  0.00     0.001 A 
HETATM   24  C           1     -20.347  -3.892  -9.516  0.00  0.00     0.007 A 
ENDBRANCH  18  19
ENDBRANCH   1  18
TORSDOF 8
ENDMDL
MODEL 6
REMARK VINA RESULT:      -6.4      2.351      3.470
REMARK  8 active torsions:
REMARK  status: ('A' for Active; 'I' for Inactive)
REMARK    1  A    between atoms: C_2  and  C_7 
REMARK    2  A    between atoms: C_7  and  C_11 
REMARK    3  A    between atoms: C_11  and  C_12 
REMARK    4  A    between atoms: C_11  and  N_22 
REMARK    5  A    between atoms: N_16  and  C_17 
REMARK    6  A    between atoms: C_17  and  C_23 
REMARK    7  A    between atoms: C_17  and  C_18 
REMARK    8  A    between atoms: C_18  and  C_19 
REMARK       I    between atoms: N_22  and  C_23 
ROOT
HETATM    1  C           1     -20.671  -7.302  -4.748  0.00  0.00     0.260 C 
ENDROOT
BRANCH   1   2
HETATM    2  N           1     -21.210  -8.305  -5.724  0.00  0.00    -0.067 N 
HETATM    3  H           1     -22.162  -8.009  -6.038  0.00  0.00     0.275 HD
HETATM    4  H           1     -21.269  -9.242  -5.264  0.00  0.00     0.275 HD
HETATM    5  H           1     -20.574  -8.364  -6.551  0.00  0.00     0.275 HD
ENDBRANCH   1   2
BRANCH   1   6
HETATM    6  C           1     -20.813  -7.840  -3.345  0.00  0.00     0.130 C 
HETATM    7  O           1     -20.947  -7.079  -2.417  0.00  0.00    -0.397 OA
HETATM    8  N           1     -20.790  -9.191  -3.125  0.00  0.00    -0.359 N 
HETATM    9  H           1     -20.677  -9.828  -3.903  0.00  0.00     0.162 HD
BRANCH   8  10
HETATM   10  C           1     -20.926  -9.709  -1.777  0.00  0.00     0.184 C 
BRANCH  10  11
HETATM   11  C           1     -22.289 -10.368  -1.622  0.00  0.00     0.040 C 
BRANCH  11  12
HETATM   12  C           1     -22.791 -10.171  -0.197  0.00  0.00    -0.018 C 
HETATM   13  C           1     -24.150 -10.839  -0.039  0.00  0.00     0.289 C 
HETATM   14  C           1     -22.922  -8.681   0.091  0.00  0.00     0.009 C 
ENDBRANCH  11  12
ENDBRANCH  10  11
BRANCH  10  15
HETATM   15  C           1     -19.842 -10.727  -1.519  0.00  0.00     0.196 C 
HETATM   16  O           1     -19.640 -11.143  -0.358  0.00  0.00    -0.646 OA
HETATM   17  O           1     -19.149 -11.154  -2.466  0.00  0.00    -0.646 OA
ENDBRANCH  10  15
ENDBRANCH   8  10
ENDBRANCH   1   6
BRANCH   1  18
HETATM   18  C           1     -21.454  -6.001  -4.874  0.00  0.00     0.079 C 
BRANCH  18  19
HETATM   19  C           1     -21.045  -5.292  -6.129  0.00  0.00    -0.056 A 
HETATM   20  C           1     -19.693  -5.099  -6.412  0.00  0.00     0.007 A 
HETATM   21  C           1     -19.313  -4.439  -7.580  0.00  0.00     0.001 A 
HETATM   22  C           1     -20.284  -3.972  -8.465  0.00  0.00     0.000 A 
HETATM   23  C           1     -21.636  -4.166  -8.182  0.00  0.00     0.001 A 
HETATM   24  C           1     -22.017  -4.826  -7.014  0.00  0.00     0.007 A 
ENDBRANCH  18  19
ENDBRANCH   1  18
TORSDOF 8
ENDMDL
MODEL 7
REMARK VINA RESULT:      -6.4      2.156      3.783
REMARK  8 active torsions:
REMARK  status: ('A' for Active; 'I' for Inactive)
REMARK    1  A    between atoms: C_2  and  C_7 
REMARK    2  A    between atoms: C_7  and  C_11 
REMARK    3  A    between atoms: C_11  and  C_12 
REMARK    4  A    between atoms: C_11  and  N_22 
REMARK    5  A    between atoms: N_16  and  C_17 
REMARK    6  A    between atoms: C_17  and  C_23 
REMARK    7  A    between atoms: C_17  and  C_18 
REMARK    8  A    between atoms: C_18  and  C_19 
REMARK       I    between atoms: N_22  and  C_23 
ROOT
HETATM    1  C           1     -21.581  -6.297  -4.916  0.00  0.00     0.260 C 
ENDROOT
BRANCH   1   2
HETATM    2  N           1     -21.930  -6.068  -3.475  0.00  0.00    -0.067 N 
HETATM    3  H           1     -22.944  -5.827  -3.396  0.00  0.00     0.275 HD
HETATM    4  H           1     -21.354  -5.281  -3.098  0.00  0.00     0.275 HD
HETATM    5  H           1     -21.734  -6.935  -2.926  0.00  0.00     0.275 HD
ENDBRANCH   1   2
BRANCH   1   6
HETATM    6  C           1     -21.002  -7.681  -5.078  0.00  0.00     0.130 C 
HETATM    7  O           1     -21.219  -8.312  -6.085  0.00  0.00    -0.397 OA
HETATM    8  N           1     -20.230  -8.220  -4.084  0.00  0.00    -0.359 N 
HETATM    9  H           1     -20.049  -7.690  -3.240  0.00  0.00     0.162 HD
BRANCH   8  10
HETATM   10  C           1     -19.673  -9.550  -4.239  0.00  0.00     0.184 C 
BRANCH  10  11
HETATM   11  C           1     -18.156  -9.457  -4.337  0.00  0.00     0.040 C 
BRANCH  11  12
HETATM   12  C           1     -17.721  -9.728  -5.771  0.00  0.00    -0.018 C 
HETATM   13  C           1     -18.347 -11.029  -6.255  0.00  0.00     0.289 C 
HETATM   14  C           1     -16.203  -9.844  -5.827  0.00  0.00     0.009 C 
ENDBRANCH  11  12
ENDBRANCH  10  11
BRANCH  10  15
HETATM   15  C           1     -20.050 -10.394  -3.047  0.00  0.00     0.196 C 
HETATM   16  O           1     -19.642 -10.083  -1.907  0.00  0.00    -0.646 OA
HETATM   17  O           1     -20.770 -11.403  -3.199  0.00  0.00    -0.646 OA
ENDBRANCH  10  15
ENDBRANCH   8  10
ENDBRANCH   1   6
BRANCH   1  18
HETATM   18  C           1     -20.555  -5.262  -5.359  0.00  0.00     0.079 C 
BRANCH  18  19
HETATM   19  C           1     -20.822  -4.872  -6.781  0.00  0.00    -0.056 A 
HETATM   20  C           1     -22.102  -4.476  -7.167  0.00  0.00     0.007 A 
HETATM   21  C           1     -22.350  -4.113  -8.491  0.00  0.00     0.001 A 
HETATM   22  C           1     -21.317  -4.146  -9.428  0.00  0.00     0.000 A 
HETATM   23  C           1     -20.036  -4.541  -9.041  0.00  0.00     0.001 A 
HETATM   24  C           1     -19.789  -4.904  -7.718  0.00  0.00     0.007 A 
ENDBRANCH  18  19
ENDBRANCH   1  18
TORSDOF 8
ENDMDL
MODEL 8
REMARK VINA RESULT:      -6.4     18.152     19.646
REMARK  8 active torsions:
REMARK  status: ('A' for Active; 'I' for Inactive)
REMARK    1  A    between atoms: C_2  and  C_7 
REMARK    2  A    between atoms: C_7  and  C_11 
REMARK    3  A    between atoms: C_11  and  C_12 
REMARK    4  A    between atoms: C_11  and  N_22 
REMARK    5  A    between atoms: N_16  and  C_17 
REMARK    6  A    between atoms: C_17  and  C_23 
REMARK    7  A    between atoms: C_17  and  C_18 
REMARK    8  A    between atoms: C_18  and  C_19 
REMARK       I    between atoms: N_22  and  C_23 
ROOT
HETATM    1  C           1     -15.104   9.279   5.638  0.00  0.00     0.260 C 
ENDROOT
BRANCH   1   2
HETATM    2  N           1     -15.258   8.881   7.077  0.00  0.00    -0.067 N 
HETATM    3  H           1     -16.106   9.342   7.476  0.00  0.00     0.275 HD
HETATM    4  H           1     -14.412   9.181   7.613  0.00  0.00     0.275 HD
HETATM    5  H           1     -15.361   7.844   7.142  0.00  0.00     0.275 HD
ENDBRANCH   1   2
BRANCH   1   6
HETATM    6  C           1     -16.405   9.852   5.133  0.00  0.00     0.130 C 
HETATM    7  O           1     -16.521  11.044   4.982  0.00  0.00    -0.397 OA
HETATM    8  N           1     -17.454   9.020   4.847  0.00  0.00    -0.359 N 
HETATM    9  H           1     -17.356   8.020   4.975  0.00  0.00     0.162 HD
BRANCH   8  10
HETATM   10  C           1     -18.705   9.570   4.362  0.00  0.00     0.184 C 
BRANCH  10  11
HETATM   11  C           1     -18.910   9.161   2.910  0.00  0.00     0.040 C 
BRANCH  11  12
HETATM   12  C           1     -18.807  10.390   2.016  0.00  0.00    -0.018 C 
HETATM   13  C           1     -17.361  10.581   1.578  0.00  0.00     0.289 C 
HETATM   14  C           1     -19.268  11.619   2.790  0.00  0.00     0.009 C 
ENDBRANCH  11  12
ENDBRANCH  10  11
BRANCH  10  15
HETATM   15  C           1     -19.844   9.041   5.199  0.00  0.00     0.196 C 
HETATM   16  O           1     -19.831   9.194   6.440  0.00  0.00    -0.646 OA
HETATM   17  O           1     -20.799   8.452   4.652  0.00  0.00    -0.646 OA
ENDBRANCH  10  15
ENDBRANCH   8  10
ENDBRANCH   1   6
BRANCH   1  18
HETATM   18  C           1     -14.733   8.054   4.811  0.00  0.00     0.079 C 
BRANCH  18  19
HETATM   19  C           1     -14.304   8.486   3.443  0.00  0.00    -0.056 A 
HETATM   20  C           1     -13.325   9.469   3.297  0.00  0.00     0.007 A 
HETATM   21  C           1     -12.926   9.871   2.023  0.00  0.00     0.001 A 
HETATM   22  C           1     -13.505   9.291   0.895  0.00  0.00     0.000 A 
HETATM   23  C           1     -14.483   8.307   1.040  0.00  0.00     0.001 A 
HETATM   24  C           1     -14.883   7.905   2.314  0.00  0.00     0.007 A 
ENDBRANCH  18  19
ENDBRANCH   1  18
TORSDOF 8
ENDMDL
MODEL 9
REMARK VINA RESULT:      -6.0      5.072      7.425
REMARK  8 active torsions:
REMARK  status: ('A' for Active; 'I' for Inactive)
REMARK    1  A    between atoms: C_2  and  C_7 
REMARK    2  A    between atoms: C_7  and  C_11 
REMARK    3  A    between atoms: C_11  and  C_12 
REMARK    4  A    between atoms: C_11  and  N_22 
REMARK    5  A    between atoms: N_16  and  C_17 
REMARK    6  A    between atoms: C_17  and  C_23 
REMARK    7  A    between atoms: C_17  and  C_18 
REMARK    8  A    between atoms: C_18  and  C_19 
REMARK       I    between atoms: N_22  and  C_23 
ROOT
HETATM    1  C           1     -20.418  -9.116  -4.009  0.00  0.00     0.260 C 
ENDROOT
BRANCH   1   2
HETATM    2  N           1     -21.314 -10.313  -4.138  0.00  0.00    -0.067 N 
HETATM    3  H           1     -20.950 -10.941  -4.889  0.00  0.00     0.275 HD
HETATM    4  H           1     -22.280  -9.999  -4.383  0.00  0.00     0.275 HD
HETATM    5  H           1     -21.337 -10.830  -3.231  0.00  0.00     0.275 HD
ENDBRANCH   1   2
BRANCH   1   6
HETATM    6  C           1     -19.307  -9.209  -5.027  0.00  0.00     0.130 C 
HETATM    7  O           1     -19.221  -8.381  -5.902  0.00  0.00    -0.397 OA
HETATM    8  N           1     -18.399 -10.231  -4.958  0.00  0.00    -0.359 N 
HETATM    9  H           1     -18.473 -10.925  -4.224  0.00  0.00     0.162 HD
BRANCH   8  10
HETATM   10  C           1     -17.333 -10.320  -5.937  0.00  0.00     0.184 C 
BRANCH  10  11
HETATM   11  C           1     -15.989 -10.165  -5.238  0.00  0.00     0.040 C 
BRANCH  11  12
HETATM   12  C           1     -16.112 -10.623  -3.791  0.00  0.00    -0.018 C 
HETATM   13  C           1     -15.895  -9.437  -2.861  0.00  0.00     0.289 C 
HETATM   14  C           1     -15.062 -11.689  -3.506  0.00  0.00     0.009 C 
ENDBRANCH  11  12
ENDBRANCH  10  11
BRANCH  10  15
HETATM   15  C           1     -17.391 -11.664  -6.622  0.00  0.00     0.196 C 
HETATM   16  O           1     -16.337 -12.294  -6.853  0.00  0.00    -0.646 OA
HETATM   17  O           1     -18.494 -12.146  -6.955  0.00  0.00    -0.646 OA
ENDBRANCH  10  15
ENDBRANCH   8  10
ENDBRANCH   1   6
BRANCH   1  18
HETATM   18  C           1     -19.820  -9.080  -2.608  0.00  0.00     0.079 C 
BRANCH  18  19
HETATM   19  C           1     -20.843  -8.567  -1.642  0.00  0.00    -0.056 A 
HETATM   20  C           1     -21.441  -7.325  -1.852  0.00  0.00     0.007 A 
HETATM   21  C           1     -22.394  -6.848  -0.953  0.00  0.00     0.001 A 
HETATM   22  C           1     -22.748  -7.614   0.158  0.00  0.00     0.000 A 
HETATM   23  C           1     -22.151  -8.857   0.368  0.00  0.00     0.001 A 
HETATM   24  C           1     -21.199  -9.334  -0.531  0.00  0.00     0.007 A 
ENDBRANCH  18  19
ENDBRANCH   1  18
TORSDOF 8
ENDMDL
