MODEL 1
REMARK VINA RESULT:      -5.8      0.000      0.000
REMARK  9 active torsions:
REMARK  status: ('A' for Active; 'I' for Inactive)
REMARK    1  A    between atoms: N_4  and  C_14 
REMARK       I    between atoms: N_4  and  C_5 
REMARK    2  A    between atoms: C_5  and  C_11 
REMARK    3  A    between atoms: C_6  and  C_9 
REMARK    4  A    between atoms: C_6  and  C_14 
REMARK    5  A    between atoms: C_9  and  Se_10 
REMARK    6  A    between atoms: C_11  and  C_16 
REMARK    7  A    between atoms: C_11  and  N_21 
REMARK    8  A    between atoms: C_12  and  C_14 
REMARK    9  A    between atoms: O_15  and  C_16 
ROOT
HETATM    1  N           1     -34.855  -1.466 -13.261  0.00  0.00    -0.345 N 
HETATM    2  C           1     -35.971  -0.758 -13.618  0.00  0.00     0.251 C 
HETATM    3  H           1     -33.976  -1.296 -13.732  0.00  0.00     0.163 HD
HETATM    4  O           1     -37.020  -0.961 -13.055  0.00  0.00    -0.271 OA
ENDROOT
BRANCH   2   5
HETATM    5  C           1     -35.890   0.274 -14.715  0.00  0.00     0.302 C 
BRANCH   5   6
HETATM    6  C           1     -36.489  -0.296 -15.994  0.00  0.00     0.153 C 
HETATM    7  C           1     -35.517  -1.294 -16.609  0.00  0.00     0.042 C 
BRANCH   6   8
HETATM    8  O           1     -37.697  -0.945 -15.696  0.00  0.00    -0.393 OA
HETATM    9  H           1     -38.262  -0.827 -16.441  0.00  0.00     0.210 HD
ENDBRANCH   6   8
ENDBRANCH   5   6
BRANCH   5  10
HETATM   10  N           1     -34.455   0.638 -14.956  0.00  0.00    -0.064 N 
HETATM   11  H           1     -33.900  -0.231 -15.125  0.00  0.00     0.275 HD
HETATM   12  H           1     -34.078   1.136 -14.118  0.00  0.00     0.275 HD
HETATM   13  H           1     -34.388   1.262 -15.791  0.00  0.00     0.275 HD
ENDBRANCH   5  10
ENDBRANCH   2   5
BRANCH   1  14
HETATM   14  C           1     -34.932  -2.457 -12.206  0.00  0.00     0.185 C 
BRANCH  14  15
HETATM   15  C           1     -34.039  -3.639 -12.555  0.00  0.00     0.036 C 
BRANCH  15  16
HETATM   16  C           1     -34.746  -4.938 -12.186  0.00  0.00     0.003 C 
BRANCH  16  17
HETATM   17 Se           1     -34.245  -5.459 -10.376  0.00  0.00     0.000 Se
HETATM   18  C           1     -34.725  -7.334 -10.608  0.00  0.00     0.000 C 
ENDBRANCH  16  17
ENDBRANCH  15  16
ENDBRANCH  14  15
BRANCH  14  19
HETATM   19  C           1     -34.472  -1.845 -10.905  0.00  0.00     0.196 C 
HETATM   20  O           1     -35.304  -1.321 -10.133  0.00  0.00    -0.646 OA
HETATM   21  O           1     -33.260  -1.861 -10.601  0.00  0.00    -0.646 OA
ENDBRANCH  14  19
ENDBRANCH   1  14
TORSDOF 9
ENDMDL
MODEL 2
REMARK VINA RESULT:      -5.5      1.714      2.282
REMARK  9 active torsions:
REMARK  status: ('A' for Active; 'I' for Inactive)
REMARK    1  A    between atoms: N_4  and  C_14 
REMARK       I    between atoms: N_4  and  C_5 
REMARK    2  A    between atoms: C_5  and  C_11 
REMARK    3  A    between atoms: C_6  and  C_9 
REMARK    4  A    between atoms: C_6  and  C_14 
REMARK    5  A    between atoms: C_9  and  Se_10 
REMARK    6  A    between atoms: C_11  and  C_16 
REMARK    7  A    between atoms: C_11  and  N_21 
REMARK    8  A    between atoms: C_12  and  C_14 
REMARK    9  A    between atoms: O_15  and  C_16 
ROOT
HETATM    1  N           1     -36.106  -0.146 -12.976  0.00  0.00    -0.345 N 
HETATM    2  C           1     -37.032  -0.158 -13.985  0.00  0.00     0.251 C 
HETATM    3  H           1     -35.251   0.385 -13.081  0.00  0.00     0.163 HD
HETATM    4  O           1     -38.052  -0.791 -13.860  0.00  0.00    -0.271 OA
ENDROOT
BRANCH   2   5
HETATM    5  C           1     -36.776   0.619 -15.253  0.00  0.00     0.302 C 
BRANCH   5   6
HETATM    6  C           1     -36.593  -0.349 -16.414  0.00  0.00     0.153 C 
HETATM    7  C           1     -35.379  -1.231 -16.154  0.00  0.00     0.042 C 
BRANCH   6   8
HETATM    8  O           1     -37.736  -1.153 -16.536  0.00  0.00    -0.393 OA
HETATM    9  H           1     -37.450  -1.987 -16.871  0.00  0.00     0.210 HD
ENDBRANCH   6   8
ENDBRANCH   5   6
BRANCH   5  10
HETATM   10  N           1     -35.533   1.444 -15.091  0.00  0.00    -0.064 N 
HETATM   11  H           1     -35.321   1.558 -14.075  0.00  0.00     0.275 HD
HETATM   12  H           1     -35.682   2.383 -15.525  0.00  0.00     0.275 HD
HETATM   13  H           1     -34.733   0.966 -15.563  0.00  0.00     0.275 HD
ENDBRANCH   5  10
ENDBRANCH   2   5
BRANCH   1  14
HETATM   14  C           1     -36.352  -0.892 -11.758  0.00  0.00     0.185 C 
BRANCH  14  15
HETATM   15  C           1     -35.048  -1.505 -11.267  0.00  0.00     0.036 C 
BRANCH  15  16
HETATM   16  C           1     -34.571  -2.554 -12.264  0.00  0.00     0.003 C 
BRANCH  16  17
HETATM   17 Se           1     -33.058  -3.525 -11.513  0.00  0.00     0.000 Se
HETATM   18  C           1     -34.154  -4.867 -10.619  0.00  0.00     0.000 C 
ENDBRANCH  16  17
ENDBRANCH  15  16
ENDBRANCH  14  15
BRANCH  14  19
HETATM   19  C           1     -36.902   0.036 -10.702  0.00  0.00     0.196 C 
HETATM   20  O           1     -36.184   0.381  -9.738  0.00  0.00    -0.646 OA
HETATM   21  O           1     -38.075   0.459 -10.792  0.00  0.00    -0.646 OA
ENDBRANCH  14  19
ENDBRANCH   1  14
TORSDOF 9
ENDMDL
MODEL 3
REMARK VINA RESULT:      -5.3      2.910      5.539
REMARK  9 active torsions:
REMARK  status: ('A' for Active; 'I' for Inactive)
REMARK    1  A    between atoms: N_4  and  C_14 
REMARK       I    between atoms: N_4  and  C_5 
REMARK    2  A    between atoms: C_5  and  C_11 
REMARK    3  A    between atoms: C_6  and  C_9 
REMARK    4  A    between atoms: C_6  and  C_14 
REMARK    5  A    between atoms: C_9  and  Se_10 
REMARK    6  A    between atoms: C_11  and  C_16 
REMARK    7  A    between atoms: C_11  and  N_21 
REMARK    8  A    between atoms: C_12  and  C_14 
REMARK    9  A    between atoms: O_15  and  C_16 
ROOT
HETATM    1  N           1     -35.611  -2.049 -12.030  0.00  0.00    -0.345 N 
HETATM    2  C           1     -34.490  -2.806 -11.821  0.00  0.00     0.251 C 
HETATM    3  H           1     -36.462  -2.485 -12.362  0.00  0.00     0.163 HD
HETATM    4  O           1     -33.475  -2.286 -11.425  0.00  0.00    -0.271 OA
ENDROOT
BRANCH   2   5
HETATM    5  C           1     -34.523  -4.291 -12.088  0.00  0.00     0.302 C 
BRANCH   5   6
HETATM    6  C           1     -33.502  -4.990 -11.200  0.00  0.00     0.153 C 
HETATM    7  C           1     -34.044  -6.348 -10.774  0.00  0.00     0.042 C 
BRANCH   6   8
HETATM    8  O           1     -32.306  -5.167 -11.912  0.00  0.00    -0.393 OA
HETATM    9  H           1     -32.431  -5.913 -12.474  0.00  0.00     0.210 HD
ENDBRANCH   6   8
ENDBRANCH   5   6
BRANCH   5  10
HETATM   10  N           1     -34.190  -4.548 -13.528  0.00  0.00    -0.064 N 
HETATM   11  H           1     -34.453  -5.528 -13.776  0.00  0.00     0.275 HD
HETATM   12  H           1     -33.164  -4.412 -13.676  0.00  0.00     0.275 HD
HETATM   13  H           1     -34.720  -3.880 -14.133  0.00  0.00     0.275 HD
ENDBRANCH   5  10
ENDBRANCH   2   5
BRANCH   1  14
HETATM   14  C           1     -35.580  -0.622 -11.773  0.00  0.00     0.185 C 
BRANCH  14  15
HETATM   15  C           1     -35.746   0.132 -13.085  0.00  0.00     0.036 C 
BRANCH  15  16
HETATM   16  C           1     -37.121  -0.164 -13.672  0.00  0.00     0.003 C 
BRANCH  16  17
HETATM   17 Se           1     -37.126   0.275 -15.571  0.00  0.00     0.000 Se
HETATM   18  C           1     -35.601  -0.858 -16.004  0.00  0.00     0.000 C 
ENDBRANCH  16  17
ENDBRANCH  15  16
ENDBRANCH  14  15
BRANCH  14  19
HETATM   19  C           1     -36.703  -0.255 -10.835  0.00  0.00     0.196 C 
HETATM   20  O           1     -36.632   0.792 -10.155  0.00  0.00    -0.646 OA
HETATM   21  O           1     -37.704  -0.997 -10.738  0.00  0.00    -0.646 OA
ENDBRANCH  14  19
ENDBRANCH   1  14
TORSDOF 9
ENDMDL
MODEL 4
REMARK VINA RESULT:      -5.0     13.866     15.467
REMARK  9 active torsions:
REMARK  status: ('A' for Active; 'I' for Inactive)
REMARK    1  A    between atoms: N_4  and  C_14 
REMARK       I    between atoms: N_4  and  C_5 
REMARK    2  A    between atoms: C_5  and  C_11 
REMARK    3  A    between atoms: C_6  and  C_9 
REMARK    4  A    between atoms: C_6  and  C_14 
REMARK    5  A    between atoms: C_9  and  Se_10 
REMARK    6  A    between atoms: C_11  and  C_16 
REMARK    7  A    between atoms: C_11  and  N_21 
REMARK    8  A    between atoms: C_12  and  C_14 
REMARK    9  A    between atoms: O_15  and  C_16 
ROOT
HETATM    1  N           1     -21.561  -5.547  -7.834  0.00  0.00    -0.345 N 
HETATM    2  C           1     -22.165  -4.521  -8.510  0.00  0.00     0.251 C 
HETATM    3  H           1     -21.258  -6.373  -8.333  0.00  0.00     0.163 HD
HETATM    4  O           1     -22.527  -3.536  -7.913  0.00  0.00    -0.271 OA
ENDROOT
BRANCH   2   5
HETATM    5  C           1     -22.379  -4.623 -10.000  0.00  0.00     0.302 C 
BRANCH   5   6
HETATM    6  C           1     -21.078  -4.306 -10.724  0.00  0.00     0.153 C 
HETATM    7  C           1     -21.225  -2.992 -11.480  0.00  0.00     0.042 C 
BRANCH   6   8
HETATM    8  O           1     -20.038  -4.192  -9.788  0.00  0.00    -0.393 OA
HETATM    9  H           1     -19.635  -5.041  -9.723  0.00  0.00     0.210 HD
ENDBRANCH   6   8
ENDBRANCH   5   6
BRANCH   5  10
HETATM   10  N           1     -23.436  -3.645 -10.421  0.00  0.00    -0.064 N 
HETATM   11  H           1     -24.250  -4.163 -10.820  0.00  0.00     0.275 HD
HETATM   12  H           1     -23.043  -3.000 -11.143  0.00  0.00     0.275 HD
HETATM   13  H           1     -23.748  -3.090  -9.592  0.00  0.00     0.275 HD
ENDBRANCH   5  10
ENDBRANCH   2   5
BRANCH   1  14
HETATM   14  C           1     -21.355  -5.449  -6.402  0.00  0.00     0.185 C 
BRANCH  14  15
HETATM   15  C           1     -21.421  -6.839  -5.784  0.00  0.00     0.036 C 
BRANCH  15  16
HETATM   16  C           1     -22.271  -6.795  -4.520  0.00  0.00     0.003 C 
BRANCH  16  17
HETATM   17 Se           1     -21.200  -7.366  -2.996  0.00  0.00     0.000 Se
HETATM   18  C           1     -22.234  -6.362  -1.684  0.00  0.00     0.000 C 
ENDBRANCH  16  17
ENDBRANCH  15  16
ENDBRANCH  14  15
BRANCH  14  19
HETATM   19  C           1     -20.002  -4.840  -6.129  0.00  0.00     0.196 C 
HETATM   20  O           1     -19.148  -4.780  -7.041  0.00  0.00    -0.646 OA
HETATM   21  O           1     -19.734  -4.395  -4.992  0.00  0.00    -0.646 OA
ENDBRANCH  14  19
ENDBRANCH   1  14
TORSDOF 9
ENDMDL
MODEL 5
REMARK VINA RESULT:      -4.9     15.459     16.938
REMARK  9 active torsions:
REMARK  status: ('A' for Active; 'I' for Inactive)
REMARK    1  A    between atoms: N_4  and  C_14 
REMARK       I    between atoms: N_4  and  C_5 
REMARK    2  A    between atoms: C_5  and  C_11 
REMARK    3  A    between atoms: C_6  and  C_9 
REMARK    4  A    between atoms: C_6  and  C_14 
REMARK    5  A    between atoms: C_9  and  Se_10 
REMARK    6  A    between atoms: C_11  and  C_16 
REMARK    7  A    between atoms: C_11  and  N_21 
REMARK    8  A    between atoms: C_12  and  C_14 
REMARK    9  A    between atoms: O_15  and  C_16 
ROOT
HETATM    1  N           1     -21.001  -6.747  -6.236  0.00  0.00    -0.345 N 
HETATM    2  C           1     -21.001  -5.428  -6.605  0.00  0.00     0.251 C 
HETATM    3  H           1     -21.352  -7.450  -6.873  0.00  0.00     0.163 HD
HETATM    4  O           1     -20.582  -4.588  -5.844  0.00  0.00    -0.271 OA
ENDROOT
BRANCH   2   5
HETATM    5  C           1     -21.525  -5.025  -7.961  0.00  0.00     0.302 C 
BRANCH   5   6
HETATM    6  C           1     -20.356  -4.709  -8.885  0.00  0.00     0.153 C 
HETATM    7  C           1     -20.880  -4.077 -10.168  0.00  0.00     0.042 C 
BRANCH   6   8
HETATM    8  O           1     -19.485  -3.814  -8.247  0.00  0.00    -0.393 OA
HETATM    9  H           1     -19.985  -3.042  -8.044  0.00  0.00     0.210 HD
ENDBRANCH   6   8
ENDBRANCH   5   6
BRANCH   5  10
HETATM   10  N           1     -22.393  -3.809  -7.820  0.00  0.00    -0.064 N 
HETATM   11  H           1     -22.320  -3.441  -6.845  0.00  0.00     0.275 HD
HETATM   12  H           1     -23.385  -4.065  -8.025  0.00  0.00     0.275 HD
HETATM   13  H           1     -22.077  -3.075  -8.494  0.00  0.00     0.275 HD
ENDBRANCH   5  10
ENDBRANCH   2   5
BRANCH   1  14
HETATM   14  C           1     -20.497  -7.134  -4.933  0.00  0.00     0.185 C 
BRANCH  14  15
HETATM   15  C           1     -21.659  -7.255  -3.956  0.00  0.00     0.036 C 
BRANCH  15  16
HETATM   16  C           1     -21.517  -6.202  -2.864  0.00  0.00     0.003 C 
BRANCH  16  17
HETATM   17 Se           1     -22.251  -6.891  -1.195  0.00  0.00     0.000 Se
HETATM   18  C           1     -20.906  -8.287  -0.991  0.00  0.00     0.000 C 
ENDBRANCH  16  17
ENDBRANCH  15  16
ENDBRANCH  14  15
BRANCH  14  19
HETATM   19  C           1     -19.790  -8.463  -5.042  0.00  0.00     0.196 C 
HETATM   20  O           1     -18.994  -8.671  -5.983  0.00  0.00    -0.646 OA
HETATM   21  O           1     -20.002  -9.355  -4.192  0.00  0.00    -0.646 OA
ENDBRANCH  14  19
ENDBRANCH   1  14
TORSDOF 9
ENDMDL
MODEL 6
REMARK VINA RESULT:      -4.6     15.340     17.259
REMARK  9 active torsions:
REMARK  status: ('A' for Active; 'I' for Inactive)
REMARK    1  A    between atoms: N_4  and  C_14 
REMARK       I    between atoms: N_4  and  C_5 
REMARK    2  A    between atoms: C_5  and  C_11 
REMARK    3  A    between atoms: C_6  and  C_9 
REMARK    4  A    between atoms: C_6  and  C_14 
REMARK    5  A    between atoms: C_9  and  Se_10 
REMARK    6  A    between atoms: C_11  and  C_16 
REMARK    7  A    between atoms: C_11  and  N_21 
REMARK    8  A    between atoms: C_12  and  C_14 
REMARK    9  A    between atoms: O_15  and  C_16 
ROOT
HETATM    1  N           1     -20.810  -6.591  -4.014  0.00  0.00    -0.345 N 
HETATM    2  C           1     -20.865  -6.770  -5.370  0.00  0.00     0.251 C 
HETATM    3  H           1     -20.448  -5.727  -3.632  0.00  0.00     0.163 HD
HETATM    4  O           1     -21.296  -7.802  -5.826  0.00  0.00    -0.271 OA
ENDROOT
BRANCH   2   5
HETATM    5  C           1     -20.384  -5.679  -6.295  0.00  0.00     0.302 C 
BRANCH   5   6
HETATM    6  C           1     -21.559  -4.795  -6.692  0.00  0.00     0.153 C 
HETATM    7  C           1     -21.741  -4.841  -8.203  0.00  0.00     0.042 C 
BRANCH   6   8
HETATM    8  O           1     -22.726  -5.260  -6.067  0.00  0.00    -0.393 OA
HETATM    9  H           1     -23.410  -4.646  -6.275  0.00  0.00     0.210 HD
ENDBRANCH   6   8
ENDBRANCH   5   6
BRANCH   5  10
HETATM   10  N           1     -19.785  -6.294  -7.525  0.00  0.00    -0.064 N 
HETATM   11  H           1     -19.309  -5.553  -8.087  0.00  0.00     0.275 HD
HETATM   12  H           1     -20.541  -6.736  -8.095  0.00  0.00     0.275 HD
HETATM   13  H           1     -19.088  -7.022  -7.247  0.00  0.00     0.275 HD
ENDBRANCH   5  10
ENDBRANCH   2   5
BRANCH   1  14
HETATM   14  C           1     -21.272  -7.640  -3.125  0.00  0.00     0.185 C 
BRANCH  14  15
HETATM   15  C           1     -20.079  -8.447  -2.631  0.00  0.00     0.036 C 
BRANCH  15  16
HETATM   16  C           1     -20.129  -9.847  -3.231  0.00  0.00     0.003 C 
BRANCH  16  17
HETATM   17 Se           1     -21.986 -10.396  -3.448  0.00  0.00     0.000 Se
HETATM   18  C           1     -22.170 -11.071  -1.629  0.00  0.00     0.000 C 
ENDBRANCH  16  17
ENDBRANCH  15  16
ENDBRANCH  14  15
BRANCH  14  19
HETATM   19  C           1     -21.986  -7.022  -1.947  0.00  0.00     0.196 C 
HETATM   20  O           1     -21.974  -7.599  -0.838  0.00  0.00    -0.646 OA
HETATM   21  O           1     -22.589  -5.936  -2.082  0.00  0.00    -0.646 OA
ENDBRANCH  14  19
ENDBRANCH   1  14
TORSDOF 9
ENDMDL
MODEL 7
REMARK VINA RESULT:      -4.6     16.881     18.564
REMARK  9 active torsions:
REMARK  status: ('A' for Active; 'I' for Inactive)
REMARK    1  A    between atoms: N_4  and  C_14 
REMARK       I    between atoms: N_4  and  C_5 
REMARK    2  A    between atoms: C_5  and  C_11 
REMARK    3  A    between atoms: C_6  and  C_9 
REMARK    4  A    between atoms: C_6  and  C_14 
REMARK    5  A    between atoms: C_9  and  Se_10 
REMARK    6  A    between atoms: C_11  and  C_16 
REMARK    7  A    between atoms: C_11  and  N_21 
REMARK    8  A    between atoms: C_12  and  C_14 
REMARK    9  A    between atoms: O_15  and  C_16 
ROOT
HETATM    1  N           1     -20.920  -8.172  -1.988  0.00  0.00    -0.345 N 
HETATM    2  C           1     -21.179  -8.487  -3.295  0.00  0.00     0.251 C 
HETATM    3  H           1     -20.187  -7.511  -1.762  0.00  0.00     0.163 HD
HETATM    4  O           1     -22.053  -9.275  -3.564  0.00  0.00    -0.271 OA
ENDROOT
BRANCH   2   5
HETATM    5  C           1     -20.370  -7.850  -4.399  0.00  0.00     0.302 C 
BRANCH   5   6
HETATM    6  C           1     -20.901  -6.450  -4.675  0.00  0.00     0.153 C 
HETATM    7  C           1     -21.309  -6.342  -6.139  0.00  0.00     0.042 C 
BRANCH   6   8
HETATM    8  O           1     -22.016  -6.203  -3.861  0.00  0.00    -0.393 OA
HETATM    9  H           1     -21.687  -5.903  -3.030  0.00  0.00     0.210 HD
ENDBRANCH   6   8
ENDBRANCH   5   6
BRANCH   5  10
HETATM   10  N           1     -20.482  -8.681  -5.643  0.00  0.00    -0.064 N 
HETATM   11  H           1     -21.403  -9.174  -5.651  0.00  0.00     0.275 HD
HETATM   12  H           1     -19.708  -9.384  -5.661  0.00  0.00     0.275 HD
HETATM   13  H           1     -20.410  -8.063  -6.483  0.00  0.00     0.275 HD
ENDBRANCH   5  10
ENDBRANCH   2   5
BRANCH   1  14
HETATM   14  C           1     -21.697  -8.783  -0.928  0.00  0.00     0.185 C 
BRANCH  14  15
HETATM   15  C           1     -20.761  -9.271   0.169  0.00  0.00     0.036 C 
BRANCH  15  16
HETATM   16  C           1     -21.143 -10.691   0.570  0.00  0.00     0.003 C 
BRANCH  16  17
HETATM   17 Se           1     -22.061 -11.560  -0.913  0.00  0.00     0.000 Se
HETATM   18  C           1     -23.773 -11.690   0.010  0.00  0.00     0.000 C 
ENDBRANCH  16  17
ENDBRANCH  15  16
ENDBRANCH  14  15
BRANCH  14  19
HETATM   19  C           1     -22.656  -7.767  -0.357  0.00  0.00     0.196 C 
HETATM   20  O           1     -23.365  -8.063   0.629  0.00  0.00    -0.646 OA
HETATM   21  O           1     -22.740  -6.631  -0.870  0.00  0.00    -0.646 OA
ENDBRANCH  14  19
ENDBRANCH   1  14
TORSDOF 9
ENDMDL
MODEL 8
REMARK VINA RESULT:      -4.6     17.905     20.231
REMARK  9 active torsions:
REMARK  status: ('A' for Active; 'I' for Inactive)
REMARK    1  A    between atoms: N_4  and  C_14 
REMARK       I    between atoms: N_4  and  C_5 
REMARK    2  A    between atoms: C_5  and  C_11 
REMARK    3  A    between atoms: C_6  and  C_9 
REMARK    4  A    between atoms: C_6  and  C_14 
REMARK    5  A    between atoms: C_9  and  Se_10 
REMARK    6  A    between atoms: C_11  and  C_16 
REMARK    7  A    between atoms: C_11  and  N_21 
REMARK    8  A    between atoms: C_12  and  C_14 
REMARK    9  A    between atoms: O_15  and  C_16 
ROOT
HETATM    1  N           1     -21.567  -9.730  -1.034  0.00  0.00    -0.345 N 
HETATM    2  C           1     -21.380 -10.712  -0.100  0.00  0.00     0.251 C 
HETATM    3  H           1     -21.962  -9.958  -1.938  0.00  0.00     0.163 HD
HETATM    4  O           1     -20.909 -10.439   0.978  0.00  0.00    -0.271 OA
ENDROOT
BRANCH   2   5
HETATM    5  C           1     -21.761 -12.137  -0.418  0.00  0.00     0.302 C 
BRANCH   5   6
HETATM    6  C           1     -23.216 -12.372  -0.034  0.00  0.00     0.153 C 
HETATM    7  C           1     -23.277 -13.217   1.231  0.00  0.00     0.042 C 
BRANCH   6   8
HETATM    8  O           1     -23.844 -11.139   0.197  0.00  0.00    -0.393 OA
HETATM    9  H           1     -24.769 -11.309   0.251  0.00  0.00     0.210 HD
ENDBRANCH   6   8
ENDBRANCH   5   6
BRANCH   5  10
HETATM   10  N           1     -20.883 -13.074   0.358  0.00  0.00    -0.064 N 
HETATM   11  H           1     -20.401 -12.548   1.121  0.00  0.00     0.275 HD
HETATM   12  H           1     -20.171 -13.493  -0.283  0.00  0.00     0.275 HD
HETATM   13  H           1     -21.466 -13.835   0.774  0.00  0.00     0.275 HD
ENDBRANCH   5  10
ENDBRANCH   2   5
BRANCH   1  14
HETATM   14  C           1     -21.202  -8.360  -0.729  0.00  0.00     0.185 C 
BRANCH  14  15
HETATM   15  C           1     -20.479  -7.751  -1.922  0.00  0.00     0.036 C 
BRANCH  15  16
HETATM   16  C           1     -20.440  -8.760  -3.063  0.00  0.00     0.003 C 
BRANCH  16  17
HETATM   17 Se           1     -21.572  -8.136  -4.522  0.00  0.00     0.000 Se
HETATM   18  C           1     -21.203  -6.247  -4.219  0.00  0.00     0.000 C 
ENDBRANCH  16  17
ENDBRANCH  15  16
ENDBRANCH  14  15
BRANCH  14  19
HETATM   19  C           1     -22.447  -7.561  -0.432  0.00  0.00     0.196 C 
HETATM   20  O           1     -22.654  -6.482  -1.029  0.00  0.00    -0.646 OA
HETATM   21  O           1     -23.271  -7.978   0.410  0.00  0.00    -0.646 OA
ENDBRANCH  14  19
ENDBRANCH   1  14
TORSDOF 9
ENDMDL
MODEL 9
REMARK VINA RESULT:      -4.6      2.897      5.397
REMARK  9 active torsions:
REMARK  status: ('A' for Active; 'I' for Inactive)
REMARK    1  A    between atoms: N_4  and  C_14 
REMARK       I    between atoms: N_4  and  C_5 
REMARK    2  A    between atoms: C_5  and  C_11 
REMARK    3  A    between atoms: C_6  and  C_9 
REMARK    4  A    between atoms: C_6  and  C_14 
REMARK    5  A    between atoms: C_9  and  Se_10 
REMARK    6  A    between atoms: C_11  and  C_16 
REMARK    7  A    between atoms: C_11  and  N_21 
REMARK    8  A    between atoms: C_12  and  C_14 
REMARK    9  A    between atoms: O_15  and  C_16 
ROOT
HETATM    1  N           1     -35.588  -1.705 -13.359  0.00  0.00    -0.345 N 
HETATM    2  C           1     -34.656  -2.265 -12.528  0.00  0.00     0.251 C 
HETATM    3  H           1     -36.050  -2.273 -14.058  0.00  0.00     0.163 HD
HETATM    4  O           1     -34.105  -1.587 -11.695  0.00  0.00    -0.271 OA
ENDROOT
BRANCH   2   5
HETATM    5  C           1     -34.315  -3.729 -12.656  0.00  0.00     0.302 C 
BRANCH   5   6
HETATM    6  C           1     -33.256  -4.097 -11.624  0.00  0.00     0.153 C 
HETATM    7  C           1     -33.876  -4.990 -10.557  0.00  0.00     0.042 C 
BRANCH   6   8
HETATM    8  O           1     -32.207  -4.782 -12.255  0.00  0.00    -0.393 OA
HETATM    9  H           1     -31.956  -5.486 -11.680  0.00  0.00     0.210 HD
ENDBRANCH   6   8
ENDBRANCH   5   6
BRANCH   5  10
HETATM   10  N           1     -33.786  -4.001 -14.033  0.00  0.00    -0.064 N 
HETATM   11  H           1     -34.314  -4.796 -14.457  0.00  0.00     0.275 HD
HETATM   12  H           1     -32.771  -4.247 -13.972  0.00  0.00     0.275 HD
HETATM   13  H           1     -33.902  -3.149 -14.626  0.00  0.00     0.275 HD
ENDBRANCH   5  10
ENDBRANCH   2   5
BRANCH   1  14
HETATM   14  C           1     -35.916  -0.297 -13.237  0.00  0.00     0.185 C 
BRANCH  14  15
HETATM   15  C           1     -35.898   0.101 -11.767  0.00  0.00     0.036 C 
BRANCH  15  16
HETATM   16  C           1     -37.305  -0.008 -11.193  0.00  0.00     0.003 C 
BRANCH  16  17
HETATM   17 Se           1     -37.207  -0.142  -9.251  0.00  0.00     0.000 Se
HETATM   18  C           1     -38.003   1.607  -8.927  0.00  0.00     0.000 C 
ENDBRANCH  16  17
ENDBRANCH  15  16
ENDBRANCH  14  15
BRANCH  14  19
HETATM   19  C           1     -34.900   0.523 -13.994  0.00  0.00     0.196 C 
HETATM   20  O           1     -34.424   1.558 -13.478  0.00  0.00    -0.646 OA
HETATM   21  O           1     -34.536   0.168 -15.135  0.00  0.00    -0.646 OA
ENDBRANCH  14  19
ENDBRANCH   1  14
TORSDOF 9
ENDMDL
