MODEL 1
REMARK VINA RESULT:      -6.3      0.000      0.000
REMARK  8 active torsions:
REMARK  status: ('A' for Active; 'I' for Inactive)
REMARK       I    between atoms: C_1  and  N_4 
REMARK    1  A    between atoms: C_1  and  C_3 
REMARK    2  A    between atoms: C_3  and  C_16 
REMARK    3  A    between atoms: C_3  and  N_8 
REMARK    4  A    between atoms: N_4  and  C_12 
REMARK    5  A    between atoms: C_6  and  C_16 
REMARK    6  A    between atoms: C_10  and  O_11 
REMARK    7  A    between atoms: C_10  and  C_12 
REMARK    8  A    between atoms: C_12  and  C_13 
ROOT
HETATM    1  C           1     -21.748  -4.759  -7.860  0.00  0.00     0.249 C 
HETATM    2  N           1     -22.163  -4.890  -9.158  0.00  0.00    -0.343 N 
HETATM    3  O           1     -21.753  -3.673  -7.331  0.00  0.00    -0.271 OA
HETATM    4  H           1     -22.158  -5.800  -9.602  0.00  0.00     0.163 HD
ENDROOT
BRANCH   1   5
HETATM    5  C           1     -21.284  -5.971  -7.091  0.00  0.00     0.278 C 
BRANCH   5   6
HETATM    6  C           1     -21.570  -5.772  -5.609  0.00  0.00     0.021 C 
HETATM    7  C           1     -22.972  -6.274  -5.289  0.00  0.00     0.012 C 
BRANCH   6   8
HETATM    8  C           1     -20.552  -6.551  -4.786  0.00  0.00     0.002 C 
HETATM    9  C           1     -21.214  -7.065  -3.514  0.00  0.00     0.005 C 
ENDBRANCH   6   8
ENDBRANCH   5   6
BRANCH   5  10
HETATM   10  N           1     -19.809  -6.157  -7.294  0.00  0.00    -0.066 N 
HETATM   11  H           1     -19.340  -6.267  -6.367  0.00  0.00     0.275 HD
HETATM   12  H           1     -19.642  -7.012  -7.872  0.00  0.00     0.275 HD
HETATM   13  H           1     -19.418  -5.322  -7.785  0.00  0.00     0.275 HD
ENDBRANCH   5  10
ENDBRANCH   1   5
BRANCH   2  14
HETATM   14  C           1     -22.609  -3.725  -9.898  0.00  0.00     0.214 C 
BRANCH  14  15
HETATM   15  C           1     -21.832  -3.625 -11.204  0.00  0.00     0.147 C 
HETATM   16  C           1     -20.426  -4.174 -11.001  0.00  0.00     0.042 C 
BRANCH  15  17
HETATM   17  O           1     -22.487  -4.371 -12.195  0.00  0.00    -0.393 OA
HETATM   18  H           1     -22.986  -3.762 -12.711  0.00  0.00     0.210 HD
ENDBRANCH  15  17
ENDBRANCH  14  15
BRANCH  14  19
HETATM   19  C           1     -24.082  -3.854 -10.197  0.00  0.00     0.199 C 
HETATM   20  O           1     -24.698  -2.904 -10.728  0.00  0.00    -0.646 OA
HETATM   21  O           1     -24.687  -4.911  -9.914  0.00  0.00    -0.646 OA
ENDBRANCH  14  19
ENDBRANCH   2  14
TORSDOF 8
ENDMDL
MODEL 2
REMARK VINA RESULT:      -5.5      1.752      2.599
REMARK  8 active torsions:
REMARK  status: ('A' for Active; 'I' for Inactive)
REMARK       I    between atoms: C_1  and  N_4 
REMARK    1  A    between atoms: C_1  and  C_3 
REMARK    2  A    between atoms: C_3  and  C_16 
REMARK    3  A    between atoms: C_3  and  N_8 
REMARK    4  A    between atoms: N_4  and  C_12 
REMARK    5  A    between atoms: C_6  and  C_16 
REMARK    6  A    between atoms: C_10  and  O_11 
REMARK    7  A    between atoms: C_10  and  C_12 
REMARK    8  A    between atoms: C_12  and  C_13 
ROOT
HETATM    1  C           1     -21.571  -4.850  -8.255  0.00  0.00     0.249 C 
HETATM    2  N           1     -22.435  -4.415  -9.223  0.00  0.00    -0.343 N 
HETATM    3  O           1     -20.591  -5.486  -8.561  0.00  0.00    -0.271 OA
HETATM    4  H           1     -23.257  -3.883  -8.967  0.00  0.00     0.163 HD
ENDROOT
BRANCH   1   5
HETATM    5  C           1     -21.842  -4.534  -6.804  0.00  0.00     0.278 C 
BRANCH   5   6
HETATM    6  C           1     -21.107  -5.532  -5.921  0.00  0.00     0.021 C 
HETATM    7  C           1     -20.123  -4.791  -5.025  0.00  0.00     0.012 C 
BRANCH   6   8
HETATM    8  C           1     -22.112  -6.282  -5.058  0.00  0.00     0.002 C 
HETATM    9  C           1     -21.609  -6.337  -3.621  0.00  0.00     0.005 C 
ENDBRANCH   6   8
ENDBRANCH   5   6
BRANCH   5  10
HETATM   10  N           1     -23.316  -4.624  -6.541  0.00  0.00    -0.066 N 
HETATM   11  H           1     -23.817  -4.834  -7.433  0.00  0.00     0.275 HD
HETATM   12  H           1     -23.500  -5.387  -5.851  0.00  0.00     0.275 HD
HETATM   13  H           1     -23.657  -3.715  -6.156  0.00  0.00     0.275 HD
ENDBRANCH   5  10
ENDBRANCH   1   5
BRANCH   2  14
HETATM   14  C           1     -22.175  -4.719 -10.617  0.00  0.00     0.214 C 
BRANCH  14  15
HETATM   15  C           1     -23.496  -4.897 -11.353  0.00  0.00     0.147 C 
HETATM   16  C           1     -24.525  -3.924 -10.791  0.00  0.00     0.042 C 
BRANCH  15  17
HETATM   17  O           1     -23.308  -4.641 -12.719  0.00  0.00    -0.393 OA
HETATM   18  H           1     -23.006  -3.751 -12.791  0.00  0.00     0.210 HD
ENDBRANCH  15  17
ENDBRANCH  14  15
BRANCH  14  19
HETATM   19  C           1     -21.400  -3.586 -11.242  0.00  0.00     0.199 C 
HETATM   20  O           1     -20.174  -3.710 -11.458  0.00  0.00    -0.646 OA
HETATM   21  O           1     -21.983  -2.522 -11.543  0.00  0.00    -0.646 OA
ENDBRANCH  14  19
ENDBRANCH   2  14
TORSDOF 8
ENDMDL
MODEL 3
REMARK VINA RESULT:      -5.4      2.651      4.332
REMARK  8 active torsions:
REMARK  status: ('A' for Active; 'I' for Inactive)
REMARK       I    between atoms: C_1  and  N_4 
REMARK    1  A    between atoms: C_1  and  C_3 
REMARK    2  A    between atoms: C_3  and  C_16 
REMARK    3  A    between atoms: C_3  and  N_8 
REMARK    4  A    between atoms: N_4  and  C_12 
REMARK    5  A    between atoms: C_6  and  C_16 
REMARK    6  A    between atoms: C_10  and  O_11 
REMARK    7  A    between atoms: C_10  and  C_12 
REMARK    8  A    between atoms: C_12  and  C_13 
ROOT
HETATM    1  C           1     -21.552  -7.197  -5.401  0.00  0.00     0.249 C 
HETATM    2  N           1     -21.841  -5.895  -5.709  0.00  0.00    -0.343 N 
HETATM    3  O           1     -20.968  -7.891  -6.198  0.00  0.00    -0.271 OA
HETATM    4  H           1     -22.332  -5.313  -5.042  0.00  0.00     0.163 HD
ENDROOT
BRANCH   1   5
HETATM    5  C           1     -21.962  -7.764  -4.064  0.00  0.00     0.278 C 
BRANCH   5   6
HETATM    6  C           1     -21.196  -7.055  -2.955  0.00  0.00     0.021 C 
HETATM    7  C           1     -22.160  -6.217  -2.126  0.00  0.00     0.012 C 
BRANCH   6   8
HETATM    8  C           1     -20.524  -8.089  -2.061  0.00  0.00     0.002 C 
HETATM    9  C           1     -21.147  -8.041  -0.672  0.00  0.00     0.005 C 
ENDBRANCH   6   8
ENDBRANCH   5   6
BRANCH   5  10
HETATM   10  N           1     -21.650  -9.231  -4.027  0.00  0.00    -0.066 N 
HETATM   11  H           1     -20.645  -9.380  -4.274  0.00  0.00     0.275 HD
HETATM   12  H           1     -21.831  -9.602  -3.067  0.00  0.00     0.275 HD
HETATM   13  H           1     -22.255  -9.732  -4.715  0.00  0.00     0.275 HD
ENDBRANCH   5  10
ENDBRANCH   1   5
BRANCH   2  14
HETATM   14  C           1     -21.447  -5.350  -6.994  0.00  0.00     0.214 C 
BRANCH  14  15
HETATM   15  C           1     -22.467  -4.309  -7.438  0.00  0.00     0.147 C 
HETATM   16  C           1     -22.706  -4.440  -8.937  0.00  0.00     0.042 C 
BRANCH  15  17
HETATM   17  O           1     -23.673  -4.514  -6.752  0.00  0.00    -0.393 OA
HETATM   18  H           1     -23.785  -3.782  -6.171  0.00  0.00     0.210 HD
ENDBRANCH  15  17
ENDBRANCH  14  15
BRANCH  14  19
HETATM   19  C           1     -20.090  -4.703  -6.870  0.00  0.00     0.199 C 
HETATM   20  O           1     -19.597  -4.493  -5.740  0.00  0.00    -0.646 OA
HETATM   21  O           1     -19.457  -4.377  -7.898  0.00  0.00    -0.646 OA
ENDBRANCH  14  19
ENDBRANCH   2  14
TORSDOF 8
ENDMDL
MODEL 4
REMARK VINA RESULT:      -5.2      3.216      6.322
REMARK  8 active torsions:
REMARK  status: ('A' for Active; 'I' for Inactive)
REMARK       I    between atoms: C_1  and  N_4 
REMARK    1  A    between atoms: C_1  and  C_3 
REMARK    2  A    between atoms: C_3  and  C_16 
REMARK    3  A    between atoms: C_3  and  N_8 
REMARK    4  A    between atoms: N_4  and  C_12 
REMARK    5  A    between atoms: C_6  and  C_16 
REMARK    6  A    between atoms: C_10  and  O_11 
REMARK    7  A    between atoms: C_10  and  C_12 
REMARK    8  A    between atoms: C_12  and  C_13 
ROOT
HETATM    1  C           1     -21.174  -5.109  -6.231  0.00  0.00     0.249 C 
HETATM    2  N           1     -21.571  -6.342  -5.789  0.00  0.00    -0.343 N 
HETATM    3  O           1     -20.169  -4.604  -5.790  0.00  0.00    -0.271 OA
HETATM    4  H           1     -22.414  -6.765  -6.157  0.00  0.00     0.163 HD
ENDROOT
BRANCH   1   5
HETATM    5  C           1     -21.992  -4.380  -7.269  0.00  0.00     0.278 C 
BRANCH   5   6
HETATM    6  C           1     -21.695  -4.957  -8.646  0.00  0.00     0.021 C 
HETATM    7  C           1     -22.849  -4.645  -9.589  0.00  0.00     0.012 C 
BRANCH   6   8
HETATM    8  C           1     -20.414  -4.339  -9.190  0.00  0.00     0.002 C 
HETATM    9  C           1     -20.537  -4.158 -10.697  0.00  0.00     0.005 C 
ENDBRANCH   6   8
ENDBRANCH   5   6
BRANCH   5  10
HETATM   10  N           1     -21.637  -2.923  -7.251  0.00  0.00    -0.066 N 
HETATM   11  H           1     -22.366  -2.393  -6.723  0.00  0.00     0.275 HD
HETATM   12  H           1     -20.710  -2.796  -6.786  0.00  0.00     0.275 HD
HETATM   13  H           1     -21.588  -2.564  -8.231  0.00  0.00     0.275 HD
ENDBRANCH   5  10
ENDBRANCH   1   5
BRANCH   2  14
HETATM   14  C           1     -20.785  -7.042  -4.791  0.00  0.00     0.214 C 
BRANCH  14  15
HETATM   15  C           1     -21.637  -7.283  -3.552  0.00  0.00     0.147 C 
HETATM   16  C           1     -20.753  -7.787  -2.419  0.00  0.00     0.042 C 
BRANCH  15  17
HETATM   17  O           1     -22.252  -6.083  -3.167  0.00  0.00    -0.393 OA
HETATM   18  H           1     -22.993  -6.314  -2.634  0.00  0.00     0.210 HD
ENDBRANCH  15  17
ENDBRANCH  14  15
BRANCH  14  19
HETATM   19  C           1     -20.326  -8.366  -5.352  0.00  0.00     0.199 C 
HETATM   20  O           1     -21.165  -9.250  -5.633  0.00  0.00    -0.646 OA
HETATM   21  O           1     -19.108  -8.578  -5.534  0.00  0.00    -0.646 OA
ENDBRANCH  14  19
ENDBRANCH   2  14
TORSDOF 8
ENDMDL
MODEL 5
REMARK VINA RESULT:      -5.2      3.113      6.473
REMARK  8 active torsions:
REMARK  status: ('A' for Active; 'I' for Inactive)
REMARK       I    between atoms: C_1  and  N_4 
REMARK    1  A    between atoms: C_1  and  C_3 
REMARK    2  A    between atoms: C_3  and  C_16 
REMARK    3  A    between atoms: C_3  and  N_8 
REMARK    4  A    between atoms: N_4  and  C_12 
REMARK    5  A    between atoms: C_6  and  C_16 
REMARK    6  A    between atoms: C_10  and  O_11 
REMARK    7  A    between atoms: C_10  and  C_12 
REMARK    8  A    between atoms: C_12  and  C_13 
ROOT
HETATM    1  C           1     -21.651  -5.627  -5.704  0.00  0.00     0.249 C 
HETATM    2  N           1     -20.897  -6.438  -4.899  0.00  0.00    -0.343 N 
HETATM    3  O           1     -22.855  -5.721  -5.698  0.00  0.00    -0.271 OA
HETATM    4  H           1     -19.888  -6.360  -4.904  0.00  0.00     0.163 HD
ENDROOT
BRANCH   1   5
HETATM    5  C           1     -20.978  -4.615  -6.598  0.00  0.00     0.278 C 
BRANCH   5   6
HETATM    6  C           1     -21.358  -4.886  -8.047  0.00  0.00     0.021 C 
HETATM    7  C           1     -22.339  -3.823  -8.524  0.00  0.00     0.012 C 
BRANCH   6   8
HETATM    8  C           1     -20.107  -4.847  -8.916  0.00  0.00     0.002 C 
HETATM    9  C           1     -20.471  -4.350 -10.309  0.00  0.00     0.005 C 
ENDBRANCH   6   8
ENDBRANCH   5   6
BRANCH   5  10
HETATM   10  N           1     -19.490  -4.725  -6.443  0.00  0.00    -0.066 N 
HETATM   11  H           1     -19.150  -5.581  -6.937  0.00  0.00     0.275 HD
HETATM   12  H           1     -19.033  -3.881  -6.857  0.00  0.00     0.275 HD
HETATM   13  H           1     -19.249  -4.789  -5.429  0.00  0.00     0.275 HD
ENDBRANCH   5  10
ENDBRANCH   1   5
BRANCH   2  14
HETATM   14  C           1     -21.545  -7.410  -4.039  0.00  0.00     0.214 C 
BRANCH  14  15
HETATM   15  C           1     -20.765  -8.718  -4.075  0.00  0.00     0.147 C 
HETATM   16  C           1     -21.192  -9.529  -5.291  0.00  0.00     0.042 C 
BRANCH  15  17
HETATM   17  O           1     -19.392  -8.441  -4.156  0.00  0.00    -0.393 OA
HETATM   18  H           1     -19.224  -7.721  -3.571  0.00  0.00     0.210 HD
ENDBRANCH  15  17
ENDBRANCH  14  15
BRANCH  14  19
HETATM   19  C           1     -21.581  -6.884  -2.625  0.00  0.00     0.199 C 
HETATM   20  O           1     -20.832  -7.379  -1.755  0.00  0.00    -0.646 OA
HETATM   21  O           1     -22.361  -5.955  -2.324  0.00  0.00    -0.646 OA
ENDBRANCH  14  19
ENDBRANCH   2  14
TORSDOF 8
ENDMDL
MODEL 6
REMARK VINA RESULT:      -5.1      2.265      3.468
REMARK  8 active torsions:
REMARK  status: ('A' for Active; 'I' for Inactive)
REMARK       I    between atoms: C_1  and  N_4 
REMARK    1  A    between atoms: C_1  and  C_3 
REMARK    2  A    between atoms: C_3  and  C_16 
REMARK    3  A    between atoms: C_3  and  N_8 
REMARK    4  A    between atoms: N_4  and  C_12 
REMARK    5  A    between atoms: C_6  and  C_16 
REMARK    6  A    between atoms: C_10  and  O_11 
REMARK    7  A    between atoms: C_10  and  C_12 
REMARK    8  A    between atoms: C_12  and  C_13 
ROOT
HETATM    1  C           1     -21.343  -5.783  -5.020  0.00  0.00     0.249 C 
HETATM    2  N           1     -21.862  -5.633  -6.278  0.00  0.00    -0.343 N 
HETATM    3  O           1     -20.454  -5.058  -4.644  0.00  0.00    -0.271 OA
HETATM    4  H           1     -22.607  -6.241  -6.595  0.00  0.00     0.163 HD
ENDROOT
BRANCH   1   5
HETATM    5  C           1     -21.882  -6.854  -4.105  0.00  0.00     0.278 C 
BRANCH   5   6
HETATM    6  C           1     -21.231  -6.726  -2.735  0.00  0.00     0.021 C 
HETATM    7  C           1     -22.255  -6.212  -1.731  0.00  0.00     0.012 C 
BRANCH   6   8
HETATM    8  C           1     -20.721  -8.089  -2.286  0.00  0.00     0.002 C 
HETATM    9  C           1     -21.019  -8.280  -0.804  0.00  0.00     0.005 C 
ENDBRANCH   6   8
ENDBRANCH   5   6
BRANCH   5  10
HETATM   10  N           1     -21.572  -8.205  -4.681  0.00  0.00    -0.066 N 
HETATM   11  H           1     -20.637  -8.523  -4.340  0.00  0.00     0.275 HD
HETATM   12  H           1     -22.303  -8.889  -4.378  0.00  0.00     0.275 HD
HETATM   13  H           1     -21.561  -8.144  -5.723  0.00  0.00     0.275 HD
ENDBRANCH   5  10
ENDBRANCH   1   5
BRANCH   2  14
HETATM   14  C           1     -21.344  -4.603  -7.158  0.00  0.00     0.214 C 
BRANCH  14  15
HETATM   15  C           1     -20.155  -5.151  -7.936  0.00  0.00     0.147 C 
HETATM   16  C           1     -18.946  -4.252  -7.716  0.00  0.00     0.042 C 
BRANCH  15  17
HETATM   17  O           1     -19.862  -6.448  -7.488  0.00  0.00    -0.393 OA
HETATM   18  H           1     -20.070  -7.035  -8.195  0.00  0.00     0.210 HD
ENDBRANCH  15  17
ENDBRANCH  14  15
BRANCH  14  19
HETATM   19  C           1     -22.423  -4.176  -8.122  0.00  0.00     0.199 C 
HETATM   20  O           1     -23.626  -4.250  -7.788  0.00  0.00    -0.646 OA
HETATM   21  O           1     -22.115  -3.750  -9.256  0.00  0.00    -0.646 OA
ENDBRANCH  14  19
ENDBRANCH   2  14
TORSDOF 8
ENDMDL
MODEL 7
REMARK VINA RESULT:      -5.1      5.581      7.474
REMARK  8 active torsions:
REMARK  status: ('A' for Active; 'I' for Inactive)
REMARK       I    between atoms: C_1  and  N_4 
REMARK    1  A    between atoms: C_1  and  C_3 
REMARK    2  A    between atoms: C_3  and  C_16 
REMARK    3  A    between atoms: C_3  and  N_8 
REMARK    4  A    between atoms: N_4  and  C_12 
REMARK    5  A    between atoms: C_6  and  C_16 
REMARK    6  A    between atoms: C_10  and  O_11 
REMARK    7  A    between atoms: C_10  and  C_12 
REMARK    8  A    between atoms: C_12  and  C_13 
ROOT
HETATM    1  C           1     -21.975 -10.027  -2.961  0.00  0.00     0.249 C 
HETATM    2  N           1     -21.509  -8.741  -3.011  0.00  0.00    -0.343 N 
HETATM    3  O           1     -22.379 -10.563  -3.965  0.00  0.00    -0.271 OA
HETATM    4  H           1     -21.172  -8.291  -2.169  0.00  0.00     0.163 HD
ENDROOT
BRANCH   1   5
HETATM    5  C           1     -21.984 -10.776  -1.650  0.00  0.00     0.278 C 
BRANCH   5   6
HETATM    6  C           1     -23.039 -10.176  -0.731  0.00  0.00     0.021 C 
HETATM    7  C           1     -23.838 -11.295  -0.074  0.00  0.00     0.012 C 
BRANCH   6   8
HETATM    8  C           1     -22.358  -9.340   0.345  0.00  0.00     0.002 C 
HETATM    9  C           1     -23.145  -8.055   0.564  0.00  0.00     0.005 C 
ENDBRANCH   6   8
ENDBRANCH   5   6
BRANCH   5  10
HETATM   10  N           1     -20.635 -10.665  -1.003  0.00  0.00    -0.066 N 
HETATM   11  H           1     -20.272 -11.621  -0.789  0.00  0.00     0.275 HD
HETATM   12  H           1     -19.976 -10.179  -1.653  0.00  0.00     0.275 HD
HETATM   13  H           1     -20.718 -10.118  -0.117  0.00  0.00     0.275 HD
ENDBRANCH   5  10
ENDBRANCH   1   5
BRANCH   2  14
HETATM   14  C           1     -21.500  -8.022  -4.270  0.00  0.00     0.214 C 
BRANCH  14  15
HETATM   15  C           1     -21.834  -6.557  -4.021  0.00  0.00     0.147 C 
HETATM   16  C           1     -21.920  -6.305  -2.521  0.00  0.00     0.042 C 
BRANCH  15  17
HETATM   17  O           1     -20.831  -5.749  -4.574  0.00  0.00    -0.393 OA
HETATM   18  H           1     -20.052  -5.892  -4.064  0.00  0.00     0.210 HD
ENDBRANCH  15  17
ENDBRANCH  14  15
BRANCH  14  19
HETATM   19  C           1     -20.132  -8.126  -4.898  0.00  0.00     0.199 C 
HETATM   20  O           1     -19.973  -7.827  -6.102  0.00  0.00    -0.646 OA
HETATM   21  O           1     -19.159  -8.512  -4.215  0.00  0.00    -0.646 OA
ENDBRANCH  14  19
ENDBRANCH   2  14
TORSDOF 8
ENDMDL
MODEL 8
REMARK VINA RESULT:      -5.1      4.971      7.240
REMARK  8 active torsions:
REMARK  status: ('A' for Active; 'I' for Inactive)
REMARK       I    between atoms: C_1  and  N_4 
REMARK    1  A    between atoms: C_1  and  C_3 
REMARK    2  A    between atoms: C_3  and  C_16 
REMARK    3  A    between atoms: C_3  and  N_8 
REMARK    4  A    between atoms: N_4  and  C_12 
REMARK    5  A    between atoms: C_6  and  C_16 
REMARK    6  A    between atoms: C_10  and  O_11 
REMARK    7  A    between atoms: C_10  and  C_12 
REMARK    8  A    between atoms: C_12  and  C_13 
ROOT
HETATM    1  C           1     -21.427  -8.527  -2.371  0.00  0.00     0.249 C 
HETATM    2  N           1     -20.934  -7.783  -3.409  0.00  0.00    -0.343 N 
HETATM    3  O           1     -21.853  -9.639  -2.574  0.00  0.00    -0.271 OA
HETATM    4  H           1     -20.578  -6.851  -3.240  0.00  0.00     0.163 HD
ENDROOT
BRANCH   1   5
HETATM    5  C           1     -21.439  -7.958  -0.974  0.00  0.00     0.278 C 
BRANCH   5   6
HETATM    6  C           1     -21.818  -9.050   0.016  0.00  0.00     0.021 C 
HETATM    7  C           1     -21.075  -8.830   1.327  0.00  0.00     0.012 C 
BRANCH   6   8
HETATM    8  C           1     -23.319  -9.006   0.271  0.00  0.00     0.002 C 
HETATM    9  C           1     -23.917 -10.385   0.025  0.00  0.00     0.005 C 
ENDBRANCH   6   8
ENDBRANCH   5   6
BRANCH   5  10
HETATM   10  N           1     -22.441  -6.844  -0.897  0.00  0.00    -0.066 N 
HETATM   11  H           1     -21.985  -5.946  -1.176  0.00  0.00     0.275 HD
HETATM   12  H           1     -23.236  -7.046  -1.544  0.00  0.00     0.275 HD
HETATM   13  H           1     -22.798  -6.764   0.081  0.00  0.00     0.275 HD
ENDBRANCH   5  10
ENDBRANCH   1   5
BRANCH   2  14
HETATM   14  C           1     -20.923  -8.330  -4.752  0.00  0.00     0.214 C 
BRANCH  14  15
HETATM   15  C           1     -21.010  -7.195  -5.763  0.00  0.00     0.147 C 
HETATM   16  C           1     -21.270  -5.884  -5.033  0.00  0.00     0.042 C 
BRANCH  15  17
HETATM   17  O           1     -19.802  -7.105  -6.470  0.00  0.00    -0.393 OA
HETATM   18  H           1     -19.591  -6.189  -6.535  0.00  0.00     0.210 HD
ENDBRANCH  15  17
ENDBRANCH  14  15
BRANCH  14  19
HETATM   19  C           1     -19.644  -9.101  -4.970  0.00  0.00     0.199 C 
HETATM   20  O           1     -18.646  -8.873  -4.251  0.00  0.00    -0.646 OA
HETATM   21  O           1     -19.582  -9.966  -5.870  0.00  0.00    -0.646 OA
ENDBRANCH  14  19
ENDBRANCH   2  14
TORSDOF 8
ENDMDL
MODEL 9
REMARK VINA RESULT:      -5.0      5.413      7.265
REMARK  8 active torsions:
REMARK  status: ('A' for Active; 'I' for Inactive)
REMARK       I    between atoms: C_1  and  N_4 
REMARK    1  A    between atoms: C_1  and  C_3 
REMARK    2  A    between atoms: C_3  and  C_16 
REMARK    3  A    between atoms: C_3  and  N_8 
REMARK    4  A    between atoms: N_4  and  C_12 
REMARK    5  A    between atoms: C_6  and  C_16 
REMARK    6  A    between atoms: C_10  and  O_11 
REMARK    7  A    between atoms: C_10  and  C_12 
REMARK    8  A    between atoms: C_12  and  C_13 
ROOT
HETATM    1  C           1     -21.050  -9.427  -2.140  0.00  0.00     0.249 C 
HETATM    2  N           1     -21.531  -8.757  -3.233  0.00  0.00    -0.343 N 
HETATM    3  O           1     -20.024  -9.067  -1.615  0.00  0.00    -0.271 OA
HETATM    4  H           1     -22.390  -9.058  -3.674  0.00  0.00     0.163 HD
ENDROOT
BRANCH   1   5
HETATM    5  C           1     -21.803 -10.614  -1.592  0.00  0.00     0.278 C 
BRANCH   5   6
HETATM    6  C           1     -23.034 -10.131  -0.839  0.00  0.00     0.021 C 
HETATM    7  C           1     -23.915 -11.322  -0.486  0.00  0.00     0.012 C 
BRANCH   6   8
HETATM    8  C           1     -22.603  -9.423   0.439  0.00  0.00     0.002 C 
HETATM    9  C           1     -23.163  -8.007   0.450  0.00  0.00     0.005 C 
ENDBRANCH   6   8
ENDBRANCH   5   6
BRANCH   5  10
HETATM   10  N           1     -20.914 -11.380  -0.656  0.00  0.00    -0.066 N 
HETATM   11  H           1     -21.093 -12.403  -0.765  0.00  0.00     0.275 HD
HETATM   12  H           1     -19.914 -11.176  -0.881  0.00  0.00     0.275 HD
HETATM   13  H           1     -21.116 -11.094   0.328  0.00  0.00     0.275 HD
ENDBRANCH   5  10
ENDBRANCH   1   5
BRANCH   2  14
HETATM   14  C           1     -20.807  -7.616  -3.759  0.00  0.00     0.214 C 
BRANCH  14  15
HETATM   15  C           1     -20.320  -7.930  -5.168  0.00  0.00     0.147 C 
HETATM   16  C           1     -19.137  -8.886  -5.094  0.00  0.00     0.042 C 
BRANCH  15  17
HETATM   17  O           1     -21.358  -8.526  -5.899  0.00  0.00    -0.393 OA
HETATM   18  H           1     -22.152  -8.078  -5.662  0.00  0.00     0.210 HD
ENDBRANCH  15  17
ENDBRANCH  14  15
BRANCH  14  19
HETATM   19  C           1     -21.722  -6.416  -3.800  0.00  0.00     0.199 C 
HETATM   20  O           1     -22.252  -5.999  -2.747  0.00  0.00    -0.646 OA
HETATM   21  O           1     -21.949  -5.840  -4.886  0.00  0.00    -0.646 OA
ENDBRANCH  14  19
ENDBRANCH   2  14
TORSDOF 8
ENDMDL
