MODEL 1
REMARK VINA RESULT:      -5.9      0.000      0.000
REMARK  9 active torsions:
REMARK  status: ('A' for Active; 'I' for Inactive)
REMARK    1  A    between atoms: C_3  and  C_21 
REMARK    2  A    between atoms: C_6  and  C_7 
REMARK    3  A    between atoms: C_6  and  C_21 
REMARK    4  A    between atoms: C_7  and  C_8 
REMARK    5  A    between atoms: C_8  and  C_9 
REMARK    6  A    between atoms: C_9  and  N_15 
REMARK    7  A    between atoms: N_17  and  C_21 
REMARK       I    between atoms: N_17  and  C_18 
REMARK    8  A    between atoms: C_18  and  C_19 
REMARK    9  A    between atoms: C_19  and  N_20 
ROOT
HETATM    1  C           1     -26.365  -5.992 -16.998  0.00  0.00     0.185 C 
ENDROOT
BRANCH   1   2
HETATM    2  C           1     -26.348  -7.026 -15.899  0.00  0.00     0.196 C 
HETATM    3  O           1     -27.423  -7.428 -15.403  0.00  0.00    -0.646 OA
HETATM    4  O           1     -25.260  -7.481 -15.484  0.00  0.00    -0.646 OA
ENDBRANCH   1   2
BRANCH   1   5
HETATM    5  C           1     -27.633  -5.155 -16.887  0.00  0.00     0.036 C 
BRANCH   5   6
HETATM    6  C           1     -28.512  -5.402 -18.106  0.00  0.00     0.004 C 
BRANCH   6   7
HETATM    7  C           1     -29.855  -5.963 -17.658  0.00  0.00     0.027 C 
BRANCH   7   8
HETATM    8  C           1     -30.057  -7.346 -18.265  0.00  0.00     0.229 C 
BRANCH   8   9
HETATM    9  N           1     -29.388  -8.374 -17.401  0.00  0.00    -0.079 N 
HETATM   10  H           1     -29.545  -9.324 -17.806  0.00  0.00     0.274 HD
HETATM   11  H           1     -28.363  -8.178 -17.356  0.00  0.00     0.274 HD
HETATM   12  H           1     -29.792  -8.334 -16.438  0.00  0.00     0.274 HD
ENDBRANCH   8   9
ENDBRANCH   7   8
ENDBRANCH   6   7
ENDBRANCH   5   6
ENDBRANCH   1   5
BRANCH   1  13
HETATM   13  N           1     -26.336  -6.656 -18.287  0.00  0.00    -0.345 N 
HETATM   14  H           1     -27.199  -6.960 -18.719  0.00  0.00     0.163 HD
HETATM   15  C           1     -25.141  -6.872 -18.918  0.00  0.00     0.243 C 
HETATM   16  O           1     -24.111  -6.510 -18.402  0.00  0.00    -0.272 OA
BRANCH  15  17
HETATM   17  C           1     -25.111  -7.563 -20.259  0.00  0.00     0.332 C 
BRANCH  17  18
HETATM   18  N           1     -26.507  -7.935 -20.663  0.00  0.00    -0.071 N 
HETATM   19  H           1     -27.191  -7.407 -20.075  0.00  0.00     0.274 HD
HETATM   20  H           1     -26.654  -7.697 -21.669  0.00  0.00     0.274 HD
HETATM   21  H           1     -26.649  -8.961 -20.523  0.00  0.00     0.274 HD
ENDBRANCH  17  18
ENDBRANCH  15  17
ENDBRANCH   1  13
TORSDOF 9
ENDMDL
MODEL 2
REMARK VINA RESULT:      -5.2      2.671      3.600
REMARK  9 active torsions:
REMARK  status: ('A' for Active; 'I' for Inactive)
REMARK    1  A    between atoms: C_3  and  C_21 
REMARK    2  A    between atoms: C_6  and  C_7 
REMARK    3  A    between atoms: C_6  and  C_21 
REMARK    4  A    between atoms: C_7  and  C_8 
REMARK    5  A    between atoms: C_8  and  C_9 
REMARK    6  A    between atoms: C_9  and  N_15 
REMARK    7  A    between atoms: N_17  and  C_21 
REMARK       I    between atoms: N_17  and  C_18 
REMARK    8  A    between atoms: C_18  and  C_19 
REMARK    9  A    between atoms: C_19  and  N_20 
ROOT
HETATM    1  C           1     -28.711  -6.723 -16.640  0.00  0.00     0.185 C 
ENDROOT
BRANCH   1   2
HETATM    2  C           1     -29.530  -7.349 -17.743  0.00  0.00     0.196 C 
HETATM    3  O           1     -30.694  -7.741 -17.510  0.00  0.00    -0.646 OA
HETATM    4  O           1     -29.045  -7.476 -18.887  0.00  0.00    -0.646 OA
ENDBRANCH   1   2
BRANCH   1   5
HETATM    5  C           1     -29.329  -5.388 -16.244  0.00  0.00     0.036 C 
BRANCH   5   6
HETATM    6  C           1     -29.123  -4.380 -17.367  0.00  0.00     0.004 C 
BRANCH   6   7
HETATM    7  C           1     -30.449  -3.707 -17.696  0.00  0.00     0.027 C 
BRANCH   7   8
HETATM    8  C           1     -31.567  -4.370 -16.901  0.00  0.00     0.229 C 
BRANCH   8   9
HETATM    9  N           1     -32.868  -3.689 -17.204  0.00  0.00    -0.079 N 
HETATM   10  H           1     -33.365  -3.474 -16.310  0.00  0.00     0.274 HD
HETATM   11  H           1     -32.685  -2.800 -17.722  0.00  0.00     0.274 HD
HETATM   12  H           1     -33.462  -4.317 -17.791  0.00  0.00     0.274 HD
ENDBRANCH   8   9
ENDBRANCH   7   8
ENDBRANCH   6   7
ENDBRANCH   5   6
ENDBRANCH   1   5
BRANCH   1  13
HETATM   13  N           1     -27.356  -6.507 -17.107  0.00  0.00    -0.345 N 
HETATM   14  H           1     -27.193  -6.053 -17.996  0.00  0.00     0.163 HD
HETATM   15  C           1     -26.296  -6.920 -16.345  0.00  0.00     0.243 C 
HETATM   16  O           1     -26.489  -7.463 -15.284  0.00  0.00    -0.272 OA
BRANCH  15  17
HETATM   17  C           1     -24.885  -6.695 -16.832  0.00  0.00     0.332 C 
BRANCH  17  18
HETATM   18  N           1     -24.045  -7.894 -16.502  0.00  0.00    -0.071 N 
HETATM   19  H           1     -23.915  -8.473 -17.362  0.00  0.00     0.274 HD
HETATM   20  H           1     -23.114  -7.580 -16.148  0.00  0.00     0.274 HD
HETATM   21  H           1     -24.523  -8.464 -15.768  0.00  0.00     0.274 HD
ENDBRANCH  17  18
ENDBRANCH  15  17
ENDBRANCH   1  13
TORSDOF 9
ENDMDL
MODEL 3
REMARK VINA RESULT:      -4.7      9.993     11.776
REMARK  9 active torsions:
REMARK  status: ('A' for Active; 'I' for Inactive)
REMARK    1  A    between atoms: C_3  and  C_21 
REMARK    2  A    between atoms: C_6  and  C_7 
REMARK    3  A    between atoms: C_6  and  C_21 
REMARK    4  A    between atoms: C_7  and  C_8 
REMARK    5  A    between atoms: C_8  and  C_9 
REMARK    6  A    between atoms: C_9  and  N_15 
REMARK    7  A    between atoms: N_17  and  C_21 
REMARK       I    between atoms: N_17  and  C_18 
REMARK    8  A    between atoms: C_18  and  C_19 
REMARK    9  A    between atoms: C_19  and  N_20 
ROOT
HETATM    1  C           1     -21.516  -4.727  -8.132  0.00  0.00     0.185 C 
ENDROOT
BRANCH   1   2
HETATM    2  C           1     -20.177  -4.489  -8.786  0.00  0.00     0.196 C 
HETATM    3  O           1     -19.237  -3.998  -8.124  0.00  0.00    -0.646 OA
HETATM    4  O           1     -20.006  -4.784  -9.988  0.00  0.00    -0.646 OA
ENDBRANCH   1   2
BRANCH   1   5
HETATM    5  C           1     -22.467  -3.594  -8.496  0.00  0.00     0.036 C 
BRANCH   5   6
HETATM    6  C           1     -23.775  -4.176  -9.015  0.00  0.00     0.004 C 
BRANCH   6   7
HETATM    7  C           1     -23.961  -3.786 -10.475  0.00  0.00     0.027 C 
BRANCH   7   8
HETATM    8  C           1     -23.510  -4.933 -11.370  0.00  0.00     0.229 C 
BRANCH   8   9
HETATM    9  N           1     -22.193  -4.587 -12.000  0.00  0.00    -0.079 N 
HETATM   10  H           1     -22.334  -3.834 -12.710  0.00  0.00     0.274 HD
HETATM   11  H           1     -21.531  -4.253 -11.264  0.00  0.00     0.274 HD
HETATM   12  H           1     -21.796  -5.436 -12.465  0.00  0.00     0.274 HD
ENDBRANCH   8   9
ENDBRANCH   7   8
ENDBRANCH   6   7
ENDBRANCH   5   6
ENDBRANCH   1   5
BRANCH   1  13
HETATM   13  N           1     -21.350  -4.773  -6.692  0.00  0.00    -0.345 N 
HETATM   14  H           1     -21.376  -3.918  -6.152  0.00  0.00     0.163 HD
HETATM   15  C           1     -21.157  -5.974  -6.064  0.00  0.00     0.243 C 
HETATM   16  O           1     -21.125  -6.995  -6.709  0.00  0.00    -0.272 OA
BRANCH  15  17
HETATM   17  C           1     -20.984  -6.022  -4.566  0.00  0.00     0.332 C 
BRANCH  17  18
HETATM   18  N           1     -22.316  -6.251  -3.915  0.00  0.00    -0.071 N 
HETATM   19  H           1     -22.172  -6.678  -2.972  0.00  0.00     0.274 HD
HETATM   20  H           1     -22.815  -5.339  -3.813  0.00  0.00     0.274 HD
HETATM   21  H           1     -22.887  -6.896  -4.506  0.00  0.00     0.274 HD
ENDBRANCH  17  18
ENDBRANCH  15  17
ENDBRANCH   1  13
TORSDOF 9
ENDMDL
MODEL 4
REMARK VINA RESULT:      -4.7     12.012     13.699
REMARK  9 active torsions:
REMARK  status: ('A' for Active; 'I' for Inactive)
REMARK    1  A    between atoms: C_3  and  C_21 
REMARK    2  A    between atoms: C_6  and  C_7 
REMARK    3  A    between atoms: C_6  and  C_21 
REMARK    4  A    between atoms: C_7  and  C_8 
REMARK    5  A    between atoms: C_8  and  C_9 
REMARK    6  A    between atoms: C_9  and  N_15 
REMARK    7  A    between atoms: N_17  and  C_21 
REMARK       I    between atoms: N_17  and  C_18 
REMARK    8  A    between atoms: C_18  and  C_19 
REMARK    9  A    between atoms: C_19  and  N_20 
ROOT
HETATM    1  C           1     -20.694  -6.779  -5.402  0.00  0.00     0.185 C 
ENDROOT
BRANCH   1   2
HETATM    2  C           1     -21.861  -6.290  -4.579  0.00  0.00     0.196 C 
HETATM    3  O           1     -22.997  -6.210  -5.095  0.00  0.00    -0.646 OA
HETATM    4  O           1     -21.693  -5.966  -3.384  0.00  0.00    -0.646 OA
ENDBRANCH   1   2
BRANCH   1   5
HETATM    5  C           1     -20.667  -6.041  -6.734  0.00  0.00     0.036 C 
BRANCH   5   6
HETATM    6  C           1     -20.224  -4.601  -6.508  0.00  0.00     0.004 C 
BRANCH   6   7
HETATM    7  C           1     -21.225  -3.654  -7.155  0.00  0.00     0.027 C 
BRANCH   7   8
HETATM    8  C           1     -22.212  -4.453  -7.996  0.00  0.00     0.229 C 
BRANCH   8   9
HETATM    9  N           1     -23.603  -4.234  -7.479  0.00  0.00    -0.079 N 
HETATM   10  H           1     -23.566  -4.045  -6.452  0.00  0.00     0.274 HD
HETATM   11  H           1     -24.033  -3.418  -7.969  0.00  0.00     0.274 HD
HETATM   12  H           1     -24.178  -5.089  -7.655  0.00  0.00     0.274 HD
ENDBRANCH   8   9
ENDBRANCH   7   8
ENDBRANCH   6   7
ENDBRANCH   5   6
ENDBRANCH   1   5
BRANCH   1  13
HETATM   13  N           1     -20.833  -8.202  -5.641  0.00  0.00    -0.345 N 
HETATM   14  H           1     -21.505  -8.538  -6.319  0.00  0.00     0.163 HD
HETATM   15  C           1     -20.055  -9.091  -4.950  0.00  0.00     0.243 C 
HETATM   16  O           1     -19.253  -8.691  -4.140  0.00  0.00    -0.272 OA
BRANCH  15  17
HETATM   17  C           1     -20.200 -10.572  -5.199  0.00  0.00     0.332 C 
BRANCH  17  18
HETATM   18  N           1     -21.091 -10.796  -6.385  0.00  0.00    -0.071 N 
HETATM   19  H           1     -22.036 -11.100  -6.058  0.00  0.00     0.274 HD
HETATM   20  H           1     -21.178  -9.908  -6.927  0.00  0.00     0.274 HD
HETATM   21  H           1     -20.679 -11.537  -6.996  0.00  0.00     0.274 HD
ENDBRANCH  17  18
ENDBRANCH  15  17
ENDBRANCH   1  13
TORSDOF 9
ENDMDL
MODEL 5
REMARK VINA RESULT:      -4.5     12.964     14.664
REMARK  9 active torsions:
REMARK  status: ('A' for Active; 'I' for Inactive)
REMARK    1  A    between atoms: C_3  and  C_21 
REMARK    2  A    between atoms: C_6  and  C_7 
REMARK    3  A    between atoms: C_6  and  C_21 
REMARK    4  A    between atoms: C_7  and  C_8 
REMARK    5  A    between atoms: C_8  and  C_9 
REMARK    6  A    between atoms: C_9  and  N_15 
REMARK    7  A    between atoms: N_17  and  C_21 
REMARK       I    between atoms: N_17  and  C_18 
REMARK    8  A    between atoms: C_18  and  C_19 
REMARK    9  A    between atoms: C_19  and  N_20 
ROOT
HETATM    1  C           1     -21.306  -6.360  -4.748  0.00  0.00     0.185 C 
ENDROOT
BRANCH   1   2
HETATM    2  C           1     -20.726  -7.704  -5.117  0.00  0.00     0.196 C 
HETATM    3  O           1     -21.187  -8.336  -6.093  0.00  0.00    -0.646 OA
HETATM    4  O           1     -19.787  -8.185  -4.449  0.00  0.00    -0.646 OA
ENDBRANCH   1   2
BRANCH   1   5
HETATM    5  C           1     -22.314  -6.535  -3.619  0.00  0.00     0.036 C 
BRANCH   5   6
HETATM    6  C           1     -21.702  -6.046  -2.313  0.00  0.00     0.004 C 
BRANCH   6   7
HETATM    7  C           1     -22.260  -6.863  -1.154  0.00  0.00     0.027 C 
BRANCH   7   8
HETATM    8  C           1     -21.817  -8.314  -1.295  0.00  0.00     0.229 C 
BRANCH   8   9
HETATM    9  N           1     -20.326  -8.369  -1.448  0.00  0.00    -0.079 N 
HETATM   10  H           1     -20.070  -8.163  -2.440  0.00  0.00     0.274 HD
HETATM   11  H           1     -19.884  -7.661  -0.820  0.00  0.00     0.274 HD
HETATM   12  H           1     -19.985  -9.323  -1.190  0.00  0.00     0.274 HD
ENDBRANCH   8   9
ENDBRANCH   7   8
ENDBRANCH   6   7
ENDBRANCH   5   6
ENDBRANCH   1   5
BRANCH   1  13
HETATM   13  N           1     -21.970  -5.786  -5.903  0.00  0.00    -0.345 N 
HETATM   14  H           1     -22.868  -6.144  -6.200  0.00  0.00     0.163 HD
HETATM   15  C           1     -21.380  -4.759  -6.590  0.00  0.00     0.243 C 
HETATM   16  O           1     -20.307  -4.332  -6.235  0.00  0.00    -0.272 OA
BRANCH  15  17
HETATM   17  C           1     -22.070  -4.162  -7.791  0.00  0.00     0.332 C 
BRANCH  17  18
HETATM   18  N           1     -23.556  -4.196  -7.584  0.00  0.00    -0.071 N 
HETATM   19  H           1     -23.891  -3.242  -7.319  0.00  0.00     0.274 HD
HETATM   20  H           1     -24.024  -4.498  -8.467  0.00  0.00     0.274 HD
HETATM   21  H           1     -23.786  -4.870  -6.820  0.00  0.00     0.274 HD
ENDBRANCH  17  18
ENDBRANCH  15  17
ENDBRANCH   1  13
TORSDOF 9
ENDMDL
MODEL 6
REMARK VINA RESULT:      -4.4     10.728     12.451
REMARK  9 active torsions:
REMARK  status: ('A' for Active; 'I' for Inactive)
REMARK    1  A    between atoms: C_3  and  C_21 
REMARK    2  A    between atoms: C_6  and  C_7 
REMARK    3  A    between atoms: C_6  and  C_21 
REMARK    4  A    between atoms: C_7  and  C_8 
REMARK    5  A    between atoms: C_8  and  C_9 
REMARK    6  A    between atoms: C_9  and  N_15 
REMARK    7  A    between atoms: N_17  and  C_21 
REMARK       I    between atoms: N_17  and  C_18 
REMARK    8  A    between atoms: C_18  and  C_19 
REMARK    9  A    between atoms: C_19  and  N_20 
ROOT
HETATM    1  C           1     -21.118  -4.220  -7.513  0.00  0.00     0.185 C 
ENDROOT
BRANCH   1   2
HETATM    2  C           1     -19.828  -4.490  -8.248  0.00  0.00     0.196 C 
HETATM    3  O           1     -19.855  -4.879  -9.436  0.00  0.00    -0.646 OA
HETATM    4  O           1     -18.732  -4.326  -7.670  0.00  0.00    -0.646 OA
ENDBRANCH   1   2
BRANCH   1   5
HETATM    5  C           1     -21.018  -4.764  -6.095  0.00  0.00     0.036 C 
BRANCH   5   6
HETATM    6  C           1     -21.329  -6.255  -6.100  0.00  0.00     0.004 C 
BRANCH   6   7
HETATM    7  C           1     -22.229  -6.591  -4.918  0.00  0.00     0.027 C 
BRANCH   7   8
HETATM    8  C           1     -21.428  -6.497  -3.626  0.00  0.00     0.229 C 
BRANCH   8   9
HETATM    9  N           1     -22.318  -6.010  -2.520  0.00  0.00    -0.079 N 
HETATM   10  H           1     -22.279  -4.967  -2.476  0.00  0.00     0.274 HD
HETATM   11  H           1     -23.301  -6.314  -2.704  0.00  0.00     0.274 HD
HETATM   12  H           1     -21.994  -6.411  -1.611  0.00  0.00     0.274 HD
ENDBRANCH   8   9
ENDBRANCH   7   8
ENDBRANCH   6   7
ENDBRANCH   5   6
ENDBRANCH   1   5
BRANCH   1  13
HETATM   13  N           1     -22.214  -4.872  -8.204  0.00  0.00    -0.345 N 
HETATM   14  H           1     -22.386  -5.858  -8.062  0.00  0.00     0.163 HD
HETATM   15  C           1     -23.014  -4.151  -9.050  0.00  0.00     0.243 C 
HETATM   16  O           1     -22.807  -2.974  -9.221  0.00  0.00    -0.272 OA
BRANCH  15  17
HETATM   17  C           1     -24.154  -4.830  -9.769  0.00  0.00     0.332 C 
BRANCH  17  18
HETATM   18  N           1     -25.371  -3.954  -9.718  0.00  0.00    -0.071 N 
HETATM   19  H           1     -26.085  -4.312 -10.392  0.00  0.00     0.274 HD
HETATM   20  H           1     -25.766  -3.963  -8.752  0.00  0.00     0.274 HD
HETATM   21  H           1     -25.108  -2.976  -9.977  0.00  0.00     0.274 HD
ENDBRANCH  17  18
ENDBRANCH  15  17
ENDBRANCH   1  13
TORSDOF 9
ENDMDL
MODEL 7
REMARK VINA RESULT:      -4.4      3.144      4.883
REMARK  9 active torsions:
REMARK  status: ('A' for Active; 'I' for Inactive)
REMARK    1  A    between atoms: C_3  and  C_21 
REMARK    2  A    between atoms: C_6  and  C_7 
REMARK    3  A    between atoms: C_6  and  C_21 
REMARK    4  A    between atoms: C_7  and  C_8 
REMARK    5  A    between atoms: C_8  and  C_9 
REMARK    6  A    between atoms: C_9  and  N_15 
REMARK    7  A    between atoms: N_17  and  C_21 
REMARK       I    between atoms: N_17  and  C_18 
REMARK    8  A    between atoms: C_18  and  C_19 
REMARK    9  A    between atoms: C_19  and  N_20 
ROOT
HETATM    1  C           1     -30.238  -4.646 -17.220  0.00  0.00     0.185 C 
ENDROOT
BRANCH   1   2
HETATM    2  C           1     -31.565  -3.938 -17.095  0.00  0.00     0.196 C 
HETATM    3  O           1     -32.380  -4.291 -16.215  0.00  0.00    -0.646 OA
HETATM    4  O           1     -31.849  -2.999 -17.869  0.00  0.00    -0.646 OA
ENDBRANCH   1   2
BRANCH   1   5
HETATM    5  C           1     -29.159  -3.639 -17.594  0.00  0.00     0.036 C 
BRANCH   5   6
HETATM    6  C           1     -27.975  -3.788 -16.648  0.00  0.00     0.004 C 
BRANCH   6   7
HETATM    7  C           1     -27.957  -5.199 -16.075  0.00  0.00     0.027 C 
BRANCH   7   8
HETATM    8  C           1     -26.937  -6.041 -16.831  0.00  0.00     0.229 C 
BRANCH   8   9
HETATM    9  N           1     -26.439  -7.141 -15.941  0.00  0.00    -0.079 N 
HETATM   10  H           1     -27.251  -7.678 -15.564  0.00  0.00     0.274 HD
HETATM   11  H           1     -25.822  -7.781 -16.490  0.00  0.00     0.274 HD
HETATM   12  H           1     -25.895  -6.729 -15.149  0.00  0.00     0.274 HD
ENDBRANCH   8   9
ENDBRANCH   7   8
ENDBRANCH   6   7
ENDBRANCH   5   6
ENDBRANCH   1   5
BRANCH   1  13
HETATM   13  N           1     -30.328  -5.662 -18.251  0.00  0.00    -0.345 N 
HETATM   14  H           1     -30.291  -5.398 -19.227  0.00  0.00     0.163 HD
HETATM   15  C           1     -30.464  -6.979 -17.903  0.00  0.00     0.243 C 
HETATM   16  O           1     -30.510  -7.295 -16.738  0.00  0.00    -0.272 OA
BRANCH  15  17
HETATM   17  C           1     -30.558  -8.036 -18.976  0.00  0.00     0.332 C 
BRANCH  17  18
HETATM   18  N           1     -29.194  -8.601 -19.243  0.00  0.00    -0.071 N 
HETATM   19  H           1     -28.581  -8.434 -18.413  0.00  0.00     0.274 HD
HETATM   20  H           1     -29.271  -9.628 -19.420  0.00  0.00     0.274 HD
HETATM   21  H           1     -28.781  -8.134 -20.081  0.00  0.00     0.274 HD
ENDBRANCH  17  18
ENDBRANCH  15  17
ENDBRANCH   1  13
TORSDOF 9
ENDMDL
MODEL 8
REMARK VINA RESULT:      -4.3      9.547     11.412
REMARK  9 active torsions:
REMARK  status: ('A' for Active; 'I' for Inactive)
REMARK    1  A    between atoms: C_3  and  C_21 
REMARK    2  A    between atoms: C_6  and  C_7 
REMARK    3  A    between atoms: C_6  and  C_21 
REMARK    4  A    between atoms: C_7  and  C_8 
REMARK    5  A    between atoms: C_8  and  C_9 
REMARK    6  A    between atoms: C_9  and  N_15 
REMARK    7  A    between atoms: N_17  and  C_21 
REMARK       I    between atoms: N_17  and  C_18 
REMARK    8  A    between atoms: C_18  and  C_19 
REMARK    9  A    between atoms: C_19  and  N_20 
ROOT
HETATM    1  C           1     -20.985  -3.789  -9.452  0.00  0.00     0.185 C 
ENDROOT
BRANCH   1   2
HETATM    2  C           1     -20.278  -4.379 -10.648  0.00  0.00     0.196 C 
HETATM    3  O           1     -19.478  -5.328 -10.495  0.00  0.00    -0.646 OA
HETATM    4  O           1     -20.491  -3.920 -11.790  0.00  0.00    -0.646 OA
ENDBRANCH   1   2
BRANCH   1   5
HETATM    5  C           1     -20.143  -4.013  -8.203  0.00  0.00     0.036 C 
BRANCH   5   6
HETATM    6  C           1     -21.011  -3.826  -6.965  0.00  0.00     0.004 C 
BRANCH   6   7
HETATM    7  C           1     -20.712  -4.933  -5.963  0.00  0.00     0.027 C 
BRANCH   7   8
HETATM    8  C           1     -19.928  -6.044  -6.650  0.00  0.00     0.229 C 
BRANCH   8   9
HETATM    9  N           1     -20.282  -7.363  -6.031  0.00  0.00    -0.079 N 
HETATM   10  H           1     -20.692  -7.990  -6.759  0.00  0.00     0.274 HD
HETATM   11  H           1     -19.422  -7.805  -5.635  0.00  0.00     0.274 HD
HETATM   12  H           1     -20.979  -7.213  -5.266  0.00  0.00     0.274 HD
ENDBRANCH   8   9
ENDBRANCH   7   8
ENDBRANCH   6   7
ENDBRANCH   5   6
ENDBRANCH   1   5
BRANCH   1  13
HETATM   13  N           1     -22.274  -4.433  -9.287  0.00  0.00    -0.345 N 
HETATM   14  H           1     -22.353  -5.271  -8.726  0.00  0.00     0.163 HD
HETATM   15  C           1     -23.384  -3.906  -9.892  0.00  0.00     0.243 C 
HETATM   16  O           1     -23.289  -2.907 -10.563  0.00  0.00    -0.272 OA
BRANCH  15  17
HETATM   17  C           1     -24.725  -4.576  -9.720  0.00  0.00     0.332 C 
BRANCH  17  18
HETATM   18  N           1     -25.807  -3.537  -9.711  0.00  0.00    -0.071 N 
HETATM   19  H           1     -26.404  -3.650 -10.561  0.00  0.00     0.274 HD
HETATM   20  H           1     -26.393  -3.651  -8.854  0.00  0.00     0.274 HD
HETATM   21  H           1     -25.376  -2.585  -9.714  0.00  0.00     0.274 HD
ENDBRANCH  17  18
ENDBRANCH  15  17
ENDBRANCH   1  13
TORSDOF 9
ENDMDL
MODEL 9
REMARK VINA RESULT:      -4.2     13.250     14.567
REMARK  9 active torsions:
REMARK  status: ('A' for Active; 'I' for Inactive)
REMARK    1  A    between atoms: C_3  and  C_21 
REMARK    2  A    between atoms: C_6  and  C_7 
REMARK    3  A    between atoms: C_6  and  C_21 
REMARK    4  A    between atoms: C_7  and  C_8 
REMARK    5  A    between atoms: C_8  and  C_9 
REMARK    6  A    between atoms: C_9  and  N_15 
REMARK    7  A    between atoms: N_17  and  C_21 
REMARK       I    between atoms: N_17  and  C_18 
REMARK    8  A    between atoms: C_18  and  C_19 
REMARK    9  A    between atoms: C_19  and  N_20 
ROOT
HETATM    1  C           1     -21.442  -7.105  -4.080  0.00  0.00     0.185 C 
ENDROOT
BRANCH   1   2
HETATM    2  C           1     -21.607  -6.811  -2.609  0.00  0.00     0.196 C 
HETATM    3  O           1     -22.382  -5.904  -2.237  0.00  0.00    -0.646 OA
HETATM    4  O           1     -20.970  -7.475  -1.763  0.00  0.00    -0.646 OA
ENDBRANCH   1   2
BRANCH   1   5
HETATM    5  C           1     -22.530  -6.385  -4.867  0.00  0.00     0.036 C 
BRANCH   5   6
HETATM    6  C           1     -21.898  -5.604  -6.011  0.00  0.00     0.004 C 
BRANCH   6   7
HETATM    7  C           1     -20.589  -4.984  -5.541  0.00  0.00     0.027 C 
BRANCH   7   8
HETATM    8  C           1     -19.589  -4.973  -6.690  0.00  0.00     0.229 C 
BRANCH   8   9
HETATM    9  N           1     -19.817  -6.172  -7.562  0.00  0.00    -0.079 N 
HETATM   10  H           1     -20.365  -6.888  -7.034  0.00  0.00     0.274 HD
HETATM   11  H           1     -20.347  -5.887  -8.416  0.00  0.00     0.274 HD
HETATM   12  H           1     -18.896  -6.577  -7.845  0.00  0.00     0.274 HD
ENDBRANCH   8   9
ENDBRANCH   7   8
ENDBRANCH   6   7
ENDBRANCH   5   6
ENDBRANCH   1   5
BRANCH   1  13
HETATM   13  N           1     -21.549  -8.533  -4.303  0.00  0.00    -0.345 N 
HETATM   14  H           1     -22.296  -9.059  -3.867  0.00  0.00     0.163 HD
HETATM   15  C           1     -20.641  -9.171  -5.104  0.00  0.00     0.243 C 
HETATM   16  O           1     -19.749  -8.544  -5.625  0.00  0.00    -0.272 OA
BRANCH  15  17
HETATM   17  C           1     -20.753 -10.658  -5.336  0.00  0.00     0.332 C 
BRANCH  17  18
HETATM   18  N           1     -19.807 -11.068  -6.426  0.00  0.00    -0.071 N 
HETATM   19  H           1     -19.738 -12.110  -6.452  0.00  0.00     0.274 HD
HETATM   20  H           1     -20.162 -10.719  -7.345  0.00  0.00     0.274 HD
HETATM   21  H           1     -18.863 -10.660  -6.241  0.00  0.00     0.274 HD
ENDBRANCH  17  18
ENDBRANCH  15  17
ENDBRANCH   1  13
TORSDOF 9
ENDMDL
