MODEL 1
REMARK VINA RESULT:      -7.6      0.000      0.000
REMARK  8 active torsions:
REMARK  status: ('A' for Active; 'I' for Inactive)
REMARK    1  A    between atoms: C_1  and  C_2 
REMARK    2  A    between atoms: C_1  and  C_15 
REMARK    3  A    between atoms: C_2  and  C_3 
REMARK    4  A    between atoms: C_2  and  N_20 
REMARK       I    between atoms: C_3  and  N_5 
REMARK    5  A    between atoms: C_4  and  C_22 
REMARK    6  A    between atoms: N_5  and  C_22 
REMARK    7  A    between atoms: O_13  and  C_16 
REMARK    8  A    between atoms: C_16  and  C_22 
ROOT
HETATM    1  C           1     -35.935  -0.560 -11.153  0.00  0.00     0.278 C 
ENDROOT
BRANCH   1   2
HETATM    2  C           1     -36.347  -1.952 -10.693  0.00  0.00     0.081 C 
BRANCH   2   3
HETATM    3  C           1     -35.227  -2.913 -10.944  0.00  0.00    -0.056 A 
HETATM    4  C           1     -35.465  -4.287 -10.909  0.00  0.00     0.007 A 
HETATM    5  C           1     -34.421  -5.182 -11.143  0.00  0.00     0.001 A 
HETATM    6  C           1     -33.139  -4.703 -11.410  0.00  0.00     0.000 A 
HETATM    7  C           1     -32.900  -3.330 -11.444  0.00  0.00     0.001 A 
HETATM    8  C           1     -33.944  -2.435 -11.211  0.00  0.00     0.007 A 
ENDBRANCH   2   3
ENDBRANCH   1   2
BRANCH   1   9
HETATM    9  C           1     -36.511  -0.293 -12.523  0.00  0.00     0.249 C 
HETATM   10  N           1     -35.688   0.084 -13.550  0.00  0.00    -0.343 N 
HETATM   11  H           1     -34.693   0.182 -13.391  0.00  0.00     0.163 HD
HETATM   12  O           1     -37.698  -0.411 -12.713  0.00  0.00    -0.271 OA
BRANCH  10  13
HETATM   13  C           1     -36.241   0.341 -14.865  0.00  0.00     0.209 C 
BRANCH  13  14
HETATM   14  C           1     -35.869  -0.787 -15.796  0.00  0.00     0.198 C 
HETATM   15  O           1     -35.130  -1.711 -15.394  0.00  0.00    -0.646 OA
HETATM   16  O           1     -36.300  -0.797 -16.969  0.00  0.00    -0.646 OA
ENDBRANCH  13  14
BRANCH  13  17
HETATM   17  C           1     -35.680   1.650 -15.405  0.00  0.00     0.200 C 
BRANCH  17  18
HETATM   18  O           1     -36.578   2.195 -16.335  0.00  0.00    -0.398 OA
HETATM   19  H           1     -36.681   1.558 -17.021  0.00  0.00     0.209 HD
ENDBRANCH  17  18
ENDBRANCH  13  17
ENDBRANCH  10  13
ENDBRANCH   1   9
BRANCH   1  20
HETATM   20  N           1     -36.456   0.460 -10.185  0.00  0.00    -0.066 N 
HETATM   21  H           1     -37.472   0.624 -10.366  0.00  0.00     0.275 HD
HETATM   22  H           1     -35.932   1.356 -10.307  0.00  0.00     0.275 HD
HETATM   23  H           1     -36.326   0.111  -9.208  0.00  0.00     0.275 HD
ENDBRANCH   1  20
TORSDOF 8
ENDMDL
MODEL 2
REMARK VINA RESULT:      -6.9     13.515     15.419
REMARK  8 active torsions:
REMARK  status: ('A' for Active; 'I' for Inactive)
REMARK    1  A    between atoms: C_1  and  C_2 
REMARK    2  A    between atoms: C_1  and  C_15 
REMARK    3  A    between atoms: C_2  and  C_3 
REMARK    4  A    between atoms: C_2  and  N_20 
REMARK       I    between atoms: C_3  and  N_5 
REMARK    5  A    between atoms: C_4  and  C_22 
REMARK    6  A    between atoms: N_5  and  C_22 
REMARK    7  A    between atoms: O_13  and  C_16 
REMARK    8  A    between atoms: C_16  and  C_22 
ROOT
HETATM    1  C           1     -21.202  -5.746  -7.005  0.00  0.00     0.278 C 
ENDROOT
BRANCH   1   2
HETATM    2  C           1     -21.055  -5.222  -5.583  0.00  0.00     0.081 C 
BRANCH   2   3
HETATM    3  C           1     -21.237  -6.350  -4.614  0.00  0.00    -0.056 A 
HETATM    4  C           1     -21.381  -7.656  -5.084  0.00  0.00     0.007 A 
HETATM    5  C           1     -21.551  -8.706  -4.181  0.00  0.00     0.001 A 
HETATM    6  C           1     -21.577  -8.450  -2.810  0.00  0.00     0.000 A 
HETATM    7  C           1     -21.434  -7.145  -2.342  0.00  0.00     0.001 A 
HETATM    8  C           1     -21.264  -6.095  -3.243  0.00  0.00     0.007 A 
ENDBRANCH   2   3
ENDBRANCH   1   2
BRANCH   1   9
HETATM    9  C           1     -21.673  -4.630  -7.906  0.00  0.00     0.249 C 
HETATM   10  N           1     -22.075  -4.906  -9.186  0.00  0.00    -0.343 N 
HETATM   11  H           1     -22.055  -5.860  -9.527  0.00  0.00     0.163 HD
HETATM   12  O           1     -21.697  -3.494  -7.498  0.00  0.00    -0.271 OA
BRANCH  10  13
HETATM   13  C           1     -22.527  -3.835 -10.051  0.00  0.00     0.209 C 
BRANCH  13  14
HETATM   14  C           1     -24.023  -3.927 -10.224  0.00  0.00     0.198 C 
HETATM   15  O           1     -24.625  -4.978  -9.914  0.00  0.00    -0.646 OA
HETATM   16  O           1     -24.660  -2.953 -10.678  0.00  0.00    -0.646 OA
ENDBRANCH  13  14
BRANCH  13  17
HETATM   17  C           1     -21.850  -3.959 -11.409  0.00  0.00     0.200 C 
BRANCH  17  18
HETATM   18  O           1     -22.746  -4.523 -12.329  0.00  0.00    -0.398 OA
HETATM   19  H           1     -22.591  -4.100 -13.156  0.00  0.00     0.209 HD
ENDBRANCH  17  18
ENDBRANCH  13  17
ENDBRANCH  10  13
ENDBRANCH   1   9
BRANCH   1  20
HETATM   20  N           1     -19.876  -6.253  -7.490  0.00  0.00    -0.066 N 
HETATM   21  H           1     -19.449  -5.548  -8.133  0.00  0.00     0.275 HD
HETATM   22  H           1     -20.013  -7.153  -8.002  0.00  0.00     0.275 HD
HETATM   23  H           1     -19.243  -6.409  -6.673  0.00  0.00     0.275 HD
ENDBRANCH   1  20
TORSDOF 8
ENDMDL
MODEL 3
REMARK VINA RESULT:      -6.8     14.927     17.173
REMARK  8 active torsions:
REMARK  status: ('A' for Active; 'I' for Inactive)
REMARK    1  A    between atoms: C_1  and  C_2 
REMARK    2  A    between atoms: C_1  and  C_15 
REMARK    3  A    between atoms: C_2  and  C_3 
REMARK    4  A    between atoms: C_2  and  N_20 
REMARK       I    between atoms: C_3  and  N_5 
REMARK    5  A    between atoms: C_4  and  C_22 
REMARK    6  A    between atoms: N_5  and  C_22 
REMARK    7  A    between atoms: O_13  and  C_16 
REMARK    8  A    between atoms: C_16  and  C_22 
ROOT
HETATM    1  C           1     -22.231  -5.143  -6.735  0.00  0.00     0.278 C 
ENDROOT
BRANCH   1   2
HETATM    2  C           1     -21.652  -3.872  -7.341  0.00  0.00     0.081 C 
BRANCH   2   3
HETATM    3  C           1     -21.608  -4.006  -8.832  0.00  0.00    -0.056 A 
HETATM    4  C           1     -20.383  -4.160  -9.482  0.00  0.00     0.007 A 
HETATM    5  C           1     -20.342  -4.285 -10.871  0.00  0.00     0.001 A 
HETATM    6  C           1     -21.525  -4.255 -11.609  0.00  0.00     0.000 A 
HETATM    7  C           1     -22.748  -4.101 -10.960  0.00  0.00     0.001 A 
HETATM    8  C           1     -22.790  -3.976  -9.571  0.00  0.00     0.007 A 
ENDBRANCH   2   3
ENDBRANCH   1   2
BRANCH   1   9
HETATM    9  C           1     -21.464  -5.497  -5.484  0.00  0.00     0.249 C 
HETATM   10  N           1     -22.088  -6.166  -4.464  0.00  0.00    -0.343 N 
HETATM   11  H           1     -23.063  -6.423  -4.550  0.00  0.00     0.163 HD
HETATM   12  O           1     -20.300  -5.191  -5.381  0.00  0.00    -0.271 OA
BRANCH  10  13
HETATM   13  C           1     -21.352  -6.506  -3.263  0.00  0.00     0.209 C 
BRANCH  13  14
HETATM   14  C           1     -21.048  -7.984  -3.262  0.00  0.00     0.198 C 
HETATM   15  O           1     -21.818  -8.781  -3.838  0.00  0.00    -0.646 OA
HETATM   16  O           1     -20.025  -8.411  -2.683  0.00  0.00    -0.646 OA
ENDBRANCH  13  14
BRANCH  13  17
HETATM   17  C           1     -22.188  -6.158  -2.039  0.00  0.00     0.200 C 
BRANCH  17  18
HETATM   18  O           1     -22.261  -7.273  -1.190  0.00  0.00    -0.398 OA
HETATM   19  H           1     -21.649  -7.124  -0.490  0.00  0.00     0.209 HD
ENDBRANCH  17  18
ENDBRANCH  13  17
ENDBRANCH  10  13
ENDBRANCH   1   9
BRANCH   1  20
HETATM   20  N           1     -23.673  -4.919  -6.389  0.00  0.00    -0.066 N 
HETATM   21  H           1     -23.843  -5.213  -5.400  0.00  0.00     0.275 HD
HETATM   22  H           1     -24.277  -5.484  -7.028  0.00  0.00     0.275 HD
HETATM   23  H           1     -23.904  -3.906  -6.497  0.00  0.00     0.275 HD
ENDBRANCH   1  20
TORSDOF 8
ENDMDL
MODEL 4
REMARK VINA RESULT:      -6.5      5.447      7.284
REMARK  8 active torsions:
REMARK  status: ('A' for Active; 'I' for Inactive)
REMARK    1  A    between atoms: C_1  and  C_2 
REMARK    2  A    between atoms: C_1  and  C_15 
REMARK    3  A    between atoms: C_2  and  C_3 
REMARK    4  A    between atoms: C_2  and  N_20 
REMARK       I    between atoms: C_3  and  N_5 
REMARK    5  A    between atoms: C_4  and  C_22 
REMARK    6  A    between atoms: N_5  and  C_22 
REMARK    7  A    between atoms: O_13  and  C_16 
REMARK    8  A    between atoms: C_16  and  C_22 
ROOT
HETATM    1  C           1     -32.903  -4.507 -16.717  0.00  0.00     0.278 C 
ENDROOT
BRANCH   1   2
HETATM    2  C           1     -31.466  -4.496 -16.215  0.00  0.00     0.081 C 
BRANCH   2   3
HETATM    3  C           1     -30.622  -5.362 -17.098  0.00  0.00    -0.056 A 
HETATM    4  C           1     -29.484  -4.835 -17.710  0.00  0.00     0.007 A 
HETATM    5  C           1     -28.698  -5.642 -18.532  0.00  0.00     0.001 A 
HETATM    6  C           1     -29.050  -6.975 -18.744  0.00  0.00     0.000 A 
HETATM    7  C           1     -30.187  -7.501 -18.132  0.00  0.00     0.001 A 
HETATM    8  C           1     -30.973  -6.695 -17.310  0.00  0.00     0.007 A 
ENDBRANCH   2   3
ENDBRANCH   1   2
BRANCH   1   9
HETATM    9  C           1     -33.848  -4.476 -15.540  0.00  0.00     0.249 C 
HETATM   10  N           1     -33.390  -4.101 -14.305  0.00  0.00    -0.343 N 
HETATM   11  H           1     -32.419  -3.844 -14.182  0.00  0.00     0.163 HD
HETATM   12  O           1     -35.007  -4.781 -15.687  0.00  0.00    -0.271 OA
BRANCH  10  13
HETATM   13  C           1     -34.297  -4.071 -13.175  0.00  0.00     0.209 C 
BRANCH  13  14
HETATM   14  C           1     -34.523  -2.641 -12.750  0.00  0.00     0.198 C 
HETATM   15  O           1     -35.090  -1.841 -13.525  0.00  0.00    -0.646 OA
HETATM   16  O           1     -34.143  -2.256 -11.623  0.00  0.00    -0.646 OA
ENDBRANCH  13  14
BRANCH  13  17
HETATM   17  C           1     -33.692  -4.855 -12.018  0.00  0.00     0.200 C 
BRANCH  17  18
HETATM   18  O           1     -32.295  -4.739 -12.054  0.00  0.00    -0.398 OA
HETATM   19  H           1     -32.008  -4.612 -11.166  0.00  0.00     0.209 HD
ENDBRANCH  17  18
ENDBRANCH  13  17
ENDBRANCH  10  13
ENDBRANCH   1   9
BRANCH   1  20
HETATM   20  N           1     -33.140  -3.302 -17.579  0.00  0.00    -0.066 N 
HETATM   21  H           1     -33.375  -2.483 -16.973  0.00  0.00     0.275 HD
HETATM   22  H           1     -33.933  -3.491 -18.232  0.00  0.00     0.275 HD
HETATM   23  H           1     -32.277  -3.093 -18.130  0.00  0.00     0.275 HD
ENDBRANCH   1  20
TORSDOF 8
ENDMDL
MODEL 5
REMARK VINA RESULT:      -6.5      2.195      3.566
REMARK  8 active torsions:
REMARK  status: ('A' for Active; 'I' for Inactive)
REMARK    1  A    between atoms: C_1  and  C_2 
REMARK    2  A    between atoms: C_1  and  C_15 
REMARK    3  A    between atoms: C_2  and  C_3 
REMARK    4  A    between atoms: C_2  and  N_20 
REMARK       I    between atoms: C_3  and  N_5 
REMARK    5  A    between atoms: C_4  and  C_22 
REMARK    6  A    between atoms: N_5  and  C_22 
REMARK    7  A    between atoms: O_13  and  C_16 
REMARK    8  A    between atoms: C_16  and  C_22 
ROOT
HETATM    1  C           1     -34.142  -3.915 -12.749  0.00  0.00     0.278 C 
ENDROOT
BRANCH   1   2
HETATM    2  C           1     -33.141  -4.329 -11.680  0.00  0.00     0.081 C 
BRANCH   2   3
HETATM    3  C           1     -33.639  -5.554 -10.977  0.00  0.00    -0.056 A 
HETATM    4  C           1     -34.864  -5.527 -10.311  0.00  0.00     0.007 A 
HETATM    5  C           1     -35.328  -6.668  -9.657  0.00  0.00     0.001 A 
HETATM    6  C           1     -34.565  -7.836  -9.668  0.00  0.00     0.000 A 
HETATM    7  C           1     -33.341  -7.863 -10.333  0.00  0.00     0.001 A 
HETATM    8  C           1     -32.877  -6.723 -10.988  0.00  0.00     0.007 A 
ENDBRANCH   2   3
ENDBRANCH   1   2
BRANCH   1   9
HETATM    9  C           1     -34.545  -2.477 -12.530  0.00  0.00     0.249 C 
HETATM   10  N           1     -35.000  -1.725 -13.582  0.00  0.00    -0.343 N 
HETATM   11  H           1     -35.066  -2.135 -14.505  0.00  0.00     0.163 HD
HETATM   12  O           1     -34.468  -1.988 -11.429  0.00  0.00    -0.271 OA
BRANCH  10  13
HETATM   13  C           1     -35.387  -0.345 -13.372  0.00  0.00     0.209 C 
BRANCH  13  14
HETATM   14  C           1     -36.889  -0.255 -13.266  0.00  0.00     0.198 C 
HETATM   15  O           1     -37.610  -0.742 -14.162  0.00  0.00    -0.646 OA
HETATM   16  O           1     -37.413   0.309 -12.280  0.00  0.00    -0.646 OA
ENDBRANCH  13  14
BRANCH  13  17
HETATM   17  C           1     -34.909   0.501 -14.545  0.00  0.00     0.200 C 
BRANCH  17  18
HETATM   18  O           1     -35.857   1.498 -14.820  0.00  0.00    -0.398 OA
HETATM   19  H           1     -35.587   2.269 -14.351  0.00  0.00     0.209 HD
ENDBRANCH  17  18
ENDBRANCH  13  17
ENDBRANCH  10  13
ENDBRANCH   1   9
BRANCH   1  20
HETATM   20  N           1     -33.513  -4.056 -14.103  0.00  0.00    -0.066 N 
HETATM   21  H           1     -32.557  -4.466 -14.001  0.00  0.00     0.275 HD
HETATM   22  H           1     -33.443  -3.117 -14.555  0.00  0.00     0.275 HD
HETATM   23  H           1     -34.101  -4.685 -14.696  0.00  0.00     0.275 HD
ENDBRANCH   1  20
TORSDOF 8
ENDMDL
MODEL 6
REMARK VINA RESULT:      -6.2     15.195     17.673
REMARK  8 active torsions:
REMARK  status: ('A' for Active; 'I' for Inactive)
REMARK    1  A    between atoms: C_1  and  C_2 
REMARK    2  A    between atoms: C_1  and  C_15 
REMARK    3  A    between atoms: C_2  and  C_3 
REMARK    4  A    between atoms: C_2  and  N_20 
REMARK       I    between atoms: C_3  and  N_5 
REMARK    5  A    between atoms: C_4  and  C_22 
REMARK    6  A    between atoms: N_5  and  C_22 
REMARK    7  A    between atoms: O_13  and  C_16 
REMARK    8  A    between atoms: C_16  and  C_22 
ROOT
HETATM    1  C           1     -21.037  -5.022  -6.231  0.00  0.00     0.278 C 
ENDROOT
BRANCH   1   2
HETATM    2  C           1     -20.659  -5.742  -7.518  0.00  0.00     0.081 C 
BRANCH   2   3
HETATM    3  C           1     -21.072  -4.912  -8.694  0.00  0.00    -0.056 A 
HETATM    4  C           1     -20.164  -4.656  -9.722  0.00  0.00     0.007 A 
HETATM    5  C           1     -20.549  -3.883 -10.817  0.00  0.00     0.001 A 
HETATM    6  C           1     -21.843  -3.366 -10.885  0.00  0.00     0.000 A 
HETATM    7  C           1     -22.750  -3.621  -9.858  0.00  0.00     0.001 A 
HETATM    8  C           1     -22.365  -4.394  -8.763  0.00  0.00     0.007 A 
ENDBRANCH   2   3
ENDBRANCH   1   2
BRANCH   1   9
HETATM    9  C           1     -21.698  -5.996  -5.286  0.00  0.00     0.249 C 
HETATM   10  N           1     -20.931  -6.806  -4.491  0.00  0.00    -0.343 N 
HETATM   11  H           1     -19.921  -6.751  -4.538  0.00  0.00     0.163 HD
HETATM   12  O           1     -22.902  -6.060  -5.229  0.00  0.00    -0.271 OA
BRANCH  10  13
HETATM   13  C           1     -21.564  -7.741  -3.584  0.00  0.00     0.209 C 
BRANCH  13  14
HETATM   14  C           1     -21.488  -7.204  -2.175  0.00  0.00     0.198 C 
HETATM   15  O           1     -20.667  -7.686  -1.366  0.00  0.00    -0.646 OA
HETATM   16  O           1     -22.247  -6.278  -1.818  0.00  0.00    -0.646 OA
ENDBRANCH  13  14
BRANCH  13  17
HETATM   17  C           1     -20.849  -9.083  -3.655  0.00  0.00     0.200 C 
BRANCH  17  18
HETATM   18  O           1     -19.469  -8.871  -3.797  0.00  0.00    -0.398 OA
HETATM   19  H           1     -19.218  -9.247  -4.624  0.00  0.00     0.209 HD
ENDBRANCH  17  18
ENDBRANCH  13  17
ENDBRANCH  10  13
ENDBRANCH   1   9
BRANCH   1  20
HETATM   20  N           1     -19.801  -4.464  -5.590  0.00  0.00    -0.066 N 
HETATM   21  H           1     -19.094  -5.225  -5.478  0.00  0.00     0.275 HD
HETATM   22  H           1     -20.042  -4.072  -4.652  0.00  0.00     0.275 HD
HETATM   23  H           1     -19.407  -3.707  -6.193  0.00  0.00     0.275 HD
ENDBRANCH   1  20
TORSDOF 8
ENDMDL
MODEL 7
REMARK VINA RESULT:      -6.1     15.919     17.965
REMARK  8 active torsions:
REMARK  status: ('A' for Active; 'I' for Inactive)
REMARK    1  A    between atoms: C_1  and  C_2 
REMARK    2  A    between atoms: C_1  and  C_15 
REMARK    3  A    between atoms: C_2  and  C_3 
REMARK    4  A    between atoms: C_2  and  N_20 
REMARK       I    between atoms: C_3  and  N_5 
REMARK    5  A    between atoms: C_4  and  C_22 
REMARK    6  A    between atoms: N_5  and  C_22 
REMARK    7  A    between atoms: O_13  and  C_16 
REMARK    8  A    between atoms: C_16  and  C_22 
ROOT
HETATM    1  C           1     -21.753  -8.107  -3.950  0.00  0.00     0.278 C 
ENDROOT
BRANCH   1   2
HETATM    2  C           1     -20.687  -7.751  -2.923  0.00  0.00     0.081 C 
BRANCH   2   3
HETATM    3  C           1     -21.241  -7.937  -1.544  0.00  0.00    -0.056 A 
HETATM    4  C           1     -22.267  -7.110  -1.087  0.00  0.00     0.007 A 
HETATM    5  C           1     -22.783  -7.283   0.197  0.00  0.00     0.001 A 
HETATM    6  C           1     -22.272  -8.283   1.025  0.00  0.00     0.000 A 
HETATM    7  C           1     -21.247  -9.110   0.568  0.00  0.00     0.001 A 
HETATM    8  C           1     -20.731  -8.937  -0.716  0.00  0.00     0.007 A 
ENDBRANCH   2   3
ENDBRANCH   1   2
BRANCH   1   9
HETATM    9  C           1     -21.408  -7.468  -5.274  0.00  0.00     0.249 C 
HETATM   10  N           1     -21.755  -6.165  -5.516  0.00  0.00    -0.343 N 
HETATM   11  H           1     -22.242  -5.631  -4.807  0.00  0.00     0.163 HD
HETATM   12  O           1     -20.826  -8.105  -6.119  0.00  0.00    -0.271 OA
BRANCH  10  13
HETATM   13  C           1     -21.424  -5.551  -6.786  0.00  0.00     0.209 C 
BRANCH  13  14
HETATM   14  C           1     -20.096  -4.845  -6.673  0.00  0.00     0.198 C 
HETATM   15  O           1     -19.399  -4.654  -7.692  0.00  0.00    -0.646 OA
HETATM   16  O           1     -19.692  -4.451  -5.557  0.00  0.00    -0.646 OA
ENDBRANCH  13  14
BRANCH  13  17
HETATM   17  C           1     -22.504  -4.545  -7.161  0.00  0.00     0.200 C 
BRANCH  17  18
HETATM   18  O           1     -21.923  -3.282  -7.344  0.00  0.00    -0.398 OA
HETATM   19  H           1     -21.282  -3.373  -8.028  0.00  0.00     0.209 HD
ENDBRANCH  17  18
ENDBRANCH  13  17
ENDBRANCH  10  13
ENDBRANCH   1   9
BRANCH   1  20
HETATM   20  N           1     -21.809  -9.597  -4.115  0.00  0.00    -0.066 N 
HETATM   21  H           1     -21.126 -10.044  -3.462  0.00  0.00     0.275 HD
HETATM   22  H           1     -21.566  -9.848  -5.099  0.00  0.00     0.275 HD
HETATM   23  H           1     -22.774  -9.935  -3.897  0.00  0.00     0.275 HD
ENDBRANCH   1  20
TORSDOF 8
ENDMDL
MODEL 8
REMARK VINA RESULT:      -6.0      2.961      5.473
REMARK  8 active torsions:
REMARK  status: ('A' for Active; 'I' for Inactive)
REMARK    1  A    between atoms: C_1  and  C_2 
REMARK    2  A    between atoms: C_1  and  C_15 
REMARK    3  A    between atoms: C_2  and  C_3 
REMARK    4  A    between atoms: C_2  and  N_20 
REMARK       I    between atoms: C_3  and  N_5 
REMARK    5  A    between atoms: C_4  and  C_22 
REMARK    6  A    between atoms: N_5  and  C_22 
REMARK    7  A    between atoms: O_13  and  C_16 
REMARK    8  A    between atoms: C_16  and  C_22 
ROOT
HETATM    1  C           1     -35.598   0.001 -12.149  0.00  0.00     0.278 C 
ENDROOT
BRANCH   1   2
HETATM    2  C           1     -37.022  -0.156 -11.631  0.00  0.00     0.081 C 
BRANCH   2   3
HETATM    3  C           1     -37.082   0.274 -10.198  0.00  0.00    -0.056 A 
HETATM    4  C           1     -38.019   1.226  -9.794  0.00  0.00     0.007 A 
HETATM    5  C           1     -38.075   1.626  -8.459  0.00  0.00     0.001 A 
HETATM    6  C           1     -37.194   1.076  -7.528  0.00  0.00     0.000 A 
HETATM    7  C           1     -36.258   0.125  -7.932  0.00  0.00     0.001 A 
HETATM    8  C           1     -36.201  -0.276  -9.267  0.00  0.00     0.007 A 
ENDBRANCH   2   3
ENDBRANCH   1   2
BRANCH   1   9
HETATM    9  C           1     -35.096  -1.331 -12.651  0.00  0.00     0.249 C 
HETATM   10  N           1     -34.542  -2.228 -11.777  0.00  0.00    -0.343 N 
HETATM   11  H           1     -34.469  -1.997 -10.794  0.00  0.00     0.163 HD
HETATM   12  O           1     -35.183  -1.606 -13.824  0.00  0.00    -0.271 OA
BRANCH  10  13
HETATM   13  C           1     -34.059  -3.506 -12.260  0.00  0.00     0.209 C 
BRANCH  13  14
HETATM   14  C           1     -35.048  -4.586 -11.895  0.00  0.00     0.198 C 
HETATM   15  O           1     -35.804  -4.435 -10.912  0.00  0.00    -0.646 OA
HETATM   16  O           1     -35.110  -5.633 -12.576  0.00  0.00    -0.646 OA
ENDBRANCH  13  14
BRANCH  13  17
HETATM   17  C           1     -32.712  -3.815 -11.622  0.00  0.00     0.200 C 
BRANCH  17  18
HETATM   18  O           1     -32.082  -4.846 -12.334  0.00  0.00    -0.398 OA
HETATM   19  H           1     -32.031  -5.587 -11.754  0.00  0.00     0.209 HD
ENDBRANCH  17  18
ENDBRANCH  13  17
ENDBRANCH  10  13
ENDBRANCH   1   9
BRANCH   1  20
HETATM   20  N           1     -35.583   0.996 -13.271  0.00  0.00    -0.066 N 
HETATM   21  H           1     -35.399   0.500 -14.172  0.00  0.00     0.275 HD
HETATM   22  H           1     -34.830   1.701 -13.102  0.00  0.00     0.275 HD
HETATM   23  H           1     -36.507   1.481 -13.320  0.00  0.00     0.275 HD
ENDBRANCH   1  20
TORSDOF 8
ENDMDL
MODEL 9
REMARK VINA RESULT:      -6.0     16.604     19.029
REMARK  8 active torsions:
REMARK  status: ('A' for Active; 'I' for Inactive)
REMARK    1  A    between atoms: C_1  and  C_2 
REMARK    2  A    between atoms: C_1  and  C_15 
REMARK    3  A    between atoms: C_2  and  C_3 
REMARK    4  A    between atoms: C_2  and  N_20 
REMARK       I    between atoms: C_3  and  N_5 
REMARK    5  A    between atoms: C_4  and  C_22 
REMARK    6  A    between atoms: N_5  and  C_22 
REMARK    7  A    between atoms: O_13  and  C_16 
REMARK    8  A    between atoms: C_16  and  C_22 
ROOT
HETATM    1  C           1     -21.317  -7.311  -4.136  0.00  0.00     0.278 C 
ENDROOT
BRANCH   1   2
HETATM    2  C           1     -22.331  -6.504  -4.935  0.00  0.00     0.081 C 
BRANCH   2   3
HETATM    3  C           1     -21.611  -5.630  -5.916  0.00  0.00    -0.056 A 
HETATM    4  C           1     -20.216  -5.604  -5.934  0.00  0.00     0.007 A 
HETATM    5  C           1     -19.546  -4.790  -6.848  0.00  0.00     0.001 A 
HETATM    6  C           1     -20.271  -4.002  -7.742  0.00  0.00     0.000 A 
HETATM    7  C           1     -21.664  -4.029  -7.724  0.00  0.00     0.001 A 
HETATM    8  C           1     -22.335  -4.842  -6.811  0.00  0.00     0.007 A 
ENDBRANCH   2   3
ENDBRANCH   1   2
BRANCH   1   9
HETATM    9  C           1     -21.509  -7.041  -2.663  0.00  0.00     0.249 C 
HETATM   10  N           1     -21.522  -8.082  -1.772  0.00  0.00    -0.343 N 
HETATM   11  H           1     -21.402  -9.032  -2.102  0.00  0.00     0.163 HD
HETATM   12  O           1     -21.651  -5.909  -2.269  0.00  0.00    -0.271 OA
BRANCH  10  13
HETATM   13  C           1     -21.706  -7.823  -0.358  0.00  0.00     0.209 C 
BRANCH  13  14
HETATM   14  C           1     -21.072  -8.934   0.442  0.00  0.00     0.198 C 
HETATM   15  O           1     -20.721  -9.991  -0.124  0.00  0.00    -0.646 OA
HETATM   16  O           1     -20.899  -8.798   1.673  0.00  0.00    -0.646 OA
ENDBRANCH  13  14
BRANCH  13  17
HETATM   17  C           1     -23.194  -7.756  -0.043  0.00  0.00     0.200 C 
BRANCH  17  18
HETATM   18  O           1     -23.633  -9.007   0.414  0.00  0.00    -0.398 OA
HETATM   19  H           1     -24.548  -8.918   0.618  0.00  0.00     0.209 HD
ENDBRANCH  17  18
ENDBRANCH  13  17
ENDBRANCH  10  13
ENDBRANCH   1   9
BRANCH   1  20
HETATM   20  N           1     -21.519  -8.773  -4.406  0.00  0.00    -0.066 N 
HETATM   21  H           1     -20.639  -9.292  -4.185  0.00  0.00     0.275 HD
HETATM   22  H           1     -21.761  -8.911  -5.413  0.00  0.00     0.275 HD
HETATM   23  H           1     -22.297  -9.134  -3.808  0.00  0.00     0.275 HD
ENDBRANCH   1  20
TORSDOF 8
ENDMDL
