MODEL 1
REMARK VINA RESULT:      -6.5      0.000      0.000
REMARK  8 active torsions:
REMARK  status: ('A' for Active; 'I' for Inactive)
REMARK    1  A    between atoms: N_5  and  C_11 
REMARK       I    between atoms: N_5  and  C_19 
REMARK    2  A    between atoms: C_6  and  C_11 
REMARK    3  A    between atoms: O_9  and  C_10 
REMARK    4  A    between atoms: C_10  and  C_22 
REMARK    5  A    between atoms: C_11  and  C_15 
REMARK    6  A    between atoms: C_12  and  C_15 
REMARK    7  A    between atoms: C_19  and  C_22 
REMARK    8  A    between atoms: C_22  and  N_23 
ROOT
HETATM    1  N           1     -25.302  -7.213 -18.126  0.00  0.00    -0.344 N 
HETATM    2  O           1     -23.541  -6.330 -19.176  0.00  0.00    -0.271 OA
HETATM    3  C           1     -24.652  -6.795 -19.256  0.00  0.00     0.251 C 
HETATM    4  H           1     -25.201  -8.169 -17.808  0.00  0.00     0.163 HD
ENDROOT
BRANCH   1   5
HETATM    5  C           1     -26.136  -6.288 -17.384  0.00  0.00     0.191 C 
BRANCH   5   6
HETATM    6  C           1     -25.951  -6.519 -15.904  0.00  0.00     0.197 C 
HETATM    7  O           1     -26.644  -7.376 -15.315  0.00  0.00    -0.646 OA
HETATM    8  O           1     -25.104  -5.855 -15.269  0.00  0.00    -0.646 OA
ENDBRANCH   5   6
BRANCH   5   9
HETATM    9  C           1     -27.596  -6.512 -17.754  0.00  0.00     0.094 C 
BRANCH   9  10
HETATM   10  C           1     -28.327  -5.206 -17.717  0.00  0.00     0.028 A 
HETATM   11  C           1     -29.453  -4.919 -18.450  0.00  0.00     0.114 A 
HETATM   12  N           1     -29.779  -3.634 -18.112  0.00  0.00    -0.360 N 
HETATM   13  H           1     -30.591  -3.081 -18.481  0.00  0.00     0.166 HD
HETATM   14  C           1     -28.854  -3.203 -17.203  0.00  0.00     0.180 A 
HETATM   15  N           1     -27.963  -4.132 -16.945  0.00  0.00    -0.354 N 
ATOM     16  HN          1     -27.169  -4.069 -16.307  1.00  0.00     0.166 HD
ENDBRANCH   9  10
ENDBRANCH   5   9
ENDBRANCH   1   5
BRANCH   3  17
HETATM   17  C           1     -25.326  -6.914 -20.601  0.00  0.00     0.302 C 
BRANCH  17  18
HETATM   18  C           1     -24.698  -8.061 -21.383  0.00  0.00     0.153 C 
HETATM   19  C           1     -24.023  -7.510 -22.633  0.00  0.00     0.042 C 
BRANCH  18  20
HETATM   20  O           1     -23.744  -8.706 -20.583  0.00  0.00    -0.393 OA
HETATM   21  H           1     -23.155  -8.041 -20.269  0.00  0.00     0.210 HD
ENDBRANCH  18  20
ENDBRANCH  17  18
BRANCH  17  22
HETATM   22  N           1     -25.151  -5.634 -21.363  0.00  0.00    -0.064 N 
HETATM   23  H           1     -24.839  -4.880 -20.711  0.00  0.00     0.275 HD
HETATM   24  H           1     -26.060  -5.363 -21.801  0.00  0.00     0.275 HD
HETATM   25  H           1     -24.431  -5.770 -22.109  0.00  0.00     0.275 HD
ENDBRANCH  17  22
ENDBRANCH   3  17
TORSDOF 8
ENDMDL
MODEL 2
REMARK VINA RESULT:      -6.0      2.084      5.362
REMARK  8 active torsions:
REMARK  status: ('A' for Active; 'I' for Inactive)
REMARK    1  A    between atoms: N_5  and  C_11 
REMARK       I    between atoms: N_5  and  C_19 
REMARK    2  A    between atoms: C_6  and  C_11 
REMARK    3  A    between atoms: O_9  and  C_10 
REMARK    4  A    between atoms: C_10  and  C_22 
REMARK    5  A    between atoms: C_11  and  C_15 
REMARK    6  A    between atoms: C_12  and  C_15 
REMARK    7  A    between atoms: C_19  and  C_22 
REMARK    8  A    between atoms: C_22  and  N_23 
ROOT
HETATM    1  N           1     -26.759  -5.606 -16.975  0.00  0.00    -0.344 N 
HETATM    2  O           1     -28.539  -5.985 -15.681  0.00  0.00    -0.271 OA
HETATM    3  C           1     -28.106  -5.762 -16.786  0.00  0.00     0.251 C 
HETATM    4  H           1     -26.341  -4.686 -16.904  0.00  0.00     0.163 HD
ENDROOT
BRANCH   1   5
HETATM    5  C           1     -25.931  -6.756 -17.278  0.00  0.00     0.191 C 
BRANCH   5   6
HETATM    6  C           1     -25.155  -7.156 -16.047  0.00  0.00     0.197 C 
HETATM    7  O           1     -24.433  -8.177 -16.067  0.00  0.00    -0.646 OA
HETATM    8  O           1     -25.233  -6.466 -15.007  0.00  0.00    -0.646 OA
ENDBRANCH   5   6
BRANCH   5   9
HETATM    9  C           1     -24.960  -6.402 -18.397  0.00  0.00     0.094 C 
BRANCH   9  10
HETATM   10  C           1     -25.311  -7.181 -19.627  0.00  0.00     0.028 A 
HETATM   11  C           1     -24.396  -7.770 -20.466  0.00  0.00     0.114 A 
HETATM   12  N           1     -25.144  -8.366 -21.444  0.00  0.00    -0.360 N 
HETATM   13  H           1     -24.777  -8.914 -22.260  0.00  0.00     0.166 HD
HETATM   14  C           1     -26.458  -8.119 -21.162  0.00  0.00     0.180 A 
HETATM   15  N           1     -26.590  -7.403 -20.069  0.00  0.00    -0.354 N 
ATOM     16  HN          1     -27.458  -7.082 -19.640  1.00  0.00     0.166 HD
ENDBRANCH   9  10
ENDBRANCH   5   9
ENDBRANCH   1   5
BRANCH   3  17
HETATM   17  C           1     -29.049  -5.657 -17.959  0.00  0.00     0.302 C 
BRANCH  17  18
HETATM   18  C           1     -29.612  -4.244 -18.032  0.00  0.00     0.153 C 
HETATM   19  C           1     -30.986  -4.212 -17.375  0.00  0.00     0.042 C 
BRANCH  18  20
HETATM   20  O           1     -28.753  -3.362 -17.361  0.00  0.00    -0.393 OA
HETATM   21  H           1     -29.195  -2.530 -17.316  0.00  0.00     0.210 HD
ENDBRANCH  18  20
ENDBRANCH  17  18
BRANCH  17  22
HETATM   22  N           1     -30.173  -6.635 -17.786  0.00  0.00    -0.064 N 
HETATM   23  H           1     -30.449  -7.018 -18.719  0.00  0.00     0.275 HD
HETATM   24  H           1     -30.992  -6.151 -17.353  0.00  0.00     0.275 HD
HETATM   25  H           1     -29.862  -7.417 -17.166  0.00  0.00     0.275 HD
ENDBRANCH  17  22
ENDBRANCH   3  17
TORSDOF 8
ENDMDL
MODEL 3
REMARK VINA RESULT:      -5.8     11.182     13.867
REMARK  8 active torsions:
REMARK  status: ('A' for Active; 'I' for Inactive)
REMARK    1  A    between atoms: N_5  and  C_11 
REMARK       I    between atoms: N_5  and  C_19 
REMARK    2  A    between atoms: C_6  and  C_11 
REMARK    3  A    between atoms: O_9  and  C_10 
REMARK    4  A    between atoms: C_10  and  C_22 
REMARK    5  A    between atoms: C_11  and  C_15 
REMARK    6  A    between atoms: C_12  and  C_15 
REMARK    7  A    between atoms: C_19  and  C_22 
REMARK    8  A    between atoms: C_22  and  N_23 
ROOT
HETATM    1  N           1     -21.831  -6.917  -6.198  0.00  0.00    -0.344 N 
HETATM    2  O           1     -23.475  -6.145  -4.901  0.00  0.00    -0.271 OA
HETATM    3  C           1     -22.318  -6.475  -4.998  0.00  0.00     0.251 C 
HETATM    4  H           1     -21.866  -7.903  -6.427  0.00  0.00     0.163 HD
ENDROOT
BRANCH   1   5
HETATM    5  C           1     -21.263  -5.974  -7.142  0.00  0.00     0.191 C 
BRANCH   5   6
HETATM    6  C           1     -19.768  -5.903  -6.944  0.00  0.00     0.197 C 
HETATM    7  O           1     -19.115  -6.949  -6.739  0.00  0.00    -0.646 OA
HETATM    8  O           1     -19.184  -4.799  -6.986  0.00  0.00    -0.646 OA
ENDBRANCH   5   6
BRANCH   5   9
HETATM    9  C           1     -21.872  -4.597  -6.912  0.00  0.00     0.094 C 
BRANCH   9  10
HETATM   10  C           1     -22.607  -4.165  -8.143  0.00  0.00     0.028 A 
HETATM   11  C           1     -22.018  -3.917  -9.359  0.00  0.00     0.114 A 
HETATM   12  N           1     -23.047  -3.555 -10.184  0.00  0.00    -0.360 N 
HETATM   13  H           1     -22.968  -3.293 -11.198  0.00  0.00     0.166 HD
HETATM   14  C           1     -24.197  -3.599  -9.449  0.00  0.00     0.180 A 
HETATM   15  N           1     -23.962  -3.965  -8.210  0.00  0.00    -0.354 N 
ATOM     16  HN          1     -24.642  -4.076  -7.457  1.00  0.00     0.166 HD
ENDBRANCH   9  10
ENDBRANCH   5   9
ENDBRANCH   1   5
BRANCH   3  17
HETATM   17  C           1     -21.408  -6.400  -3.797  0.00  0.00     0.302 C 
BRANCH  17  18
HETATM   18  C           1     -20.823  -7.778  -3.517  0.00  0.00     0.153 C 
HETATM   19  C           1     -20.587  -7.933  -2.020  0.00  0.00     0.042 C 
BRANCH  18  20
HETATM   20  O           1     -21.719  -8.765  -3.953  0.00  0.00    -0.393 OA
HETATM   21  H           1     -21.268  -9.590  -3.894  0.00  0.00     0.210 HD
ENDBRANCH  18  20
ENDBRANCH  17  18
BRANCH  17  22
HETATM   22  N           1     -22.192  -5.938  -2.604  0.00  0.00    -0.064 N 
HETATM   23  H           1     -21.741  -5.086  -2.200  0.00  0.00     0.275 HD
HETATM   24  H           1     -22.211  -6.696  -1.885  0.00  0.00     0.275 HD
HETATM   25  H           1     -23.169  -5.709  -2.897  0.00  0.00     0.275 HD
ENDBRANCH  17  22
ENDBRANCH   3  17
TORSDOF 8
ENDMDL
MODEL 4
REMARK VINA RESULT:      -5.6      2.096      5.122
REMARK  8 active torsions:
REMARK  status: ('A' for Active; 'I' for Inactive)
REMARK    1  A    between atoms: N_5  and  C_11 
REMARK       I    between atoms: N_5  and  C_19 
REMARK    2  A    between atoms: C_6  and  C_11 
REMARK    3  A    between atoms: O_9  and  C_10 
REMARK    4  A    between atoms: C_10  and  C_22 
REMARK    5  A    between atoms: C_11  and  C_15 
REMARK    6  A    between atoms: C_12  and  C_15 
REMARK    7  A    between atoms: C_19  and  C_22 
REMARK    8  A    between atoms: C_22  and  N_23 
ROOT
HETATM    1  N           1     -27.492  -5.715 -16.637  0.00  0.00    -0.344 N 
HETATM    2  O           1     -28.599  -6.617 -14.920  0.00  0.00    -0.271 OA
HETATM    3  C           1     -28.635  -6.180 -16.045  0.00  0.00     0.251 C 
HETATM    4  H           1     -27.231  -4.742 -16.539  0.00  0.00     0.163 HD
ENDROOT
BRANCH   1   5
HETATM    5  C           1     -26.653  -6.617 -17.403  0.00  0.00     0.191 C 
BRANCH   5   6
HETATM    6  C           1     -25.392  -6.912 -16.628  0.00  0.00     0.197 C 
HETATM    7  O           1     -25.465  -7.391 -15.475  0.00  0.00    -0.646 OA
HETATM    8  O           1     -24.276  -6.678 -17.138  0.00  0.00    -0.646 OA
ENDBRANCH   5   6
BRANCH   5   9
HETATM    9  C           1     -26.292  -5.966 -18.732  0.00  0.00     0.094 C 
BRANCH   9  10
HETATM   10  C           1     -26.275  -7.008 -19.808  0.00  0.00     0.028 A 
HETATM   11  C           1     -25.148  -7.425 -20.474  0.00  0.00     0.114 A 
HETATM   12  N           1     -25.588  -8.372 -21.357  0.00  0.00    -0.360 N 
HETATM   13  H           1     -24.996  -8.912 -22.036  0.00  0.00     0.166 HD
HETATM   14  C           1     -26.939  -8.489 -21.193  0.00  0.00     0.180 A 
HETATM   15  N           1     -27.383  -7.676 -20.262  0.00  0.00    -0.354 N 
ATOM     16  HN          1     -28.346  -7.565 -19.945  1.00  0.00     0.166 HD
ENDBRANCH   9  10
ENDBRANCH   5   9
ENDBRANCH   1   5
BRANCH   3  17
HETATM   17  C           1     -29.941  -6.146 -16.801  0.00  0.00     0.302 C 
BRANCH  17  18
HETATM   18  C           1     -30.302  -7.555 -17.253  0.00  0.00     0.153 C 
HETATM   19  C           1     -30.567  -7.553 -18.752  0.00  0.00     0.042 C 
BRANCH  18  20
HETATM   20  O           1     -29.240  -8.425 -16.967  0.00  0.00    -0.393 OA
HETATM   21  H           1     -28.446  -7.969 -17.188  0.00  0.00     0.210 HD
ENDBRANCH  18  20
ENDBRANCH  17  18
BRANCH  17  22
HETATM   22  N           1     -29.802  -5.257 -18.001  0.00  0.00    -0.064 N 
HETATM   23  H           1     -30.244  -5.717 -18.829  0.00  0.00     0.275 HD
HETATM   24  H           1     -28.789  -5.090 -18.195  0.00  0.00     0.275 HD
HETATM   25  H           1     -30.277  -4.345 -17.815  0.00  0.00     0.275 HD
ENDBRANCH  17  22
ENDBRANCH   3  17
TORSDOF 8
ENDMDL
MODEL 5
REMARK VINA RESULT:      -5.5     10.651     13.410
REMARK  8 active torsions:
REMARK  status: ('A' for Active; 'I' for Inactive)
REMARK    1  A    between atoms: N_5  and  C_11 
REMARK       I    between atoms: N_5  and  C_19 
REMARK    2  A    between atoms: C_6  and  C_11 
REMARK    3  A    between atoms: O_9  and  C_10 
REMARK    4  A    between atoms: C_10  and  C_22 
REMARK    5  A    between atoms: C_11  and  C_15 
REMARK    6  A    between atoms: C_12  and  C_15 
REMARK    7  A    between atoms: C_19  and  C_22 
REMARK    8  A    between atoms: C_22  and  N_23 
ROOT
HETATM    1  N           1     -22.142  -5.167  -6.032  0.00  0.00    -0.344 N 
HETATM    2  O           1     -20.400  -5.030  -4.642  0.00  0.00    -0.271 OA
HETATM    3  C           1     -21.276  -5.709  -5.120  0.00  0.00     0.251 C 
HETATM    4  H           1     -23.000  -4.732  -5.718  0.00  0.00     0.163 HD
ENDROOT
BRANCH   1   5
HETATM    5  C           1     -21.829  -5.217  -7.447  0.00  0.00     0.191 C 
BRANCH   5   6
HETATM    6  C           1     -20.331  -5.218  -7.632  0.00  0.00     0.197 C 
HETATM    7  O           1     -19.702  -6.299  -7.627  0.00  0.00    -0.646 OA
HETATM    8  O           1     -19.720  -4.140  -7.790  0.00  0.00    -0.646 OA
ENDBRANCH   5   6
BRANCH   5   9
HETATM    9  C           1     -22.425  -3.999  -8.141  0.00  0.00     0.094 C 
BRANCH   9  10
HETATM   10  C           1     -22.562  -4.277  -9.606  0.00  0.00     0.028 A 
HETATM   11  C           1     -23.697  -4.765 -10.206  0.00  0.00     0.114 A 
HETATM   12  N           1     -23.382  -4.864 -11.533  0.00  0.00    -0.360 N 
HETATM   13  H           1     -24.015  -5.204 -12.299  0.00  0.00     0.166 HD
HETATM   14  C           1     -22.093  -4.439 -11.681  0.00  0.00     0.180 A 
HETATM   15  N           1     -21.571  -4.077 -10.532  0.00  0.00    -0.354 N 
ATOM     16  HN          1     -20.628  -3.723 -10.364  1.00  0.00     0.166 HD
ENDBRANCH   9  10
ENDBRANCH   5   9
ENDBRANCH   1   5
BRANCH   3  17
HETATM   17  C           1     -21.418  -7.156  -4.715  0.00  0.00     0.302 C 
BRANCH  17  18
HETATM   18  C           1     -21.852  -7.234  -3.257  0.00  0.00     0.153 C 
HETATM   19  C           1     -20.682  -7.706  -2.404  0.00  0.00     0.042 C 
BRANCH  18  20
HETATM   20  O           1     -22.265  -5.966  -2.823  0.00  0.00    -0.393 OA
HETATM   21  H           1     -22.031  -5.355  -3.501  0.00  0.00     0.210 HD
ENDBRANCH  18  20
ENDBRANCH  17  18
BRANCH  17  22
HETATM   22  N           1     -20.100  -7.853  -4.881  0.00  0.00    -0.064 N 
HETATM   23  H           1     -19.419  -7.206  -5.339  0.00  0.00     0.275 HD
HETATM   24  H           1     -20.228  -8.702  -5.475  0.00  0.00     0.275 HD
HETATM   25  H           1     -19.735  -8.135  -3.943  0.00  0.00     0.275 HD
ENDBRANCH  17  22
ENDBRANCH   3  17
TORSDOF 8
ENDMDL
MODEL 6
REMARK VINA RESULT:      -5.3     11.138     13.764
REMARK  8 active torsions:
REMARK  status: ('A' for Active; 'I' for Inactive)
REMARK    1  A    between atoms: N_5  and  C_11 
REMARK       I    between atoms: N_5  and  C_19 
REMARK    2  A    between atoms: C_6  and  C_11 
REMARK    3  A    between atoms: O_9  and  C_10 
REMARK    4  A    between atoms: C_10  and  C_22 
REMARK    5  A    between atoms: C_11  and  C_15 
REMARK    6  A    between atoms: C_12  and  C_15 
REMARK    7  A    between atoms: C_19  and  C_22 
REMARK    8  A    between atoms: C_22  and  N_23 
ROOT
HETATM    1  N           1     -20.692  -6.262  -6.894  0.00  0.00    -0.344 N 
HETATM    2  O           1     -20.814  -4.071  -6.483  0.00  0.00    -0.271 OA
HETATM    3  C           1     -21.181  -5.009  -7.148  0.00  0.00     0.251 C 
HETATM    4  H           1     -19.855  -6.584  -7.363  0.00  0.00     0.163 HD
ENDROOT
BRANCH   1   5
HETATM    5  C           1     -21.374  -7.129  -5.952  0.00  0.00     0.191 C 
BRANCH   5   6
HETATM    6  C           1     -22.118  -6.289  -4.943  0.00  0.00     0.197 C 
HETATM    7  O           1     -21.529  -5.870  -3.923  0.00  0.00    -0.646 OA
HETATM    8  O           1     -23.323  -6.012  -5.127  0.00  0.00    -0.646 OA
ENDBRANCH   5   6
BRANCH   5   9
HETATM    9  C           1     -20.351  -7.999  -5.233  0.00  0.00     0.094 C 
BRANCH   9  10
HETATM   10  C           1     -20.905  -9.380  -5.061  0.00  0.00     0.028 A 
HETATM   11  C           1     -21.553  -9.827  -3.935  0.00  0.00     0.114 A 
HETATM   12  N           1     -21.883 -11.127  -4.209  0.00  0.00    -0.360 N 
HETATM   13  H           1     -22.392 -11.787  -3.571  0.00  0.00     0.166 HD
HETATM   14  C           1     -21.430 -11.408  -5.467  0.00  0.00     0.180 A 
HETATM   15  N           1     -20.834 -10.370  -6.007  0.00  0.00    -0.354 N 
ATOM     16  HN          1     -20.409 -10.313  -6.933  1.00  0.00     0.166 HD
ENDBRANCH   9  10
ENDBRANCH   5   9
ENDBRANCH   1   5
BRANCH   3  17
HETATM   17  C           1     -22.180  -4.802  -8.260  0.00  0.00     0.302 C 
BRANCH  17  18
HETATM   18  C           1     -21.613  -3.816  -9.274  0.00  0.00     0.153 C 
HETATM   19  C           1     -20.452  -4.466 -10.016  0.00  0.00     0.042 C 
BRANCH  18  20
HETATM   20  O           1     -22.612  -3.460 -10.191  0.00  0.00    -0.393 OA
HETATM   21  H           1     -23.054  -4.255 -10.438  0.00  0.00     0.210 HD
ENDBRANCH  18  20
ENDBRANCH  17  18
BRANCH  17  22
HETATM   22  N           1     -23.456  -4.254  -7.691  0.00  0.00    -0.064 N 
HETATM   23  H           1     -23.925  -4.990  -7.117  0.00  0.00     0.275 HD
HETATM   24  H           1     -24.088  -3.964  -8.471  0.00  0.00     0.275 HD
HETATM   25  H           1     -23.241  -3.427  -7.089  0.00  0.00     0.275 HD
ENDBRANCH  17  22
ENDBRANCH   3  17
TORSDOF 8
ENDMDL
MODEL 7
REMARK VINA RESULT:      -5.1     13.818     16.404
REMARK  8 active torsions:
REMARK  status: ('A' for Active; 'I' for Inactive)
REMARK    1  A    between atoms: N_5  and  C_11 
REMARK       I    between atoms: N_5  and  C_19 
REMARK    2  A    between atoms: C_6  and  C_11 
REMARK    3  A    between atoms: O_9  and  C_10 
REMARK    4  A    between atoms: C_10  and  C_22 
REMARK    5  A    between atoms: C_11  and  C_15 
REMARK    6  A    between atoms: C_12  and  C_15 
REMARK    7  A    between atoms: C_19  and  C_22 
REMARK    8  A    between atoms: C_22  and  N_23 
ROOT
HETATM    1  N           1     -21.170  -6.698  -2.978  0.00  0.00    -0.344 N 
HETATM    2  O           1     -22.732  -6.238  -4.506  0.00  0.00    -0.271 OA
HETATM    3  C           1     -21.605  -6.603  -4.273  0.00  0.00     0.251 C 
HETATM    4  H           1     -20.733  -5.901  -2.532  0.00  0.00     0.163 HD
ENDROOT
BRANCH   1   5
HETATM    5  C           1     -21.335  -7.938  -2.246  0.00  0.00     0.191 C 
BRANCH   5   6
HETATM    6  C           1     -22.115  -7.676  -0.981  0.00  0.00     0.197 C 
HETATM    7  O           1     -22.131  -8.530  -0.068  0.00  0.00    -0.646 OA
HETATM    8  O           1     -22.745  -6.604  -0.846  0.00  0.00    -0.646 OA
ENDBRANCH   5   6
BRANCH   5   9
HETATM    9  C           1     -19.966  -8.503  -1.890  0.00  0.00     0.094 C 
BRANCH   9  10
HETATM   10  C           1     -19.509  -9.424  -2.979  0.00  0.00     0.028 A 
HETATM   11  C           1     -20.186 -10.546  -3.390  0.00  0.00     0.114 A 
HETATM   12  N           1     -19.419 -11.077  -4.391  0.00  0.00    -0.360 N 
HETATM   13  H           1     -19.630 -11.945  -4.942  0.00  0.00     0.166 HD
HETATM   14  C           1     -18.329 -10.268  -4.544  0.00  0.00     0.180 A 
HETATM   15  N           1     -18.356  -9.260  -3.704  0.00  0.00    -0.354 N 
ATOM     16  HN          1     -17.666  -8.514  -3.609  1.00  0.00     0.166 HD
ENDBRANCH   9  10
ENDBRANCH   5   9
ENDBRANCH   1   5
BRANCH   3  17
HETATM   17  C           1     -20.674  -6.956  -5.408  0.00  0.00     0.302 C 
BRANCH  17  18
HETATM   18  C           1     -20.680  -5.833  -6.437  0.00  0.00     0.153 C 
HETATM   19  C           1     -19.958  -4.620  -5.866  0.00  0.00     0.042 C 
BRANCH  18  20
HETATM   20  O           1     -20.026  -6.261  -7.601  0.00  0.00    -0.393 OA
HETATM   21  H           1     -19.442  -6.955  -7.347  0.00  0.00     0.210 HD
ENDBRANCH  18  20
ENDBRANCH  17  18
BRANCH  17  22
HETATM   22  N           1     -21.135  -8.229  -6.055  0.00  0.00    -0.064 N 
HETATM   23  H           1     -20.471  -8.493  -6.817  0.00  0.00     0.275 HD
HETATM   24  H           1     -22.090  -8.089  -6.456  0.00  0.00     0.275 HD
HETATM   25  H           1     -21.166  -8.991  -5.340  0.00  0.00     0.275 HD
ENDBRANCH  17  22
ENDBRANCH   3  17
TORSDOF 8
ENDMDL
MODEL 8
REMARK VINA RESULT:      -5.1     14.676     16.689
REMARK  8 active torsions:
REMARK  status: ('A' for Active; 'I' for Inactive)
REMARK    1  A    between atoms: N_5  and  C_11 
REMARK       I    between atoms: N_5  and  C_19 
REMARK    2  A    between atoms: C_6  and  C_11 
REMARK    3  A    between atoms: O_9  and  C_10 
REMARK    4  A    between atoms: C_10  and  C_22 
REMARK    5  A    between atoms: C_11  and  C_15 
REMARK    6  A    between atoms: C_12  and  C_15 
REMARK    7  A    between atoms: C_19  and  C_22 
REMARK    8  A    between atoms: C_22  and  N_23 
ROOT
HETATM    1  N           1     -20.305  -7.990  -4.082  0.00  0.00    -0.344 N 
HETATM    2  O           1     -21.212  -8.228  -6.109  0.00  0.00    -0.271 OA
HETATM    3  C           1     -20.646  -8.742  -5.174  0.00  0.00     0.251 C 
HETATM    4  H           1     -19.404  -7.529  -4.046  0.00  0.00     0.163 HD
ENDROOT
BRANCH   1   5
HETATM    5  C           1     -21.233  -7.854  -2.977  0.00  0.00     0.191 C 
BRANCH   5   6
HETATM    6  C           1     -21.771  -6.444  -2.942  0.00  0.00     0.197 C 
HETATM    7  O           1     -21.435  -5.626  -3.827  0.00  0.00    -0.646 OA
HETATM    8  O           1     -22.550  -6.095  -2.031  0.00  0.00    -0.646 OA
ENDBRANCH   5   6
BRANCH   5   9
HETATM    9  C           1     -20.512  -8.155  -1.669  0.00  0.00     0.094 C 
BRANCH   9  10
HETATM   10  C           1     -21.286  -9.179  -0.897  0.00  0.00     0.028 A 
HETATM   11  C           1     -20.730 -10.263  -0.262  0.00  0.00     0.114 A 
HETATM   12  N           1     -21.786 -10.920   0.308  0.00  0.00    -0.360 N 
HETATM   13  H           1     -21.736 -11.800   0.878  0.00  0.00     0.166 HD
HETATM   14  C           1     -22.918 -10.219   0.002  0.00  0.00     0.180 A 
HETATM   15  N           1     -22.646  -9.161  -0.727  0.00  0.00    -0.354 N 
ATOM     16  HN          1     -23.306  -8.472  -1.089  1.00  0.00     0.166 HD
ENDBRANCH   9  10
ENDBRANCH   5   9
ENDBRANCH   1   5
BRANCH   3  17
HETATM   17  C           1     -20.314 -10.214  -5.209  0.00  0.00     0.302 C 
BRANCH  17  18
HETATM   18  C           1     -18.834 -10.393  -5.523  0.00  0.00     0.153 C 
HETATM   19  C           1     -18.657 -11.575  -6.468  0.00  0.00     0.042 C 
BRANCH  18  20
HETATM   20  O           1     -18.341  -9.230  -6.131  0.00  0.00    -0.393 OA
HETATM   21  H           1     -18.586  -9.271  -7.040  0.00  0.00     0.210 HD
ENDBRANCH  18  20
ENDBRANCH  17  18
BRANCH  17  22
HETATM   22  N           1     -21.135 -10.887  -6.269  0.00  0.00    -0.064 N 
HETATM   23  H           1     -21.479 -10.172  -6.949  0.00  0.00     0.275 HD
HETATM   24  H           1     -21.950 -11.367  -5.826  0.00  0.00     0.275 HD
HETATM   25  H           1     -20.546 -11.590  -6.771  0.00  0.00     0.275 HD
ENDBRANCH  17  22
ENDBRANCH   3  17
TORSDOF 8
ENDMDL
MODEL 9
REMARK VINA RESULT:      -5.0     15.365     17.797
REMARK  8 active torsions:
REMARK  status: ('A' for Active; 'I' for Inactive)
REMARK    1  A    between atoms: N_5  and  C_11 
REMARK       I    between atoms: N_5  and  C_19 
REMARK    2  A    between atoms: C_6  and  C_11 
REMARK    3  A    between atoms: O_9  and  C_10 
REMARK    4  A    between atoms: C_10  and  C_22 
REMARK    5  A    between atoms: C_11  and  C_15 
REMARK    6  A    between atoms: C_12  and  C_15 
REMARK    7  A    between atoms: C_19  and  C_22 
REMARK    8  A    between atoms: C_22  and  N_23 
ROOT
HETATM    1  N           1     -21.076  -7.546  -1.458  0.00  0.00    -0.344 N 
HETATM    2  O           1     -22.031  -5.755  -2.387  0.00  0.00    -0.271 OA
HETATM    3  C           1     -21.423  -6.786  -2.542  0.00  0.00     0.251 C 
HETATM    4  H           1     -20.190  -7.390  -0.993  0.00  0.00     0.163 HD
ENDROOT
BRANCH   1   5
HETATM    5  C           1     -21.977  -8.574  -0.974  0.00  0.00     0.191 C 
BRANCH   5   6
HETATM    6  C           1     -22.351  -8.282   0.458  0.00  0.00     0.197 C 
HETATM    7  O           1     -21.471  -8.282   1.346  0.00  0.00    -0.646 OA
HETATM    8  O           1     -23.540  -8.040   0.757  0.00  0.00    -0.646 OA
ENDBRANCH   5   6
BRANCH   5   9
HETATM    9  C           1     -21.287  -9.930  -1.052  0.00  0.00     0.094 C 
BRANCH   9  10
HETATM   10  C           1     -22.284 -11.013  -0.777  0.00  0.00     0.028 A 
HETATM   11  C           1     -23.385 -11.277  -1.555  0.00  0.00     0.114 A 
HETATM   12  N           1     -24.007 -12.331  -0.944  0.00  0.00    -0.360 N 
HETATM   13  H           1     -24.888 -12.804  -1.263  0.00  0.00     0.166 HD
HETATM   14  C           1     -23.270 -12.658   0.159  0.00  0.00     0.180 A 
HETATM   15  N           1     -22.222 -11.877   0.286  0.00  0.00    -0.354 N 
ATOM     16  HN          1     -21.512 -11.906   1.019  1.00  0.00     0.166 HD
ENDBRANCH   9  10
ENDBRANCH   5   9
ENDBRANCH   1   5
BRANCH   3  17
HETATM   17  C           1     -21.045  -7.239  -3.931  0.00  0.00     0.302 C 
BRANCH  17  18
HETATM   18  C           1     -21.291  -6.105  -4.918  0.00  0.00     0.153 C 
HETATM   19  C           1     -20.516  -6.374  -6.202  0.00  0.00     0.042 C 
BRANCH  18  20
HETATM   20  O           1     -22.660  -6.024  -5.208  0.00  0.00    -0.393 OA
HETATM   21  H           1     -23.034  -6.864  -4.999  0.00  0.00     0.210 HD
ENDBRANCH  18  20
ENDBRANCH  17  18
BRANCH  17  22
HETATM   22  N           1     -21.880  -8.424  -4.315  0.00  0.00    -0.064 N 
HETATM   23  H           1     -21.298  -9.291  -4.264  0.00  0.00     0.275 HD
HETATM   24  H           1     -22.235  -8.299  -5.290  0.00  0.00     0.275 HD
HETATM   25  H           1     -22.688  -8.508  -3.657  0.00  0.00     0.275 HD
ENDBRANCH  17  22
ENDBRANCH   3  17
TORSDOF 8
ENDMDL
