MODEL 1
REMARK VINA RESULT:      -5.4      0.000      0.000
REMARK  10 active torsions:
REMARK  status: ('A' for Active; 'I' for Inactive)
REMARK    1  A    between atoms: C_1  and  C_2 
REMARK    2  A    between atoms: C_1  and  C_23 
REMARK    3  A    between atoms: C_1  and  N_20 
REMARK    4  A    between atoms: C_2  and  S_3 
REMARK    5  A    between atoms: N_11  and  C_18 
REMARK    6  A    between atoms: O_14  and  P_15 
REMARK    7  A    between atoms: P_15  and  O_16 
REMARK    8  A    between atoms: O_16  and  C_17 
REMARK    9  A    between atoms: C_17  and  C_18 
REMARK   10  A    between atoms: C_18  and  C_19 
REMARK       I    between atoms: C_19  and  N_20 
ROOT
HETATM    1  C           1     -21.304  -5.077  -6.654  0.00  0.00     0.298 C 
ENDROOT
BRANCH   1   2
HETATM    2  N           1     -20.484  -5.924  -7.581  0.00  0.00    -0.064 N 
HETATM    3  H           1     -19.515  -6.018  -7.201  0.00  0.00     0.275 HD
HETATM    4  H           1     -20.447  -5.474  -8.524  0.00  0.00     0.275 HD
HETATM    5  H           1     -20.918  -6.871  -7.665  0.00  0.00     0.275 HD
ENDBRANCH   1   2
BRANCH   1   6
HETATM    6  C           1     -22.409  -4.385  -7.442  0.00  0.00     0.224 C 
BRANCH   6   7
HETATM    7  O           1     -22.178  -4.551  -8.815  0.00  0.00    -0.287 OA
BRANCH   7   8
HETATM    8  P           1     -23.379  -4.098  -9.794  0.00  0.00     0.406 P 
HETATM    9  O           1     -23.951  -5.291 -10.458  0.00  0.00    -0.624 OA
HETATM   10  O           1     -22.855  -3.166 -10.817  0.00  0.00    -0.624 OA
BRANCH   8  11
HETATM   11  O           1     -24.529  -3.359  -8.933  0.00  0.00    -0.300 OA
HETATM   12  H           1     -25.165  -3.077  -9.566  0.00  0.00     0.223 HD
ENDBRANCH   8  11
ENDBRANCH   7   8
ENDBRANCH   6   7
ENDBRANCH   1   6
BRANCH   1  13
HETATM   13  C           1     -21.917  -5.951  -5.587  0.00  0.00     0.251 C 
HETATM   14  O           1     -23.113  -5.941  -5.411  0.00  0.00    -0.271 OA
HETATM   15  N           1     -21.120  -6.756  -4.819  0.00  0.00    -0.344 N 
HETATM   16  H           1     -20.119  -6.766  -4.967  0.00  0.00     0.163 HD
BRANCH  15  17
HETATM   17  C           1     -21.710  -7.596  -3.794  0.00  0.00     0.194 C 
BRANCH  17  18
HETATM   18  C           1     -21.008  -8.948  -3.782  0.00  0.00     0.106 C 
BRANCH  18  19
HETATM   19  S           1     -19.478  -8.845  -4.752  0.00  0.00    -0.180 SA
HETATM   20  H           1     -19.752  -7.657  -5.322  0.00  0.00     0.101 HD
ENDBRANCH  18  19
ENDBRANCH  17  18
BRANCH  17  21
HETATM   21  C           1     -21.550  -6.933  -2.448  0.00  0.00     0.197 C 
HETATM   22  O           1     -20.749  -7.403  -1.611  0.00  0.00    -0.646 OA
HETATM   23  O           1     -22.218  -5.914  -2.171  0.00  0.00    -0.646 OA
ENDBRANCH  17  21
ENDBRANCH  15  17
ENDBRANCH   1  13
TORSDOF 10
ENDMDL
MODEL 2
REMARK VINA RESULT:      -5.4      3.303      6.793
REMARK  10 active torsions:
REMARK  status: ('A' for Active; 'I' for Inactive)
REMARK    1  A    between atoms: C_1  and  C_2 
REMARK    2  A    between atoms: C_1  and  C_23 
REMARK    3  A    between atoms: C_1  and  N_20 
REMARK    4  A    between atoms: C_2  and  S_3 
REMARK    5  A    between atoms: N_11  and  C_18 
REMARK    6  A    between atoms: O_14  and  P_15 
REMARK    7  A    between atoms: P_15  and  O_16 
REMARK    8  A    between atoms: O_16  and  C_17 
REMARK    9  A    between atoms: C_17  and  C_18 
REMARK   10  A    between atoms: C_18  and  C_19 
REMARK       I    between atoms: C_19  and  N_20 
ROOT
HETATM    1  C           1     -21.290  -5.948  -7.098  0.00  0.00     0.298 C 
ENDROOT
BRANCH   1   2
HETATM    2  N           1     -19.803  -6.023  -7.283  0.00  0.00    -0.064 N 
HETATM    3  H           1     -19.475  -5.178  -7.804  0.00  0.00     0.275 HD
HETATM    4  H           1     -19.562  -6.883  -7.825  0.00  0.00     0.275 HD
HETATM    5  H           1     -19.337  -6.058  -6.349  0.00  0.00     0.275 HD
ENDBRANCH   1   2
BRANCH   1   6
HETATM    6  C           1     -21.613  -5.866  -5.612  0.00  0.00     0.224 C 
BRANCH   6   7
HETATM    7  O           1     -22.137  -7.093  -5.178  0.00  0.00    -0.287 OA
BRANCH   7   8
HETATM    8  P           1     -21.180  -7.972  -4.220  0.00  0.00     0.406 P 
HETATM    9  O           1     -21.843  -9.259  -3.909  0.00  0.00    -0.624 OA
HETATM   10  O           1     -20.924  -7.231  -2.965  0.00  0.00    -0.624 OA
BRANCH   8  11
HETATM   11  O           1     -19.779  -8.257  -4.972  0.00  0.00    -0.300 OA
HETATM   12  H           1     -19.151  -7.712  -4.531  0.00  0.00     0.223 HD
ENDBRANCH   8  11
ENDBRANCH   7   8
ENDBRANCH   6   7
ENDBRANCH   1   6
BRANCH   1  13
HETATM   13  C           1     -21.822  -4.722  -7.798  0.00  0.00     0.251 C 
HETATM   14  O           1     -21.772  -3.645  -7.251  0.00  0.00    -0.271 OA
HETATM   15  N           1     -22.362  -4.828  -9.052  0.00  0.00    -0.344 N 
HETATM   16  H           1     -22.403  -5.730  -9.510  0.00  0.00     0.163 HD
BRANCH  15  17
HETATM   17  C           1     -22.872  -3.649  -9.724  0.00  0.00     0.194 C 
BRANCH  17  18
HETATM   18  C           1     -22.010  -3.347 -10.942  0.00  0.00     0.106 C 
BRANCH  18  19
HETATM   19  S           1     -20.492  -4.341 -10.870  0.00  0.00    -0.180 SA
HETATM   20  H           1     -19.718  -3.465 -11.536  0.00  0.00     0.101 HD
ENDBRANCH  18  19
ENDBRANCH  17  18
BRANCH  17  21
HETATM   21  C           1     -24.295  -3.898 -10.162  0.00  0.00     0.197 C 
HETATM   22  O           1     -24.875  -3.070 -10.897  0.00  0.00    -0.646 OA
HETATM   23  O           1     -24.891  -4.931  -9.791  0.00  0.00    -0.646 OA
ENDBRANCH  17  21
ENDBRANCH  15  17
ENDBRANCH   1  13
TORSDOF 10
ENDMDL
MODEL 3
REMARK VINA RESULT:      -5.2      2.360      2.943
REMARK  10 active torsions:
REMARK  status: ('A' for Active; 'I' for Inactive)
REMARK    1  A    between atoms: C_1  and  C_2 
REMARK    2  A    between atoms: C_1  and  C_23 
REMARK    3  A    between atoms: C_1  and  N_20 
REMARK    4  A    between atoms: C_2  and  S_3 
REMARK    5  A    between atoms: N_11  and  C_18 
REMARK    6  A    between atoms: O_14  and  P_15 
REMARK    7  A    between atoms: P_15  and  O_16 
REMARK    8  A    between atoms: O_16  and  C_17 
REMARK    9  A    between atoms: C_17  and  C_18 
REMARK   10  A    between atoms: C_18  and  C_19 
REMARK       I    between atoms: C_19  and  N_20 
ROOT
HETATM    1  C           1     -22.202  -4.912  -8.080  0.00  0.00     0.298 C 
ENDROOT
BRANCH   1   2
HETATM    2  N           1     -23.449  -4.125  -7.802  0.00  0.00    -0.064 N 
HETATM    3  H           1     -23.956  -3.948  -8.698  0.00  0.00     0.275 HD
HETATM    4  H           1     -23.194  -3.213  -7.359  0.00  0.00     0.275 HD
HETATM    5  H           1     -24.065  -4.666  -7.154  0.00  0.00     0.275 HD
ENDBRANCH   1   2
BRANCH   1   6
HETATM    6  C           1     -21.276  -4.096  -8.972  0.00  0.00     0.224 C 
BRANCH   6   7
HETATM    7  O           1     -21.237  -4.667 -10.253  0.00  0.00    -0.287 OA
BRANCH   7   8
HETATM    8  P           1     -22.362  -4.154 -11.291  0.00  0.00     0.406 P 
HETATM    9  O           1     -23.015  -2.941 -10.749  0.00  0.00    -0.624 OA
HETATM   10  O           1     -23.373  -5.216 -11.486  0.00  0.00    -0.624 OA
BRANCH   8  11
HETATM   11  O           1     -21.669  -3.804 -12.708  0.00  0.00    -0.300 OA
HETATM   12  H           1     -21.934  -4.497 -13.286  0.00  0.00     0.223 HD
ENDBRANCH   8  11
ENDBRANCH   7   8
ENDBRANCH   6   7
ENDBRANCH   1   6
BRANCH   1  13
HETATM   13  C           1     -21.504  -5.223  -6.779  0.00  0.00     0.251 C 
HETATM   14  O           1     -20.926  -4.348  -6.180  0.00  0.00    -0.271 OA
HETATM   15  N           1     -21.527  -6.497  -6.277  0.00  0.00    -0.344 N 
HETATM   16  H           1     -22.012  -7.230  -6.779  0.00  0.00     0.163 HD
BRANCH  15  17
HETATM   17  C           1     -20.856  -6.795  -5.027  0.00  0.00     0.194 C 
BRANCH  17  18
HETATM   18  C           1     -21.889  -7.197  -3.982  0.00  0.00     0.106 C 
BRANCH  18  19
HETATM   19  S           1     -21.635  -6.220  -2.474  0.00  0.00    -0.180 SA
HETATM   20  H           1     -22.099  -7.152  -1.622  0.00  0.00     0.101 HD
ENDBRANCH  18  19
ENDBRANCH  17  18
BRANCH  17  21
HETATM   21  C           1     -19.884  -7.930  -5.237  0.00  0.00     0.197 C 
HETATM   22  O           1     -19.816  -8.857  -4.401  0.00  0.00    -0.646 OA
HETATM   23  O           1     -19.148  -7.944  -6.247  0.00  0.00    -0.646 OA
ENDBRANCH  17  21
ENDBRANCH  15  17
ENDBRANCH   1  13
TORSDOF 10
ENDMDL
MODEL 4
REMARK VINA RESULT:      -4.8      4.051      4.796
REMARK  10 active torsions:
REMARK  status: ('A' for Active; 'I' for Inactive)
REMARK    1  A    between atoms: C_1  and  C_2 
REMARK    2  A    between atoms: C_1  and  C_23 
REMARK    3  A    between atoms: C_1  and  N_20 
REMARK    4  A    between atoms: C_2  and  S_3 
REMARK    5  A    between atoms: N_11  and  C_18 
REMARK    6  A    between atoms: O_14  and  P_15 
REMARK    7  A    between atoms: P_15  and  O_16 
REMARK    8  A    between atoms: O_16  and  C_17 
REMARK    9  A    between atoms: C_17  and  C_18 
REMARK   10  A    between atoms: C_18  and  C_19 
REMARK       I    between atoms: C_19  and  N_20 
ROOT
HETATM    1  C           1     -20.330  -9.604  -4.328  0.00  0.00     0.298 C 
ENDROOT
BRANCH   1   2
HETATM    2  N           1     -20.867 -10.025  -5.665  0.00  0.00    -0.064 N 
HETATM    3  H           1     -20.192 -10.680  -6.120  0.00  0.00     0.275 HD
HETATM    4  H           1     -20.998  -9.182  -6.269  0.00  0.00     0.275 HD
HETATM    5  H           1     -21.785 -10.507  -5.536  0.00  0.00     0.275 HD
ENDBRANCH   1   2
BRANCH   1   6
HETATM    6  C           1     -19.805  -8.178  -4.419  0.00  0.00     0.224 C 
BRANCH   6   7
HETATM    7  O           1     -20.837  -7.279  -4.111  0.00  0.00    -0.287 OA
BRANCH   7   8
HETATM    8  P           1     -21.291  -6.288  -5.302  0.00  0.00     0.406 P 
HETATM    9  O           1     -20.538  -5.018  -5.200  0.00  0.00    -0.624 OA
HETATM   10  O           1     -22.741  -6.014  -5.190  0.00  0.00    -0.624 OA
BRANCH   8  11
HETATM   11  O           1     -20.985  -6.982  -6.728  0.00  0.00    -0.300 OA
HETATM   12  H           1     -20.491  -7.756  -6.522  0.00  0.00     0.223 HD
ENDBRANCH   8  11
ENDBRANCH   7   8
ENDBRANCH   6   7
ENDBRANCH   1   6
BRANCH   1  13
HETATM   13  C           1     -21.433  -9.672  -3.301  0.00  0.00     0.251 C 
HETATM   14  O           1     -22.484 -10.199  -3.577  0.00  0.00    -0.271 OA
HETATM   15  N           1     -21.242  -9.137  -2.055  0.00  0.00    -0.344 N 
HETATM   16  H           1     -20.361  -8.697  -1.823  0.00  0.00     0.163 HD
BRANCH  15  17
HETATM   17  C           1     -22.302  -9.203  -1.068  0.00  0.00     0.194 C 
BRANCH  17  18
HETATM   18  C           1     -22.037 -10.362  -0.117  0.00  0.00     0.106 C 
BRANCH  18  19
HETATM   19  S           1     -23.451 -11.500  -0.140  0.00  0.00    -0.180 SA
HETATM   20  H           1     -24.309 -10.647  -0.729  0.00  0.00     0.101 HD
ENDBRANCH  18  19
ENDBRANCH  17  18
BRANCH  17  21
HETATM   21  C           1     -22.344  -7.911  -0.289  0.00  0.00     0.197 C 
HETATM   22  O           1     -22.036  -7.902   0.923  0.00  0.00    -0.646 OA
HETATM   23  O           1     -22.686  -6.851  -0.855  0.00  0.00    -0.646 OA
ENDBRANCH  17  21
ENDBRANCH  15  17
ENDBRANCH   1  13
TORSDOF 10
ENDMDL
MODEL 5
REMARK VINA RESULT:      -4.7      3.141      4.374
REMARK  10 active torsions:
REMARK  status: ('A' for Active; 'I' for Inactive)
REMARK    1  A    between atoms: C_1  and  C_2 
REMARK    2  A    between atoms: C_1  and  C_23 
REMARK    3  A    between atoms: C_1  and  N_20 
REMARK    4  A    between atoms: C_2  and  S_3 
REMARK    5  A    between atoms: N_11  and  C_18 
REMARK    6  A    between atoms: O_14  and  P_15 
REMARK    7  A    between atoms: P_15  and  O_16 
REMARK    8  A    between atoms: O_16  and  C_17 
REMARK    9  A    between atoms: C_17  and  C_18 
REMARK   10  A    between atoms: C_18  and  C_19 
REMARK       I    between atoms: C_19  and  N_20 
ROOT
HETATM    1  C           1     -21.081  -7.466  -3.356  0.00  0.00     0.298 C 
ENDROOT
BRANCH   1   2
HETATM    2  N           1     -21.715  -8.377  -4.366  0.00  0.00    -0.064 N 
HETATM    3  H           1     -22.483  -7.868  -4.859  0.00  0.00     0.275 HD
HETATM    4  H           1     -22.106  -9.216  -3.881  0.00  0.00     0.275 HD
HETATM    5  H           1     -20.996  -8.680  -5.062  0.00  0.00     0.275 HD
ENDBRANCH   1   2
BRANCH   1   6
HETATM    6  C           1     -21.297  -6.017  -3.774  0.00  0.00     0.224 C 
BRANCH   6   7
HETATM    7  O           1     -22.127  -5.975  -4.904  0.00  0.00    -0.287 OA
BRANCH   7   8
HETATM    8  P           1     -21.446  -5.427  -6.261  0.00  0.00     0.406 P 
HETATM    9  O           1     -20.943  -6.570  -7.056  0.00  0.00    -0.624 OA
HETATM   10  O           1     -20.321  -4.528  -5.921  0.00  0.00    -0.624 OA
BRANCH   8  11
HETATM   11  O           1     -22.542  -4.613  -7.124  0.00  0.00    -0.300 OA
HETATM   12  H           1     -23.361  -4.769  -6.688  0.00  0.00     0.223 HD
ENDBRANCH   8  11
ENDBRANCH   7   8
ENDBRANCH   6   7
ENDBRANCH   1   6
BRANCH   1  13
HETATM   13  C           1     -21.709  -7.701  -2.005  0.00  0.00     0.251 C 
HETATM   14  O           1     -22.108  -6.764  -1.354  0.00  0.00    -0.271 OA
HETATM   15  N           1     -21.828  -8.974  -1.516  0.00  0.00    -0.344 N 
HETATM   16  H           1     -21.495  -9.759  -2.062  0.00  0.00     0.163 HD
BRANCH  15  17
HETATM   17  C           1     -22.432  -9.199  -0.217  0.00  0.00     0.194 C 
BRANCH  17  18
HETATM   18  C           1     -23.353 -10.410  -0.290  0.00  0.00     0.106 C 
BRANCH  18  19
HETATM   19  S           1     -23.137 -11.239  -1.890  0.00  0.00    -0.180 SA
HETATM   20  H           1     -23.908 -12.303  -1.602  0.00  0.00     0.101 HD
ENDBRANCH  18  19
ENDBRANCH  17  18
BRANCH  17  21
HETATM   21  C           1     -21.350  -9.449   0.803  0.00  0.00     0.197 C 
HETATM   22  O           1     -20.990  -8.530   1.571  0.00  0.00    -0.646 OA
HETATM   23  O           1     -20.812 -10.575   0.881  0.00  0.00    -0.646 OA
ENDBRANCH  17  21
ENDBRANCH  15  17
ENDBRANCH   1  13
TORSDOF 10
ENDMDL
MODEL 6
REMARK VINA RESULT:      -4.7      4.126      7.228
REMARK  10 active torsions:
REMARK  status: ('A' for Active; 'I' for Inactive)
REMARK    1  A    between atoms: C_1  and  C_2 
REMARK    2  A    between atoms: C_1  and  C_23 
REMARK    3  A    between atoms: C_1  and  N_20 
REMARK    4  A    between atoms: C_2  and  S_3 
REMARK    5  A    between atoms: N_11  and  C_18 
REMARK    6  A    between atoms: O_14  and  P_15 
REMARK    7  A    between atoms: P_15  and  O_16 
REMARK    8  A    between atoms: O_16  and  C_17 
REMARK    9  A    between atoms: C_17  and  C_18 
REMARK   10  A    between atoms: C_18  and  C_19 
REMARK       I    between atoms: C_19  and  N_20 
ROOT
HETATM    1  C           1     -21.218  -6.386  -2.793  0.00  0.00     0.298 C 
ENDROOT
BRANCH   1   2
HETATM    2  N           1     -22.475  -5.912  -2.126  0.00  0.00    -0.064 N 
HETATM    3  H           1     -22.262  -5.076  -1.536  0.00  0.00     0.275 HD
HETATM    4  H           1     -22.860  -6.675  -1.525  0.00  0.00     0.275 HD
HETATM    5  H           1     -23.180  -5.654  -2.853  0.00  0.00     0.275 HD
ENDBRANCH   1   2
BRANCH   1   6
HETATM    6  C           1     -20.897  -7.800  -2.326  0.00  0.00     0.224 C 
BRANCH   6   7
HETATM    7  O           1     -22.072  -8.422  -1.879  0.00  0.00    -0.287 OA
BRANCH   7   8
HETATM    8  P           1     -22.062  -8.937  -0.349  0.00  0.00     0.406 P 
HETATM    9  O           1     -20.845  -9.744  -0.109  0.00  0.00    -0.624 OA
HETATM   10  O           1     -23.263  -9.765  -0.100  0.00  0.00    -0.624 OA
BRANCH   8  11
HETATM   11  O           1     -22.070  -7.666   0.648  0.00  0.00    -0.300 OA
HETATM   12  H           1     -21.325  -7.151   0.392  0.00  0.00     0.223 HD
ENDBRANCH   8  11
ENDBRANCH   7   8
ENDBRANCH   6   7
ENDBRANCH   1   6
BRANCH   1  13
HETATM   13  C           1     -21.411  -6.381  -4.289  0.00  0.00     0.251 C 
HETATM   14  O           1     -21.970  -7.305  -4.829  0.00  0.00    -0.271 OA
HETATM   15  N           1     -20.953  -5.328  -5.036  0.00  0.00    -0.344 N 
HETATM   16  H           1     -20.485  -4.553  -4.583  0.00  0.00     0.163 HD
BRANCH  15  17
HETATM   17  C           1     -21.139  -5.324  -6.474  0.00  0.00     0.194 C 
BRANCH  17  18
HETATM   18  C           1     -21.645  -3.956  -6.914  0.00  0.00     0.106 C 
BRANCH  18  19
HETATM   19  S           1     -22.698  -4.144  -8.381  0.00  0.00    -0.180 SA
HETATM   20  H           1     -21.994  -5.150  -8.931  0.00  0.00     0.101 HD
ENDBRANCH  18  19
ENDBRANCH  17  18
BRANCH  17  21
HETATM   21  C           1     -19.823  -5.616  -7.151  0.00  0.00     0.197 C 
HETATM   22  O           1     -19.177  -4.690  -7.687  0.00  0.00    -0.646 OA
HETATM   23  O           1     -19.380  -6.784  -7.177  0.00  0.00    -0.646 OA
ENDBRANCH  17  21
ENDBRANCH  15  17
ENDBRANCH   1  13
TORSDOF 10
ENDMDL
MODEL 7
REMARK VINA RESULT:      -4.5      2.676      3.495
REMARK  10 active torsions:
REMARK  status: ('A' for Active; 'I' for Inactive)
REMARK    1  A    between atoms: C_1  and  C_2 
REMARK    2  A    between atoms: C_1  and  C_23 
REMARK    3  A    between atoms: C_1  and  N_20 
REMARK    4  A    between atoms: C_2  and  S_3 
REMARK    5  A    between atoms: N_11  and  C_18 
REMARK    6  A    between atoms: O_14  and  P_15 
REMARK    7  A    between atoms: P_15  and  O_16 
REMARK    8  A    between atoms: O_16  and  C_17 
REMARK    9  A    between atoms: C_17  and  C_18 
REMARK   10  A    between atoms: C_18  and  C_19 
REMARK       I    between atoms: C_19  and  N_20 
ROOT
HETATM    1  C           1     -21.575  -7.169  -5.348  0.00  0.00     0.298 C 
ENDROOT
BRANCH   1   2
HETATM    2  N           1     -22.580  -6.255  -4.711  0.00  0.00    -0.064 N 
HETATM    3  H           1     -22.124  -5.725  -3.934  0.00  0.00     0.275 HD
HETATM    4  H           1     -23.373  -6.819  -4.332  0.00  0.00     0.275 HD
HETATM    5  H           1     -22.941  -5.582  -5.425  0.00  0.00     0.275 HD
ENDBRANCH   1   2
BRANCH   1   6
HETATM    6  C           1     -20.562  -6.343  -6.130  0.00  0.00     0.224 C 
BRANCH   6   7
HETATM    7  O           1     -20.990  -6.212  -7.459  0.00  0.00    -0.287 OA
BRANCH   7   8
HETATM    8  P           1     -21.521  -4.750  -7.891  0.00  0.00     0.406 P 
HETATM    9  O           1     -22.791  -4.459  -7.187  0.00  0.00    -0.624 OA
HETATM   10  O           1     -21.748  -4.720  -9.353  0.00  0.00    -0.624 OA
BRANCH   8  11
HETATM   11  O           1     -20.420  -3.637  -7.494  0.00  0.00    -0.300 OA
HETATM   12  H           1     -19.859  -4.061  -6.868  0.00  0.00     0.223 HD
ENDBRANCH   8  11
ENDBRANCH   7   8
ENDBRANCH   6   7
ENDBRANCH   1   6
BRANCH   1  13
HETATM   13  C           1     -20.864  -7.957  -4.276  0.00  0.00     0.251 C 
HETATM   14  O           1     -19.719  -8.307  -4.443  0.00  0.00    -0.271 OA
HETATM   15  N           1     -21.514  -8.276  -3.114  0.00  0.00    -0.344 N 
HETATM   16  H           1     -22.472  -7.982  -2.974  0.00  0.00     0.163 HD
BRANCH  15  17
HETATM   17  C           1     -20.830  -9.033  -2.084  0.00  0.00     0.194 C 
BRANCH  17  18
HETATM   18  C           1     -20.914  -8.281  -0.763  0.00  0.00     0.106 C 
BRANCH  18  19
HETATM   19  S           1     -22.292  -7.102  -0.823  0.00  0.00    -0.180 SA
HETATM   20  H           1     -23.139  -7.837  -0.079  0.00  0.00     0.101 HD
ENDBRANCH  18  19
ENDBRANCH  17  18
BRANCH  17  21
HETATM   21  C           1     -21.484 -10.385  -1.937  0.00  0.00     0.197 C 
HETATM   22  O           1     -22.254 -10.807  -2.827  0.00  0.00    -0.646 OA
HETATM   23  O           1     -21.256 -11.082  -0.925  0.00  0.00    -0.646 OA
ENDBRANCH  17  21
ENDBRANCH  15  17
ENDBRANCH   1  13
TORSDOF 10
ENDMDL
MODEL 8
REMARK VINA RESULT:      -4.5      2.937      3.621
REMARK  10 active torsions:
REMARK  status: ('A' for Active; 'I' for Inactive)
REMARK    1  A    between atoms: C_1  and  C_2 
REMARK    2  A    between atoms: C_1  and  C_23 
REMARK    3  A    between atoms: C_1  and  N_20 
REMARK    4  A    between atoms: C_2  and  S_3 
REMARK    5  A    between atoms: N_11  and  C_18 
REMARK    6  A    between atoms: O_14  and  P_15 
REMARK    7  A    between atoms: P_15  and  O_16 
REMARK    8  A    between atoms: O_16  and  C_17 
REMARK    9  A    between atoms: C_17  and  C_18 
REMARK   10  A    between atoms: C_18  and  C_19 
REMARK       I    between atoms: C_19  and  N_20 
ROOT
HETATM    1  C           1     -21.658  -7.546  -5.277  0.00  0.00     0.298 C 
ENDROOT
BRANCH   1   2
HETATM    2  N           1     -22.471  -6.306  -5.050  0.00  0.00    -0.064 N 
HETATM    3  H           1     -23.105  -6.151  -5.867  0.00  0.00     0.275 HD
HETATM    4  H           1     -21.832  -5.485  -4.944  0.00  0.00     0.275 HD
HETATM    5  H           1     -23.042  -6.416  -4.182  0.00  0.00     0.275 HD
ENDBRANCH   1   2
BRANCH   1   6
HETATM    6  C           1     -20.208  -7.163  -5.540  0.00  0.00     0.224 C 
BRANCH   6   7
HETATM    7  O           1     -20.104  -6.571  -6.807  0.00  0.00    -0.287 OA
BRANCH   7   8
HETATM    8  P           1     -20.111  -4.957  -6.838  0.00  0.00     0.406 P 
HETATM    9  O           1     -21.354  -4.482  -7.486  0.00  0.00    -0.624 OA
HETATM   10  O           1     -18.939  -4.473  -7.601  0.00  0.00    -0.624 OA
BRANCH   8  11
HETATM   11  O           1     -20.041  -4.388  -5.327  0.00  0.00    -0.300 OA
HETATM   12  H           1     -19.124  -4.364  -5.118  0.00  0.00     0.223 HD
ENDBRANCH   8  11
ENDBRANCH   7   8
ENDBRANCH   6   7
ENDBRANCH   1   6
BRANCH   1  13
HETATM   13  C           1     -21.733  -8.425  -4.052  0.00  0.00     0.251 C 
HETATM   14  O           1     -21.947  -9.609  -4.171  0.00  0.00    -0.271 OA
HETATM   15  N           1     -21.559  -7.882  -2.807  0.00  0.00    -0.344 N 
HETATM   16  H           1     -21.379  -6.891  -2.708  0.00  0.00     0.163 HD
BRANCH  15  17
HETATM   17  C           1     -21.631  -8.728  -1.632  0.00  0.00     0.194 C 
BRANCH  17  18
HETATM   18  C           1     -20.241  -9.256  -1.302  0.00  0.00     0.106 C 
BRANCH  18  19
HETATM   19  S           1     -20.290 -11.068  -1.204  0.00  0.00    -0.180 SA
HETATM   20  H           1     -19.881 -11.288  -2.467  0.00  0.00     0.101 HD
ENDBRANCH  18  19
ENDBRANCH  17  18
BRANCH  17  21
HETATM   21  C           1     -22.154  -7.924  -0.467  0.00  0.00     0.197 C 
HETATM   22  O           1     -21.974  -8.328   0.703  0.00  0.00    -0.646 OA
HETATM   23  O           1     -22.766  -6.854  -0.671  0.00  0.00    -0.646 OA
ENDBRANCH  17  21
ENDBRANCH  15  17
ENDBRANCH   1  13
TORSDOF 10
ENDMDL
MODEL 9
REMARK VINA RESULT:      -4.4      3.431      4.628
REMARK  10 active torsions:
REMARK  status: ('A' for Active; 'I' for Inactive)
REMARK    1  A    between atoms: C_1  and  C_2 
REMARK    2  A    between atoms: C_1  and  C_23 
REMARK    3  A    between atoms: C_1  and  N_20 
REMARK    4  A    between atoms: C_2  and  S_3 
REMARK    5  A    between atoms: N_11  and  C_18 
REMARK    6  A    between atoms: O_14  and  P_15 
REMARK    7  A    between atoms: P_15  and  O_16 
REMARK    8  A    between atoms: O_16  and  C_17 
REMARK    9  A    between atoms: C_17  and  C_18 
REMARK   10  A    between atoms: C_18  and  C_19 
REMARK       I    between atoms: C_19  and  N_20 
ROOT
HETATM    1  C           1     -21.932  -6.570  -3.351  0.00  0.00     0.298 C 
ENDROOT
BRANCH   1   2
HETATM    2  N           1     -22.307  -5.859  -2.084  0.00  0.00    -0.064 N 
HETATM    3  H           1     -21.476  -5.341  -1.717  0.00  0.00     0.275 HD
HETATM    4  H           1     -22.625  -6.557  -1.374  0.00  0.00     0.275 HD
HETATM    5  H           1     -23.080  -5.184  -2.278  0.00  0.00     0.275 HD
ENDBRANCH   1   2
BRANCH   1   6
HETATM    6  C           1     -20.922  -5.732  -4.123  0.00  0.00     0.224 C 
BRANCH   6   7
HETATM    7  O           1     -21.431  -5.441  -5.396  0.00  0.00    -0.287 OA
BRANCH   7   8
HETATM    8  P           1     -20.449  -5.749  -6.640  0.00  0.00     0.406 P 
HETATM    9  O           1     -19.384  -4.723  -6.694  0.00  0.00    -0.624 OA
HETATM   10  O           1     -21.225  -5.724  -7.899  0.00  0.00    -0.624 OA
BRANCH   8  11
HETATM   11  O           1     -19.780  -7.208  -6.450  0.00  0.00    -0.300 OA
HETATM   12  H           1     -19.960  -7.444  -5.557  0.00  0.00     0.223 HD
ENDBRANCH   8  11
ENDBRANCH   7   8
ENDBRANCH   6   7
ENDBRANCH   1   6
BRANCH   1  13
HETATM   13  C           1     -21.325  -7.909  -3.014  0.00  0.00     0.251 C 
HETATM   14  O           1     -20.464  -8.377  -3.721  0.00  0.00    -0.271 OA
HETATM   15  N           1     -21.749  -8.595  -1.908  0.00  0.00    -0.344 N 
HETATM   16  H           1     -22.470  -8.204  -1.315  0.00  0.00     0.163 HD
BRANCH  15  17
HETATM   17  C           1     -21.165  -9.883  -1.585  0.00  0.00     0.194 C 
BRANCH  17  18
HETATM   18  C           1     -21.061 -10.026  -0.072  0.00  0.00     0.106 C 
BRANCH  18  19
HETATM   19  S           1     -21.550  -8.467   0.719  0.00  0.00    -0.180 SA
HETATM   20  H           1     -22.621  -8.965   1.362  0.00  0.00     0.101 HD
ENDBRANCH  18  19
ENDBRANCH  17  18
BRANCH  17  21
HETATM   21  C           1     -22.037 -10.983  -2.137  0.00  0.00     0.197 C 
HETATM   22  O           1     -23.258 -11.006  -1.869  0.00  0.00    -0.646 OA
HETATM   23  O           1     -21.539 -11.871  -2.861  0.00  0.00    -0.646 OA
ENDBRANCH  17  21
ENDBRANCH  15  17
ENDBRANCH   1  13
TORSDOF 10
ENDMDL
