MODEL 1
REMARK VINA RESULT:      -5.0      0.000      0.000
REMARK  10 active torsions:
REMARK  status: ('A' for Active; 'I' for Inactive)
REMARK    1  A    between atoms: C_1  and  C_2 
REMARK    2  A    between atoms: C_2  and  C_3 
REMARK    3  A    between atoms: C_2  and  N_8 
REMARK    4  A    between atoms: C_3  and  C_4 
REMARK    5  A    between atoms: C_4  and  C_11 
REMARK    6  A    between atoms: C_5  and  C_6 
REMARK    7  A    between atoms: C_5  and  Se_23 
REMARK    8  A    between atoms: C_6  and  C_7 
REMARK    9  A    between atoms: C_6  and  N_22 
REMARK       I    between atoms: C_7  and  N_8 
REMARK   10  A    between atoms: C_11  and  N_12 
ROOT
HETATM    1  C           1     -22.163  -4.238  -7.629  0.00  0.00     0.249 C 
HETATM    2  N           1     -23.173  -4.413  -8.536  0.00  0.00    -0.345 N 
HETATM    3  H           1     -23.936  -5.045  -8.328  0.00  0.00     0.163 HD
HETATM    4  O           1     -21.253  -3.484  -7.877  0.00  0.00    -0.271 OA
ENDROOT
BRANCH   2   5
HETATM    5  C           1     -23.151  -3.692  -9.794  0.00  0.00     0.185 C 
BRANCH   5   6
HETATM    6  C           1     -24.560  -3.319 -10.184  0.00  0.00     0.196 C 
HETATM    7  O           1     -24.987  -3.598 -11.325  0.00  0.00    -0.646 OA
HETATM    8  O           1     -25.300  -2.732  -9.365  0.00  0.00    -0.646 OA
ENDBRANCH   5   6
BRANCH   5   9
HETATM    9  C           1     -22.542  -4.577 -10.874  0.00  0.00     0.038 C 
BRANCH   9  10
HETATM   10  C           1     -21.601  -3.749 -11.738  0.00  0.00     0.030 C 
BRANCH  10  11
HETATM   11  C           1     -20.248  -3.633 -11.049  0.00  0.00     0.230 C 
BRANCH  11  12
HETATM   12  N           1     -19.940  -4.914 -10.332  0.00  0.00    -0.079 N 
HETATM   13  H           1     -19.718  -5.660 -11.030  0.00  0.00     0.274 HD
HETATM   14  H           1     -19.119  -4.772  -9.702  0.00  0.00     0.274 HD
HETATM   15  H           1     -20.769  -5.204  -9.765  0.00  0.00     0.274 HD
ENDBRANCH  11  12
ENDBRANCH  10  11
ENDBRANCH   9  10
ENDBRANCH   5   9
ENDBRANCH   2   5
BRANCH   1  16
HETATM   16  C           1     -22.187  -4.988  -6.320  0.00  0.00     0.274 C 
BRANCH  16  17
HETATM   17  C           1     -21.305  -6.226  -6.427  0.00  0.00     0.045 C 
BRANCH  17  18
HETATM   18 Se           1     -21.637  -7.395  -4.903  0.00  0.00     0.000 Se
HETATM   19  H           1     -20.476  -6.916  -4.135  0.00  0.00     0.000 HD
ENDBRANCH  17  18
ENDBRANCH  16  17
BRANCH  16  20
HETATM   20  N           1     -23.594  -5.404  -6.007  0.00  0.00    -0.067 N 
HETATM   21  H           1     -23.883  -6.173  -6.653  0.00  0.00     0.275 HD
HETATM   22  H           1     -23.645  -5.740  -5.019  0.00  0.00     0.275 HD
HETATM   23  H           1     -24.233  -4.587  -6.131  0.00  0.00     0.275 HD
ENDBRANCH  16  20
ENDBRANCH   1  16
TORSDOF 10
ENDMDL
MODEL 2
REMARK VINA RESULT:      -4.7      2.833      5.924
REMARK  10 active torsions:
REMARK  status: ('A' for Active; 'I' for Inactive)
REMARK    1  A    between atoms: C_1  and  C_2 
REMARK    2  A    between atoms: C_2  and  C_3 
REMARK    3  A    between atoms: C_2  and  N_8 
REMARK    4  A    between atoms: C_3  and  C_4 
REMARK    5  A    between atoms: C_4  and  C_11 
REMARK    6  A    between atoms: C_5  and  C_6 
REMARK    7  A    between atoms: C_5  and  Se_23 
REMARK    8  A    between atoms: C_6  and  C_7 
REMARK    9  A    between atoms: C_6  and  N_22 
REMARK       I    between atoms: C_7  and  N_8 
REMARK   10  A    between atoms: C_11  and  N_12 
ROOT
HETATM    1  C           1     -22.370  -4.105  -8.174  0.00  0.00     0.249 C 
HETATM    2  N           1     -22.113  -5.261  -7.488  0.00  0.00    -0.345 N 
HETATM    3  H           1     -22.526  -6.133  -7.793  0.00  0.00     0.163 HD
HETATM    4  O           1     -21.877  -3.064  -7.810  0.00  0.00    -0.271 OA
ENDROOT
BRANCH   2   5
HETATM    5  C           1     -21.249  -5.236  -6.324  0.00  0.00     0.185 C 
BRANCH   5   6
HETATM    6  C           1     -19.850  -5.631  -6.728  0.00  0.00     0.196 C 
HETATM    7  O           1     -19.578  -6.831  -6.946  0.00  0.00    -0.646 OA
HETATM    8  O           1     -18.964  -4.757  -6.847  0.00  0.00    -0.646 OA
ENDBRANCH   5   6
BRANCH   5   9
HETATM    9  C           1     -21.774  -6.218  -5.283  0.00  0.00     0.038 C 
BRANCH   9  10
HETATM   10  C           1     -21.034  -6.007  -3.969  0.00  0.00     0.030 C 
BRANCH  10  11
HETATM   11  C           1     -21.714  -6.811  -2.868  0.00  0.00     0.230 C 
BRANCH  11  12
HETATM   12  N           1     -22.353  -5.874  -1.887  0.00  0.00    -0.079 N 
HETATM   13  H           1     -22.451  -4.928  -2.320  0.00  0.00     0.274 HD
HETATM   14  H           1     -23.298  -6.236  -1.625  0.00  0.00     0.274 HD
HETATM   15  H           1     -21.756  -5.806  -1.031  0.00  0.00     0.274 HD
ENDBRANCH  11  12
ENDBRANCH  10  11
ENDBRANCH   9  10
ENDBRANCH   5   9
ENDBRANCH   2   5
BRANCH   1  16
HETATM   16  C           1     -23.269  -4.131  -9.386  0.00  0.00     0.274 C 
BRANCH  16  17
HETATM   17  C           1     -22.577  -3.431 -10.548  0.00  0.00     0.045 C 
BRANCH  17  18
HETATM   18 Se           1     -20.853  -4.277 -10.883  0.00  0.00     0.000 Se
HETATM   19  H           1     -20.071  -3.191 -10.270  0.00  0.00     0.000 HD
ENDBRANCH  17  18
ENDBRANCH  16  17
BRANCH  16  20
HETATM   20  N           1     -24.554  -3.423  -9.071  0.00  0.00    -0.067 N 
HETATM   21  H           1     -25.079  -3.958  -8.343  0.00  0.00     0.275 HD
HETATM   22  H           1     -24.343  -2.463  -8.714  0.00  0.00     0.275 HD
HETATM   23  H           1     -25.134  -3.353  -9.937  0.00  0.00     0.275 HD
ENDBRANCH  16  20
ENDBRANCH   1  16
TORSDOF 10
ENDMDL
MODEL 3
REMARK VINA RESULT:      -4.7      2.987      4.099
REMARK  10 active torsions:
REMARK  status: ('A' for Active; 'I' for Inactive)
REMARK    1  A    between atoms: C_1  and  C_2 
REMARK    2  A    between atoms: C_2  and  C_3 
REMARK    3  A    between atoms: C_2  and  N_8 
REMARK    4  A    between atoms: C_3  and  C_4 
REMARK    5  A    between atoms: C_4  and  C_11 
REMARK    6  A    between atoms: C_5  and  C_6 
REMARK    7  A    between atoms: C_5  and  Se_23 
REMARK    8  A    between atoms: C_6  and  C_7 
REMARK    9  A    between atoms: C_6  and  N_22 
REMARK       I    between atoms: C_7  and  N_8 
REMARK   10  A    between atoms: C_11  and  N_12 
ROOT
HETATM    1  C           1     -21.160  -6.481  -5.836  0.00  0.00     0.249 C 
HETATM    2  N           1     -21.319  -5.249  -6.410  0.00  0.00    -0.345 N 
HETATM    3  H           1     -21.349  -4.420  -5.830  0.00  0.00     0.163 HD
HETATM    4  O           1     -21.124  -7.470  -6.529  0.00  0.00    -0.271 OA
ENDROOT
BRANCH   2   5
HETATM    5  C           1     -21.443  -5.131  -7.850  0.00  0.00     0.185 C 
BRANCH   5   6
HETATM    6  C           1     -20.112  -4.735  -8.439  0.00  0.00     0.196 C 
HETATM    7  O           1     -19.201  -4.310  -7.695  0.00  0.00    -0.646 OA
HETATM    8  O           1     -19.918  -4.833  -9.670  0.00  0.00    -0.646 OA
ENDBRANCH   5   6
BRANCH   5   9
HETATM    9  C           1     -22.483  -4.068  -8.184  0.00  0.00     0.038 C 
BRANCH   9  10
HETATM   10  C           1     -23.300  -4.517  -9.387  0.00  0.00     0.030 C 
BRANCH  10  11
HETATM   11  C           1     -24.126  -3.347  -9.906  0.00  0.00     0.230 C 
BRANCH  11  12
HETATM   12  N           1     -25.584  -3.633  -9.699  0.00  0.00    -0.079 N 
HETATM   13  H           1     -26.087  -2.743  -9.483  0.00  0.00     0.274 HD
HETATM   14  H           1     -25.982  -4.055 -10.568  0.00  0.00     0.274 HD
HETATM   15  H           1     -25.698  -4.300  -8.903  0.00  0.00     0.274 HD
ENDBRANCH  11  12
ENDBRANCH  10  11
ENDBRANCH   9  10
ENDBRANCH   5   9
ENDBRANCH   2   5
BRANCH   1  16
HETATM   16  C           1     -21.030  -6.603  -4.338  0.00  0.00     0.274 C 
BRANCH  16  17
HETATM   17  C           1     -20.773  -8.059  -3.967  0.00  0.00     0.045 C 
BRANCH  17  18
HETATM   18 Se           1     -20.434  -8.191  -2.052  0.00  0.00     0.000 Se
HETATM   19  H           1     -20.541  -6.743  -1.816  0.00  0.00     0.000 HD
ENDBRANCH  17  18
ENDBRANCH  16  17
BRANCH  16  20
HETATM   20  N           1     -22.299  -6.139  -3.686  0.00  0.00    -0.067 N 
HETATM   21  H           1     -22.243  -5.112  -3.504  0.00  0.00     0.275 HD
HETATM   22  H           1     -23.107  -6.338  -4.318  0.00  0.00     0.275 HD
HETATM   23  H           1     -22.431  -6.646  -2.782  0.00  0.00     0.275 HD
ENDBRANCH  16  20
ENDBRANCH   1  16
TORSDOF 10
ENDMDL
MODEL 4
REMARK VINA RESULT:      -4.6      3.933      6.903
REMARK  10 active torsions:
REMARK  status: ('A' for Active; 'I' for Inactive)
REMARK    1  A    between atoms: C_1  and  C_2 
REMARK    2  A    between atoms: C_2  and  C_3 
REMARK    3  A    between atoms: C_2  and  N_8 
REMARK    4  A    between atoms: C_3  and  C_4 
REMARK    5  A    between atoms: C_4  and  C_11 
REMARK    6  A    between atoms: C_5  and  C_6 
REMARK    7  A    between atoms: C_5  and  Se_23 
REMARK    8  A    between atoms: C_6  and  C_7 
REMARK    9  A    between atoms: C_6  and  N_22 
REMARK       I    between atoms: C_7  and  N_8 
REMARK   10  A    between atoms: C_11  and  N_12 
ROOT
HETATM    1  C           1     -21.006  -5.164  -6.737  0.00  0.00     0.249 C 
HETATM    2  N           1     -21.241  -6.432  -6.280  0.00  0.00    -0.345 N 
HETATM    3  H           1     -21.728  -7.099  -6.865  0.00  0.00     0.163 HD
HETATM    4  O           1     -20.424  -4.368  -6.038  0.00  0.00    -0.271 OA
ENDROOT
BRANCH   2   5
HETATM    5  C           1     -20.792  -6.821  -4.957  0.00  0.00     0.185 C 
BRANCH   5   6
HETATM    6  C           1     -20.253  -8.229  -5.003  0.00  0.00     0.196 C 
HETATM    7  O           1     -20.764  -9.117  -4.286  0.00  0.00    -0.646 OA
HETATM    8  O           1     -19.297  -8.508  -5.758  0.00  0.00    -0.646 OA
ENDBRANCH   5   6
BRANCH   5   9
HETATM    9  C           1     -21.963  -6.755  -3.985  0.00  0.00     0.038 C 
BRANCH   9  10
HETATM   10  C           1     -21.522  -6.061  -2.704  0.00  0.00     0.030 C 
BRANCH  10  11
HETATM   11  C           1     -22.149  -6.761  -1.505  0.00  0.00     0.230 C 
BRANCH  11  12
HETATM   12  N           1     -21.813  -8.222  -1.547  0.00  0.00    -0.079 N 
HETATM   13  H           1     -20.879  -8.353  -1.996  0.00  0.00     0.274 HD
HETATM   14  H           1     -21.786  -8.601  -0.574  0.00  0.00     0.274 HD
HETATM   15  H           1     -22.540  -8.731  -2.100  0.00  0.00     0.274 HD
ENDBRANCH  11  12
ENDBRANCH  10  11
ENDBRANCH   9  10
ENDBRANCH   5   9
ENDBRANCH   2   5
BRANCH   1  16
HETATM   16  C           1     -21.473  -4.760  -8.114  0.00  0.00     0.274 C 
BRANCH  16  17
HETATM   17  C           1     -20.265  -4.458  -8.993  0.00  0.00     0.045 C 
BRANCH  17  18
HETATM   18 Se           1     -20.857  -4.124 -10.819  0.00  0.00     0.000 Se
HETATM   19  H           1     -19.533  -3.687 -11.291  0.00  0.00     0.000 HD
ENDBRANCH  17  18
ENDBRANCH  16  17
BRANCH  16  20
HETATM   20  N           1     -22.333  -3.536  -8.011  0.00  0.00    -0.067 N 
HETATM   21  H           1     -22.914  -3.588  -7.144  0.00  0.00     0.275 HD
HETATM   22  H           1     -21.725  -2.686  -7.973  0.00  0.00     0.275 HD
HETATM   23  H           1     -22.959  -3.479  -8.847  0.00  0.00     0.275 HD
ENDBRANCH  16  20
ENDBRANCH   1  16
TORSDOF 10
ENDMDL
MODEL 5
REMARK VINA RESULT:      -4.3      4.287      7.007
REMARK  10 active torsions:
REMARK  status: ('A' for Active; 'I' for Inactive)
REMARK    1  A    between atoms: C_1  and  C_2 
REMARK    2  A    between atoms: C_2  and  C_3 
REMARK    3  A    between atoms: C_2  and  N_8 
REMARK    4  A    between atoms: C_3  and  C_4 
REMARK    5  A    between atoms: C_4  and  C_11 
REMARK    6  A    between atoms: C_5  and  C_6 
REMARK    7  A    between atoms: C_5  and  Se_23 
REMARK    8  A    between atoms: C_6  and  C_7 
REMARK    9  A    between atoms: C_6  and  N_22 
REMARK       I    between atoms: C_7  and  N_8 
REMARK   10  A    between atoms: C_11  and  N_12 
ROOT
HETATM    1  C           1     -21.377  -5.630  -5.638  0.00  0.00     0.249 C 
HETATM    2  N           1     -20.782  -6.526  -4.792  0.00  0.00    -0.345 N 
HETATM    3  H           1     -19.772  -6.576  -4.737  0.00  0.00     0.163 HD
HETATM    4  O           1     -22.582  -5.570  -5.704  0.00  0.00    -0.271 OA
ENDROOT
BRANCH   2   5
HETATM    5  C           1     -21.597  -7.403  -3.974  0.00  0.00     0.185 C 
BRANCH   5   6
HETATM    6  C           1     -21.651  -6.868  -2.564  0.00  0.00     0.196 C 
HETATM    7  O           1     -20.944  -7.384  -1.672  0.00  0.00    -0.646 OA
HETATM    8  O           1     -22.402  -5.907  -2.289  0.00  0.00    -0.646 OA
ENDBRANCH   5   6
BRANCH   5   9
HETATM    9  C           1     -20.987  -8.799  -3.965  0.00  0.00     0.038 C 
BRANCH   9  10
HETATM   10  C           1     -19.644  -8.771  -4.681  0.00  0.00     0.030 C 
BRANCH  10  11
HETATM   11  C           1     -18.555  -9.265  -3.738  0.00  0.00     0.230 C 
BRANCH  11  12
HETATM   12  N           1     -19.170  -9.664  -2.429  0.00  0.00    -0.079 N 
HETATM   13  H           1     -20.056  -9.130  -2.283  0.00  0.00     0.274 HD
HETATM   14  H           1     -19.378 -10.687  -2.439  0.00  0.00     0.274 HD
HETATM   15  H           1     -18.503  -9.450  -1.652  0.00  0.00     0.274 HD
ENDBRANCH  11  12
ENDBRANCH  10  11
ENDBRANCH   9  10
ENDBRANCH   5   9
ENDBRANCH   2   5
BRANCH   1  16
HETATM   16  C           1     -20.529  -4.718  -6.489  0.00  0.00     0.274 C 
BRANCH  16  17
HETATM   17  C           1     -21.423  -3.711  -7.203  0.00  0.00     0.045 C 
BRANCH  17  18
HETATM   18 Se           1     -21.798  -4.341  -9.009  0.00  0.00     0.000 Se
HETATM   19  H           1     -20.635  -3.668  -9.609  0.00  0.00     0.000 HD
ENDBRANCH  17  18
ENDBRANCH  16  17
BRANCH  16  20
HETATM   20  N           1     -19.784  -5.531  -7.506  0.00  0.00    -0.067 N 
HETATM   21  H           1     -20.418  -6.261  -7.902  0.00  0.00     0.275 HD
HETATM   22  H           1     -19.448  -4.906  -8.273  0.00  0.00     0.275 HD
HETATM   23  H           1     -18.964  -5.993  -7.049  0.00  0.00     0.275 HD
ENDBRANCH  16  20
ENDBRANCH   1  16
TORSDOF 10
ENDMDL
MODEL 6
REMARK VINA RESULT:      -4.3      2.205      2.891
REMARK  10 active torsions:
REMARK  status: ('A' for Active; 'I' for Inactive)
REMARK    1  A    between atoms: C_1  and  C_2 
REMARK    2  A    between atoms: C_2  and  C_3 
REMARK    3  A    between atoms: C_2  and  N_8 
REMARK    4  A    between atoms: C_3  and  C_4 
REMARK    5  A    between atoms: C_4  and  C_11 
REMARK    6  A    between atoms: C_5  and  C_6 
REMARK    7  A    between atoms: C_5  and  Se_23 
REMARK    8  A    between atoms: C_6  and  C_7 
REMARK    9  A    between atoms: C_6  and  N_22 
REMARK       I    between atoms: C_7  and  N_8 
REMARK   10  A    between atoms: C_11  and  N_12 
ROOT
HETATM    1  C           1     -20.904  -5.519  -5.278  0.00  0.00     0.249 C 
HETATM    2  N           1     -21.667  -5.699  -6.400  0.00  0.00    -0.345 N 
HETATM    3  H           1     -22.223  -6.538  -6.505  0.00  0.00     0.163 HD
HETATM    4  O           1     -20.241  -4.518  -5.153  0.00  0.00    -0.271 OA
ENDROOT
BRANCH   2   5
HETATM    5  C           1     -21.679  -4.687  -7.439  0.00  0.00     0.185 C 
BRANCH   5   6
HETATM    6  C           1     -23.101  -4.268  -7.716  0.00  0.00     0.196 C 
HETATM    7  O           1     -23.974  -4.396  -6.829  0.00  0.00    -0.646 OA
HETATM    8  O           1     -23.407  -3.792  -8.830  0.00  0.00    -0.646 OA
ENDBRANCH   5   6
BRANCH   5   9
HETATM    9  C           1     -21.060  -5.258  -8.709  0.00  0.00     0.038 C 
BRANCH   9  10
HETATM   10  C           1     -20.147  -4.216  -9.341  0.00  0.00     0.030 C 
BRANCH  10  11
HETATM   11  C           1     -20.405  -4.156 -10.840  0.00  0.00     0.230 C 
BRANCH  11  12
HETATM   12  N           1     -21.591  -3.277 -11.109  0.00  0.00    -0.079 N 
HETATM   13  H           1     -21.492  -2.836 -12.051  0.00  0.00     0.274 HD
HETATM   14  H           1     -22.463  -3.851 -11.083  0.00  0.00     0.274 HD
HETATM   15  H           1     -21.642  -2.530 -10.378  0.00  0.00     0.274 HD
ENDBRANCH  11  12
ENDBRANCH  10  11
ENDBRANCH   9  10
ENDBRANCH   5   9
ENDBRANCH   2   5
BRANCH   1  16
HETATM   16  C           1     -20.893  -6.572  -4.198  0.00  0.00     0.274 C 
BRANCH  16  17
HETATM   17  C           1     -21.329  -7.909  -4.785  0.00  0.00     0.045 C 
BRANCH  17  18
HETATM   18 Se           1     -21.367  -9.256  -3.377  0.00  0.00     0.000 Se
HETATM   19  H           1     -20.623  -8.433  -2.410  0.00  0.00     0.000 HD
ENDBRANCH  17  18
ENDBRANCH  16  17
BRANCH  16  20
HETATM   20  N           1     -21.839  -6.176  -3.103  0.00  0.00    -0.067 N 
HETATM   21  H           1     -22.805  -6.495  -3.343  0.00  0.00     0.275 HD
HETATM   22  H           1     -21.538  -6.619  -2.206  0.00  0.00     0.275 HD
HETATM   23  H           1     -21.833  -5.136  -2.998  0.00  0.00     0.275 HD
ENDBRANCH  16  20
ENDBRANCH   1  16
TORSDOF 10
ENDMDL
MODEL 7
REMARK VINA RESULT:      -4.1      5.087      8.090
REMARK  10 active torsions:
REMARK  status: ('A' for Active; 'I' for Inactive)
REMARK    1  A    between atoms: C_1  and  C_2 
REMARK    2  A    between atoms: C_2  and  C_3 
REMARK    3  A    between atoms: C_2  and  N_8 
REMARK    4  A    between atoms: C_3  and  C_4 
REMARK    5  A    between atoms: C_4  and  C_11 
REMARK    6  A    between atoms: C_5  and  C_6 
REMARK    7  A    between atoms: C_5  and  Se_23 
REMARK    8  A    between atoms: C_6  and  C_7 
REMARK    9  A    between atoms: C_6  and  N_22 
REMARK       I    between atoms: C_7  and  N_8 
REMARK   10  A    between atoms: C_11  and  N_12 
ROOT
HETATM    1  C           1     -20.702  -7.116  -5.180  0.00  0.00     0.249 C 
HETATM    2  N           1     -20.730  -6.769  -3.856  0.00  0.00    -0.345 N 
HETATM    3  H           1     -20.370  -5.871  -3.561  0.00  0.00     0.163 HD
HETATM    4  O           1     -21.132  -8.189  -5.532  0.00  0.00    -0.271 OA
ENDROOT
BRANCH   2   5
HETATM    5  C           1     -21.274  -7.690  -2.877  0.00  0.00     0.185 C 
BRANCH   5   6
HETATM    6  C           1     -22.060  -6.918  -1.845  0.00  0.00     0.196 C 
HETATM    7  O           1     -22.601  -5.834  -2.155  0.00  0.00    -0.646 OA
HETATM    8  O           1     -22.171  -7.363  -0.683  0.00  0.00    -0.646 OA
ENDBRANCH   5   6
BRANCH   5   9
HETATM    9  C           1     -20.135  -8.436  -2.195  0.00  0.00     0.038 C 
BRANCH   9  10
HETATM   10  C           1     -20.382  -9.936  -2.289  0.00  0.00     0.030 C 
BRANCH  10  11
HETATM   11  C           1     -20.490 -10.522  -0.888  0.00  0.00     0.230 C 
BRANCH  11  12
HETATM   12  N           1     -21.893 -10.356  -0.383  0.00  0.00    -0.079 N 
HETATM   13  H           1     -21.898  -9.685   0.418  0.00  0.00     0.274 HD
HETATM   14  H           1     -22.497  -9.985  -1.150  0.00  0.00     0.274 HD
HETATM   15  H           1     -22.260 -11.281  -0.065  0.00  0.00     0.274 HD
ENDBRANCH  11  12
ENDBRANCH  10  11
ENDBRANCH   9  10
ENDBRANCH   5   9
ENDBRANCH   2   5
BRANCH   1  16
HETATM   16  C           1     -20.136  -6.158  -6.199  0.00  0.00     0.274 C 
BRANCH  16  17
HETATM   17  C           1     -20.338  -4.726  -5.718  0.00  0.00     0.045 C 
BRANCH  17  18
HETATM   18 Se           1     -21.265  -3.703  -7.094  0.00  0.00     0.000 Se
HETATM   19  H           1     -21.681  -2.629  -6.178  0.00  0.00     0.000 HD
ENDBRANCH  17  18
ENDBRANCH  16  17
BRANCH  16  20
HETATM   20  N           1     -20.840  -6.348  -7.510  0.00  0.00    -0.067 N 
HETATM   21  H           1     -21.834  -6.038  -7.421  0.00  0.00     0.275 HD
HETATM   22  H           1     -20.362  -5.782  -8.246  0.00  0.00     0.275 HD
HETATM   23  H           1     -20.813  -7.359  -7.775  0.00  0.00     0.275 HD
ENDBRANCH  16  20
ENDBRANCH   1  16
TORSDOF 10
ENDMDL
MODEL 8
REMARK VINA RESULT:      -4.1      7.087      8.952
REMARK  10 active torsions:
REMARK  status: ('A' for Active; 'I' for Inactive)
REMARK    1  A    between atoms: C_1  and  C_2 
REMARK    2  A    between atoms: C_2  and  C_3 
REMARK    3  A    between atoms: C_2  and  N_8 
REMARK    4  A    between atoms: C_3  and  C_4 
REMARK    5  A    between atoms: C_4  and  C_11 
REMARK    6  A    between atoms: C_5  and  C_6 
REMARK    7  A    between atoms: C_5  and  Se_23 
REMARK    8  A    between atoms: C_6  and  C_7 
REMARK    9  A    between atoms: C_6  and  N_22 
REMARK       I    between atoms: C_7  and  N_8 
REMARK   10  A    between atoms: C_11  and  N_12 
ROOT
HETATM    1  C           1     -21.000  -9.677  -3.830  0.00  0.00     0.249 C 
HETATM    2  N           1     -20.627  -8.603  -3.069  0.00  0.00    -0.345 N 
HETATM    3  H           1     -19.725  -8.169  -3.213  0.00  0.00     0.163 HD
HETATM    4  O           1     -22.078 -10.195  -3.658  0.00  0.00    -0.271 OA
ENDROOT
BRANCH   2   5
HETATM    5  C           1     -21.526  -8.087  -2.055  0.00  0.00     0.185 C 
BRANCH   5   6
HETATM    6  C           1     -21.788  -6.624  -2.314  0.00  0.00     0.196 C 
HETATM    7  O           1     -22.446  -5.951  -1.490  0.00  0.00    -0.646 OA
HETATM    8  O           1     -21.347  -6.084  -3.352  0.00  0.00    -0.646 OA
ENDBRANCH   5   6
BRANCH   5   9
HETATM    9  C           1     -20.890  -8.254  -0.681  0.00  0.00     0.038 C 
BRANCH   9  10
HETATM   10  C           1     -21.564  -9.403   0.055  0.00  0.00     0.030 C 
BRANCH  10  11
HETATM   11  C           1     -23.077  -9.267  -0.068  0.00  0.00     0.230 C 
BRANCH  11  12
HETATM   12  N           1     -23.532  -8.051   0.684  0.00  0.00    -0.079 N 
HETATM   13  H           1     -23.966  -8.343   1.589  0.00  0.00     0.274 HD
HETATM   14  H           1     -22.713  -7.433   0.875  0.00  0.00     0.274 HD
HETATM   15  H           1     -24.236  -7.532   0.112  0.00  0.00     0.274 HD
ENDBRANCH  11  12
ENDBRANCH  10  11
ENDBRANCH   9  10
ENDBRANCH   5   9
ENDBRANCH   2   5
BRANCH   1  16
HETATM   16  C           1     -20.064 -10.214  -4.886  0.00  0.00     0.274 C 
BRANCH  16  17
HETATM   17  C           1     -18.977  -9.186  -5.173  0.00  0.00     0.045 C 
BRANCH  17  18
HETATM   18 Se           1     -17.360 -10.098  -5.766  0.00  0.00     0.000 Se
HETATM   19  H           1     -17.686 -11.362  -5.086  0.00  0.00     0.000 HD
ENDBRANCH  17  18
ENDBRANCH  16  17
BRANCH  16  20
HETATM   20  N           1     -20.835 -10.489  -6.143  0.00  0.00    -0.067 N 
HETATM   21  H           1     -20.925 -11.521  -6.280  0.00  0.00     0.275 HD
HETATM   22  H           1     -21.786 -10.062  -6.069  0.00  0.00     0.275 HD
HETATM   23  H           1     -20.329 -10.073  -6.959  0.00  0.00     0.275 HD
ENDBRANCH  16  20
ENDBRANCH   1  16
TORSDOF 10
ENDMDL
MODEL 9
REMARK VINA RESULT:      -4.1      5.835      8.037
REMARK  10 active torsions:
REMARK  status: ('A' for Active; 'I' for Inactive)
REMARK    1  A    between atoms: C_1  and  C_2 
REMARK    2  A    between atoms: C_2  and  C_3 
REMARK    3  A    between atoms: C_2  and  N_8 
REMARK    4  A    between atoms: C_3  and  C_4 
REMARK    5  A    between atoms: C_4  and  C_11 
REMARK    6  A    between atoms: C_5  and  C_6 
REMARK    7  A    between atoms: C_5  and  Se_23 
REMARK    8  A    between atoms: C_6  and  C_7 
REMARK    9  A    between atoms: C_6  and  N_22 
REMARK       I    between atoms: C_7  and  N_8 
REMARK   10  A    between atoms: C_11  and  N_12 
ROOT
HETATM    1  C           1     -20.306  -9.638  -3.398  0.00  0.00     0.249 C 
HETATM    2  N           1     -20.303  -8.324  -3.779  0.00  0.00    -0.345 N 
HETATM    3  H           1     -19.447  -7.894  -4.106  0.00  0.00     0.163 HD
HETATM    4  O           1     -21.328 -10.152  -3.007  0.00  0.00    -0.271 OA
ENDROOT
BRANCH   2   5
HETATM    5  C           1     -21.526  -7.547  -3.714  0.00  0.00     0.185 C 
BRANCH   5   6
HETATM    6  C           1     -21.830  -6.975  -5.076  0.00  0.00     0.196 C 
HETATM    7  O           1     -22.671  -6.058  -5.195  0.00  0.00    -0.646 OA
HETATM    8  O           1     -21.239  -7.416  -6.086  0.00  0.00    -0.646 OA
ENDBRANCH   5   6
BRANCH   5   9
HETATM    9  C           1     -21.353  -6.413  -2.712  0.00  0.00     0.038 C 
BRANCH   9  10
HETATM   10  C           1     -22.326  -6.602  -1.557  0.00  0.00     0.030 C 
BRANCH  10  11
HETATM   11  C           1     -21.747  -7.600  -0.563  0.00  0.00     0.230 C 
BRANCH  11  12
HETATM   12  N           1     -22.607  -8.828  -0.527  0.00  0.00    -0.079 N 
HETATM   13  H           1     -22.022  -9.658  -0.279  0.00  0.00     0.274 HD
HETATM   14  H           1     -23.358  -8.706   0.188  0.00  0.00     0.274 HD
HETATM   15  H           1     -23.041  -8.977  -1.467  0.00  0.00     0.274 HD
ENDBRANCH  11  12
ENDBRANCH  10  11
ENDBRANCH   9  10
ENDBRANCH   5   9
ENDBRANCH   2   5
BRANCH   1  16
HETATM   16  C           1     -19.033 -10.446  -3.466  0.00  0.00     0.274 C 
BRANCH  16  17
HETATM   17  C           1     -17.924  -9.598  -4.075  0.00  0.00     0.045 C 
BRANCH  17  18
HETATM   18 Se           1     -16.339  -9.691  -2.944  0.00  0.00     0.000 Se
HETATM   19  H           1     -16.482  -8.318  -2.432  0.00  0.00     0.000 HD
ENDBRANCH  17  18
ENDBRANCH  16  17
BRANCH  16  20
HETATM   20  N           1     -19.257 -11.661  -4.318  0.00  0.00    -0.067 N 
HETATM   21  H           1     -18.532 -11.699  -5.069  0.00  0.00     0.275 HD
HETATM   22  H           1     -19.191 -12.519  -3.724  0.00  0.00     0.275 HD
HETATM   23  H           1     -20.206 -11.610  -4.752  0.00  0.00     0.275 HD
ENDBRANCH  16  20
ENDBRANCH   1  16
TORSDOF 10
ENDMDL
