MODEL 1
REMARK VINA RESULT:      -5.9      0.000      0.000
REMARK  11 active torsions:
REMARK  status: ('A' for Active; 'I' for Inactive)
REMARK    1  A    between atoms: C_3  and  C_19 
REMARK    2  A    between atoms: C_3  and  C_17 
REMARK    3  A    between atoms: C_3  and  N_11 
REMARK    4  A    between atoms: Se_6  and  C_20 
REMARK    5  A    between atoms: N_7  and  C_8 
REMARK    6  A    between atoms: C_8  and  C_24 
REMARK       I    between atoms: C_10  and  N_11 
REMARK    7  A    between atoms: C_10  and  C_22 
REMARK    8  A    between atoms: N_16  and  C_22 
REMARK    9  A    between atoms: C_19  and  C_20 
REMARK   10  A    between atoms: C_22  and  C_23 
REMARK   11  A    between atoms: C_23  and  C_24 
ROOT
HETATM    1  H           1     -27.402  -6.935 -18.626  0.00  0.00     0.163 HD
HETATM    2  C           1     -25.364  -6.868 -18.978  0.00  0.00     0.249 C 
HETATM    3  N           1     -26.507  -6.635 -18.262  0.00  0.00    -0.345 N 
HETATM    4  O           1     -24.295  -6.510 -18.543  0.00  0.00    -0.271 OA
ENDROOT
BRANCH   2   5
HETATM    5  C           1     -25.438  -7.572 -20.310  0.00  0.00     0.274 C 
BRANCH   5   6
HETATM    6  N           1     -26.872  -7.863 -20.641  0.00  0.00    -0.067 N 
HETATM    7  H           1     -26.937  -8.232 -21.617  0.00  0.00     0.275 HD
HETATM    8  H           1     -27.433  -6.985 -20.561  0.00  0.00     0.275 HD
HETATM    9  H           1     -27.246  -8.576 -19.974  0.00  0.00     0.275 HD
ENDBRANCH   5   6
BRANCH   5  10
HETATM   10  C           1     -24.839  -6.682 -21.391  0.00  0.00     0.044 C 
BRANCH  10  11
HETATM   11  C           1     -24.095  -7.544 -22.404  0.00  0.00     0.030 C 
BRANCH  11  12
HETATM   12  C           1     -23.065  -8.401 -21.682  0.00  0.00     0.230 C 
BRANCH  12  13
HETATM   13  N           1     -22.533  -9.443 -22.621  0.00  0.00    -0.079 N 
HETATM   14  H           1     -23.064 -10.334 -22.491  0.00  0.00     0.274 HD
HETATM   15  H           1     -21.521  -9.608 -22.421  0.00  0.00     0.274 HD
HETATM   16  H           1     -22.645  -9.112 -23.607  0.00  0.00     0.274 HD
ENDBRANCH  12  13
ENDBRANCH  11  12
ENDBRANCH  10  11
ENDBRANCH   5  10
ENDBRANCH   2   5
BRANCH   3  17
HETATM   17  C           1     -26.434  -5.959 -16.982  0.00  0.00     0.185 C 
BRANCH  17  18
HETATM   18  C           1     -27.655  -5.063 -16.810  0.00  0.00     0.036 C 
BRANCH  18  19
HETATM   19  C           1     -28.596  -5.255 -17.992  0.00  0.00     0.003 C 
BRANCH  19  20
HETATM   20 Se           1     -30.256  -6.071 -17.376  0.00  0.00     0.000 Se
HETATM   21  C           1     -30.041  -7.694 -18.434  0.00  0.00     0.000 C 
ENDBRANCH  19  20
ENDBRANCH  18  19
ENDBRANCH  17  18
BRANCH  17  22
HETATM   22  C           1     -26.401  -6.982 -15.873  0.00  0.00     0.196 C 
HETATM   23  O           1     -25.305  -7.401 -15.442  0.00  0.00    -0.646 OA
HETATM   24  O           1     -27.469  -7.410 -15.385  0.00  0.00    -0.646 OA
ENDBRANCH  17  22
ENDBRANCH   3  17
TORSDOF 11
ENDMDL
MODEL 2
REMARK VINA RESULT:      -5.3      2.181      3.259
REMARK  11 active torsions:
REMARK  status: ('A' for Active; 'I' for Inactive)
REMARK    1  A    between atoms: C_3  and  C_19 
REMARK    2  A    between atoms: C_3  and  C_17 
REMARK    3  A    between atoms: C_3  and  N_11 
REMARK    4  A    between atoms: Se_6  and  C_20 
REMARK    5  A    between atoms: N_7  and  C_8 
REMARK    6  A    between atoms: C_8  and  C_24 
REMARK       I    between atoms: C_10  and  N_11 
REMARK    7  A    between atoms: C_10  and  C_22 
REMARK    8  A    between atoms: N_16  and  C_22 
REMARK    9  A    between atoms: C_19  and  C_20 
REMARK   10  A    between atoms: C_22  and  C_23 
REMARK   11  A    between atoms: C_23  and  C_24 
ROOT
HETATM    1  H           1     -27.559  -6.337 -17.980  0.00  0.00     0.163 HD
HETATM    2  C           1     -26.421  -6.991 -16.380  0.00  0.00     0.249 C 
HETATM    3  N           1     -27.587  -6.705 -17.037  0.00  0.00    -0.345 N 
HETATM    4  O           1     -26.454  -7.430 -15.255  0.00  0.00    -0.271 OA
ENDROOT
BRANCH   2   5
HETATM    5  C           1     -25.094  -6.759 -17.060  0.00  0.00     0.274 C 
BRANCH   5   6
HETATM    6  N           1     -24.140  -7.851 -16.678  0.00  0.00    -0.067 N 
HETATM    7  H           1     -24.318  -8.693 -17.273  0.00  0.00     0.275 HD
HETATM    8  H           1     -24.279  -8.099 -15.672  0.00  0.00     0.275 HD
HETATM    9  H           1     -23.159  -7.523 -16.824  0.00  0.00     0.275 HD
ENDBRANCH   5   6
BRANCH   5  10
HETATM   10  C           1     -25.290  -6.761 -18.570  0.00  0.00     0.044 C 
BRANCH  10  11
HETATM   11  C           1     -24.001  -7.208 -19.249  0.00  0.00     0.030 C 
BRANCH  11  12
HETATM   12  C           1     -24.328  -7.847 -20.591  0.00  0.00     0.230 C 
BRANCH  12  13
HETATM   13  N           1     -23.204  -8.751 -21.003  0.00  0.00    -0.079 N 
HETATM   14  H           1     -22.557  -8.234 -21.641  0.00  0.00     0.274 HD
HETATM   15  H           1     -23.592  -9.584 -21.501  0.00  0.00     0.274 HD
HETATM   16  H           1     -22.680  -9.064 -20.155  0.00  0.00     0.274 HD
ENDBRANCH  12  13
ENDBRANCH  11  12
ENDBRANCH  10  11
ENDBRANCH   5  10
ENDBRANCH   2   5
BRANCH   3  17
HETATM   17  C           1     -28.861  -6.929 -16.383  0.00  0.00     0.185 C 
BRANCH  17  18
HETATM   18  C           1     -29.393  -5.609 -15.841  0.00  0.00     0.036 C 
BRANCH  18  19
HETATM   19  C           1     -28.684  -4.452 -16.532  0.00  0.00     0.003 C 
BRANCH  19  20
HETATM   20 Se           1     -29.719  -3.890 -18.085  0.00  0.00     0.000 Se
HETATM   21  C           1     -31.437  -3.947 -17.166  0.00  0.00     0.000 C 
ENDBRANCH  19  20
ENDBRANCH  18  19
ENDBRANCH  17  18
BRANCH  17  22
HETATM   22  C           1     -29.844  -7.497 -17.377  0.00  0.00     0.196 C 
HETATM   23  O           1     -29.447  -8.267 -18.279  0.00  0.00    -0.646 OA
HETATM   24  O           1     -31.056  -7.199 -17.300  0.00  0.00    -0.646 OA
ENDBRANCH  17  22
ENDBRANCH   3  17
TORSDOF 11
ENDMDL
MODEL 3
REMARK VINA RESULT:      -5.2      2.196      2.835
REMARK  11 active torsions:
REMARK  status: ('A' for Active; 'I' for Inactive)
REMARK    1  A    between atoms: C_3  and  C_19 
REMARK    2  A    between atoms: C_3  and  C_17 
REMARK    3  A    between atoms: C_3  and  N_11 
REMARK    4  A    between atoms: Se_6  and  C_20 
REMARK    5  A    between atoms: N_7  and  C_8 
REMARK    6  A    between atoms: C_8  and  C_24 
REMARK       I    between atoms: C_10  and  N_11 
REMARK    7  A    between atoms: C_10  and  C_22 
REMARK    8  A    between atoms: N_16  and  C_22 
REMARK    9  A    between atoms: C_19  and  C_20 
REMARK   10  A    between atoms: C_22  and  C_23 
REMARK   11  A    between atoms: C_23  and  C_24 
ROOT
HETATM    1  H           1     -27.242  -7.067 -20.143  0.00  0.00     0.163 HD
HETATM    2  C           1     -25.946  -6.589 -18.603  0.00  0.00     0.249 C 
HETATM    3  N           1     -27.174  -6.786 -19.174  0.00  0.00    -0.345 N 
HETATM    4  O           1     -25.864  -6.254 -17.445  0.00  0.00    -0.271 OA
ENDROOT
BRANCH   2   5
HETATM    5  C           1     -24.693  -6.792 -19.420  0.00  0.00     0.274 C 
BRANCH   5   6
HETATM    6  N           1     -23.572  -7.212 -18.517  0.00  0.00    -0.067 N 
HETATM    7  H           1     -22.758  -7.525 -19.094  0.00  0.00     0.275 HD
HETATM    8  H           1     -23.891  -8.000 -17.908  0.00  0.00     0.275 HD
HETATM    9  H           1     -23.285  -6.405 -17.919  0.00  0.00     0.275 HD
ENDBRANCH   5   6
BRANCH   5  10
HETATM   10  C           1     -24.936  -7.874 -20.464  0.00  0.00     0.044 C 
BRANCH  10  11
HETATM   11  C           1     -24.509  -7.363 -21.834  0.00  0.00     0.030 C 
BRANCH  11  12
HETATM   12  C           1     -23.422  -8.268 -22.398  0.00  0.00     0.230 C 
BRANCH  12  13
HETATM   13  N           1     -22.826  -9.085 -21.291  0.00  0.00    -0.079 N 
HETATM   14  H           1     -21.877  -8.714 -21.056  0.00  0.00     0.274 HD
HETATM   15  H           1     -22.744 -10.081 -21.598  0.00  0.00     0.274 HD
HETATM   16  H           1     -23.440  -9.029 -20.447  0.00  0.00     0.274 HD
ENDBRANCH  12  13
ENDBRANCH  11  12
ENDBRANCH  10  11
ENDBRANCH   5  10
ENDBRANCH   2   5
BRANCH   3  17
HETATM   17  C           1     -28.377  -6.591 -18.389  0.00  0.00     0.185 C 
BRANCH  17  18
HETATM   18  C           1     -28.996  -5.242 -18.732  0.00  0.00     0.036 C 
BRANCH  18  19
HETATM   19  C           1     -29.250  -4.458 -17.451  0.00  0.00     0.003 C 
BRANCH  19  20
HETATM   20 Se           1     -30.902  -3.439 -17.630  0.00  0.00     0.000 Se
HETATM   21  C           1     -32.011  -4.768 -16.734  0.00  0.00     0.000 C 
ENDBRANCH  19  20
ENDBRANCH  18  19
ENDBRANCH  17  18
BRANCH  17  22
HETATM   22  C           1     -29.363  -7.690 -18.698  0.00  0.00     0.196 C 
HETATM   23  O           1     -30.379  -7.839 -17.984  0.00  0.00    -0.646 OA
HETATM   24  O           1     -29.167  -8.452 -19.670  0.00  0.00    -0.646 OA
ENDBRANCH  17  22
ENDBRANCH   3  17
TORSDOF 11
ENDMDL
MODEL 4
REMARK VINA RESULT:      -5.2     12.811     15.081
REMARK  11 active torsions:
REMARK  status: ('A' for Active; 'I' for Inactive)
REMARK    1  A    between atoms: C_3  and  C_19 
REMARK    2  A    between atoms: C_3  and  C_17 
REMARK    3  A    between atoms: C_3  and  N_11 
REMARK    4  A    between atoms: Se_6  and  C_20 
REMARK    5  A    between atoms: N_7  and  C_8 
REMARK    6  A    between atoms: C_8  and  C_24 
REMARK       I    between atoms: C_10  and  N_11 
REMARK    7  A    between atoms: C_10  and  C_22 
REMARK    8  A    between atoms: N_16  and  C_22 
REMARK    9  A    between atoms: C_19  and  C_20 
REMARK   10  A    between atoms: C_22  and  C_23 
REMARK   11  A    between atoms: C_23  and  C_24 
ROOT
HETATM    1  H           1     -19.855  -6.790  -4.826  0.00  0.00     0.163 HD
HETATM    2  C           1     -21.432  -5.764  -5.689  0.00  0.00     0.249 C 
HETATM    3  N           1     -20.860  -6.668  -4.836  0.00  0.00    -0.345 N 
HETATM    4  O           1     -22.631  -5.618  -5.700  0.00  0.00    -0.271 OA
ENDROOT
BRANCH   2   5
HETATM    5  C           1     -20.564  -4.948  -6.615  0.00  0.00     0.274 C 
BRANCH   5   6
HETATM    6  N           1     -19.993  -5.839  -7.678  0.00  0.00    -0.067 N 
HETATM    7  H           1     -18.950  -5.830  -7.617  0.00  0.00     0.275 HD
HETATM    8  H           1     -20.291  -5.495  -8.619  0.00  0.00     0.275 HD
HETATM    9  H           1     -20.342  -6.815  -7.538  0.00  0.00     0.275 HD
ENDBRANCH   5   6
BRANCH   5  10
HETATM   10  C           1     -21.403  -3.855  -7.266  0.00  0.00     0.044 C 
BRANCH  10  11
HETATM   11  C           1     -21.478  -4.100  -8.768  0.00  0.00     0.030 C 
BRANCH  11  12
HETATM   12  C           1     -22.927  -4.339  -9.172  0.00  0.00     0.230 C 
BRANCH  12  13
HETATM   13  N           1     -23.826  -4.046  -8.008  0.00  0.00    -0.079 N 
HETATM   14  H           1     -23.401  -4.430  -7.133  0.00  0.00     0.274 HD
HETATM   15  H           1     -24.758  -4.491  -8.167  0.00  0.00     0.274 HD
HETATM   16  H           1     -23.945  -3.012  -7.911  0.00  0.00     0.274 HD
ENDBRANCH  12  13
ENDBRANCH  11  12
ENDBRANCH  10  11
ENDBRANCH   5  10
ENDBRANCH   2   5
BRANCH   3  17
HETATM   17  C           1     -21.693  -7.452  -3.945  0.00  0.00     0.185 C 
BRANCH  17  18
HETATM   18  C           1     -21.196  -8.892  -3.920  0.00  0.00     0.036 C 
BRANCH  18  19
HETATM   19  C           1     -19.905  -8.998  -4.719  0.00  0.00     0.003 C 
BRANCH  19  20
HETATM   20 Se           1     -18.435  -9.452  -3.521  0.00  0.00     0.000 Se
HETATM   21  C           1     -19.514 -10.587  -2.361  0.00  0.00     0.000 C 
ENDBRANCH  19  20
ENDBRANCH  18  19
ENDBRANCH  17  18
BRANCH  17  22
HETATM   22  C           1     -21.627  -6.872  -2.554  0.00  0.00     0.196 C 
HETATM   23  O           1     -20.860  -7.374  -1.703  0.00  0.00    -0.646 OA
HETATM   24  O           1     -22.337  -5.889  -2.251  0.00  0.00    -0.646 OA
ENDBRANCH  17  22
ENDBRANCH   3  17
TORSDOF 11
ENDMDL
MODEL 5
REMARK VINA RESULT:      -5.1     12.843     15.103
REMARK  11 active torsions:
REMARK  status: ('A' for Active; 'I' for Inactive)
REMARK    1  A    between atoms: C_3  and  C_19 
REMARK    2  A    between atoms: C_3  and  C_17 
REMARK    3  A    between atoms: C_3  and  N_11 
REMARK    4  A    between atoms: Se_6  and  C_20 
REMARK    5  A    between atoms: N_7  and  C_8 
REMARK    6  A    between atoms: C_8  and  C_24 
REMARK       I    between atoms: C_10  and  N_11 
REMARK    7  A    between atoms: C_10  and  C_22 
REMARK    8  A    between atoms: N_16  and  C_22 
REMARK    9  A    between atoms: C_19  and  C_20 
REMARK   10  A    between atoms: C_22  and  C_23 
REMARK   11  A    between atoms: C_23  and  C_24 
ROOT
HETATM    1  H           1     -19.742  -6.819  -4.792  0.00  0.00     0.163 HD
HETATM    2  C           1     -21.355  -5.844  -5.648  0.00  0.00     0.249 C 
HETATM    3  N           1     -20.750  -6.732  -4.799  0.00  0.00    -0.345 N 
HETATM    4  O           1     -22.558  -5.740  -5.656  0.00  0.00    -0.271 OA
ENDROOT
BRANCH   2   5
HETATM    5  C           1     -20.518  -4.996  -6.574  0.00  0.00     0.274 C 
BRANCH   5   6
HETATM    6  N           1     -20.000  -5.845  -7.696  0.00  0.00    -0.067 N 
HETATM    7  H           1     -19.328  -5.290  -8.273  0.00  0.00     0.275 HD
HETATM    8  H           1     -20.799  -6.157  -8.294  0.00  0.00     0.275 HD
HETATM    9  H           1     -19.512  -6.682  -7.304  0.00  0.00     0.275 HD
ENDBRANCH   5   6
BRANCH   5  10
HETATM   10  C           1     -21.370  -3.869  -7.142  0.00  0.00     0.044 C 
BRANCH  10  11
HETATM   11  C           1     -21.520  -4.055  -8.647  0.00  0.00     0.030 C 
BRANCH  11  12
HETATM   12  C           1     -22.965  -3.793  -9.050  0.00  0.00     0.230 C 
BRANCH  12  13
HETATM   13  N           1     -23.872  -4.120  -7.901  0.00  0.00    -0.079 N 
HETATM   14  H           1     -24.537  -3.329  -7.745  0.00  0.00     0.274 HD
HETATM   15  H           1     -23.302  -4.272  -7.039  0.00  0.00     0.274 HD
HETATM   16  H           1     -24.412  -4.989  -8.119  0.00  0.00     0.274 HD
ENDBRANCH  12  13
ENDBRANCH  11  12
ENDBRANCH  10  11
ENDBRANCH   5  10
ENDBRANCH   2   5
BRANCH   3  17
HETATM   17  C           1     -21.555  -7.546  -3.909  0.00  0.00     0.185 C 
BRANCH  17  18
HETATM   18  C           1     -20.941  -8.936  -3.799  0.00  0.00     0.036 C 
BRANCH  18  19
HETATM   19  C           1     -22.049  -9.979  -3.752  0.00  0.00     0.003 C 
BRANCH  19  20
HETATM   20 Se           1     -21.726 -11.205  -2.270  0.00  0.00     0.000 Se
HETATM   21  C           1     -22.786 -10.192  -0.986  0.00  0.00     0.000 C 
ENDBRANCH  19  20
ENDBRANCH  18  19
ENDBRANCH  17  18
BRANCH  17  22
HETATM   22  C           1     -21.600  -6.905  -2.544  0.00  0.00     0.196 C 
HETATM   23  O           1     -22.398  -5.970  -2.319  0.00  0.00    -0.646 OA
HETATM   24  O           1     -20.841  -7.311  -1.637  0.00  0.00    -0.646 OA
ENDBRANCH  17  22
ENDBRANCH   3  17
TORSDOF 11
ENDMDL
MODEL 6
REMARK VINA RESULT:      -5.1      3.470      6.503
REMARK  11 active torsions:
REMARK  status: ('A' for Active; 'I' for Inactive)
REMARK    1  A    between atoms: C_3  and  C_19 
REMARK    2  A    between atoms: C_3  and  C_17 
REMARK    3  A    between atoms: C_3  and  N_11 
REMARK    4  A    between atoms: Se_6  and  C_20 
REMARK    5  A    between atoms: N_7  and  C_8 
REMARK    6  A    between atoms: C_8  and  C_24 
REMARK       I    between atoms: C_10  and  N_11 
REMARK    7  A    between atoms: C_10  and  C_22 
REMARK    8  A    between atoms: N_16  and  C_22 
REMARK    9  A    between atoms: C_19  and  C_20 
REMARK   10  A    between atoms: C_22  and  C_23 
REMARK   11  A    between atoms: C_23  and  C_24 
ROOT
HETATM    1  H           1     -26.545  -7.447 -18.431  0.00  0.00     0.163 HD
HETATM    2  C           1     -27.974  -5.950 -18.415  0.00  0.00     0.249 C 
HETATM    3  N           1     -27.115  -6.838 -19.004  0.00  0.00    -0.345 N 
HETATM    4  O           1     -28.654  -5.224 -19.098  0.00  0.00    -0.271 OA
ENDROOT
BRANCH   2   5
HETATM    5  C           1     -28.071  -5.880 -16.910  0.00  0.00     0.274 C 
BRANCH   5   6
HETATM    6  N           1     -26.695  -5.755 -16.327  0.00  0.00    -0.067 N 
HETATM    7  H           1     -26.015  -6.280 -16.922  0.00  0.00     0.275 HD
HETATM    8  H           1     -26.689  -6.149 -15.359  0.00  0.00     0.275 HD
HETATM    9  H           1     -26.421  -4.746 -16.294  0.00  0.00     0.275 HD
ENDBRANCH   5   6
BRANCH   5  10
HETATM   10  C           1     -28.903  -4.668 -16.511  0.00  0.00     0.044 C 
BRANCH  10  11
HETATM   11  C           1     -30.324  -5.114 -16.184  0.00  0.00     0.030 C 
BRANCH  11  12
HETATM   12  C           1     -31.309  -4.348 -17.057  0.00  0.00     0.230 C 
BRANCH  12  13
HETATM   13  N           1     -30.590  -3.246 -17.777  0.00  0.00    -0.079 N 
HETATM   14  H           1     -29.679  -3.605 -18.144  0.00  0.00     0.274 HD
HETATM   15  H           1     -30.413  -2.456 -17.116  0.00  0.00     0.274 HD
HETATM   16  H           1     -31.177  -2.910 -18.574  0.00  0.00     0.274 HD
ENDBRANCH  12  13
ENDBRANCH  11  12
ENDBRANCH  10  11
ENDBRANCH   5  10
ENDBRANCH   2   5
BRANCH   3  17
HETATM   17  C           1     -27.023  -6.907 -20.449  0.00  0.00     0.185 C 
BRANCH  17  18
HETATM   18  C           1     -25.581  -6.661 -20.878  0.00  0.00     0.036 C 
BRANCH  18  19
HETATM   19  C           1     -24.636  -7.344 -19.899  0.00  0.00     0.003 C 
BRANCH  19  20
HETATM   20 Se           1     -23.246  -8.287 -20.889  0.00  0.00     0.000 Se
HETATM   21  C           1     -23.833  -7.657 -22.637  0.00  0.00     0.000 C 
ENDBRANCH  19  20
ENDBRANCH  18  19
ENDBRANCH  17  18
BRANCH  17  22
HETATM   22  C           1     -27.461  -8.272 -20.917  0.00  0.00     0.196 C 
HETATM   23  O           1     -26.757  -8.911 -21.729  0.00  0.00    -0.646 OA
HETATM   24  O           1     -28.529  -8.766 -20.494  0.00  0.00    -0.646 OA
ENDBRANCH  17  22
ENDBRANCH   3  17
TORSDOF 11
ENDMDL
MODEL 7
REMARK VINA RESULT:      -5.0     12.098     14.160
REMARK  11 active torsions:
REMARK  status: ('A' for Active; 'I' for Inactive)
REMARK    1  A    between atoms: C_3  and  C_19 
REMARK    2  A    between atoms: C_3  and  C_17 
REMARK    3  A    between atoms: C_3  and  N_11 
REMARK    4  A    between atoms: Se_6  and  C_20 
REMARK    5  A    between atoms: N_7  and  C_8 
REMARK    6  A    between atoms: C_8  and  C_24 
REMARK       I    between atoms: C_10  and  N_11 
REMARK    7  A    between atoms: C_10  and  C_22 
REMARK    8  A    between atoms: N_16  and  C_22 
REMARK    9  A    between atoms: C_19  and  C_20 
REMARK   10  A    between atoms: C_22  and  C_23 
REMARK   11  A    between atoms: C_23  and  C_24 
ROOT
HETATM    1  H           1     -21.814  -7.139  -6.783  0.00  0.00     0.163 HD
HETATM    2  C           1     -21.063  -5.217  -6.635  0.00  0.00     0.249 C 
HETATM    3  N           1     -21.299  -6.492  -6.199  0.00  0.00    -0.345 N 
HETATM    4  O           1     -20.448  -4.445  -5.938  0.00  0.00    -0.271 OA
ENDROOT
BRANCH   2   5
HETATM    5  C           1     -21.570  -4.774  -7.985  0.00  0.00     0.274 C 
BRANCH   5   6
HETATM    6  N           1     -22.751  -3.869  -7.802  0.00  0.00    -0.067 N 
HETATM    7  H           1     -23.125  -3.976  -6.832  0.00  0.00     0.275 HD
HETATM    8  H           1     -23.494  -4.122  -8.493  0.00  0.00     0.275 HD
HETATM    9  H           1     -22.458  -2.878  -7.955  0.00  0.00     0.275 HD
ENDBRANCH   5   6
BRANCH   5  10
HETATM   10  C           1     -20.467  -4.026  -8.723  0.00  0.00     0.044 C 
BRANCH  10  11
HETATM   11  C           1     -20.168  -4.731 -10.040  0.00  0.00     0.030 C 
BRANCH  11  12
HETATM   12  C           1     -21.178  -4.293 -11.092  0.00  0.00     0.230 C 
BRANCH  12  13
HETATM   13  N           1     -20.800  -2.940 -11.617  0.00  0.00    -0.079 N 
HETATM   14  H           1     -20.084  -3.046 -12.371  0.00  0.00     0.274 HD
HETATM   15  H           1     -20.405  -2.363 -10.840  0.00  0.00     0.274 HD
HETATM   16  H           1     -21.648  -2.468 -12.006  0.00  0.00     0.274 HD
ENDBRANCH  12  13
ENDBRANCH  11  12
ENDBRANCH  10  11
ENDBRANCH   5  10
ENDBRANCH   2   5
BRANCH   3  17
HETATM   17  C           1     -20.811  -6.917  -4.902  0.00  0.00     0.185 C 
BRANCH  17  18
HETATM   18  C           1     -21.955  -6.891  -3.896  0.00  0.00     0.036 C 
BRANCH  18  19
HETATM   19  C           1     -21.531  -6.102  -2.665  0.00  0.00     0.003 C 
BRANCH  19  20
HETATM   20 Se           1     -22.223  -6.974  -1.063  0.00  0.00     0.000 Se
HETATM   21  C           1     -20.879  -8.386  -1.054  0.00  0.00     0.000 C 
ENDBRANCH  19  20
ENDBRANCH  18  19
ENDBRANCH  17  18
BRANCH  17  22
HETATM   22  C           1     -20.262  -8.319  -5.005  0.00  0.00     0.196 C 
HETATM   23  O           1     -20.808  -9.150  -5.763  0.00  0.00    -0.646 OA
HETATM   24  O           1     -19.261  -8.650  -4.333  0.00  0.00    -0.646 OA
ENDBRANCH  17  22
ENDBRANCH   3  17
TORSDOF 11
ENDMDL
MODEL 8
REMARK VINA RESULT:      -5.0     12.634     15.230
REMARK  11 active torsions:
REMARK  status: ('A' for Active; 'I' for Inactive)
REMARK    1  A    between atoms: C_3  and  C_19 
REMARK    2  A    between atoms: C_3  and  C_17 
REMARK    3  A    between atoms: C_3  and  N_11 
REMARK    4  A    between atoms: Se_6  and  C_20 
REMARK    5  A    between atoms: N_7  and  C_8 
REMARK    6  A    between atoms: C_8  and  C_24 
REMARK       I    between atoms: C_10  and  N_11 
REMARK    7  A    between atoms: C_10  and  C_22 
REMARK    8  A    between atoms: N_16  and  C_22 
REMARK    9  A    between atoms: C_19  and  C_20 
REMARK   10  A    between atoms: C_22  and  C_23 
REMARK   11  A    between atoms: C_23  and  C_24 
ROOT
HETATM    1  H           1     -20.572  -4.529  -4.653  0.00  0.00     0.163 HD
HETATM    2  C           1     -21.442  -6.363  -4.252  0.00  0.00     0.249 C 
HETATM    3  N           1     -21.028  -5.337  -5.057  0.00  0.00    -0.345 N 
HETATM    4  O           1     -21.985  -7.328  -4.734  0.00  0.00    -0.271 OA
ENDROOT
BRANCH   2   5
HETATM    5  C           1     -21.220  -6.289  -2.761  0.00  0.00     0.274 C 
BRANCH   5   6
HETATM    6  N           1     -22.506  -5.921  -2.083  0.00  0.00    -0.067 N 
HETATM    7  H           1     -22.751  -6.654  -1.378  0.00  0.00     0.275 HD
HETATM    8  H           1     -23.268  -5.853  -2.795  0.00  0.00     0.275 HD
HETATM    9  H           1     -22.395  -5.000  -1.603  0.00  0.00     0.275 HD
ENDBRANCH   5   6
BRANCH   5  10
HETATM   10  C           1     -20.746  -7.643  -2.250  0.00  0.00     0.044 C 
BRANCH  10  11
HETATM   11  C           1     -21.819  -8.252  -1.354  0.00  0.00     0.030 C 
BRANCH  11  12
HETATM   12  C           1     -21.945  -9.740  -1.651  0.00  0.00     0.230 C 
BRANCH  12  13
HETATM   13  N           1     -21.969  -9.954  -3.136  0.00  0.00    -0.079 N 
HETATM   14  H           1     -20.993 -10.093  -3.484  0.00  0.00     0.274 HD
HETATM   15  H           1     -22.390  -9.118  -3.601  0.00  0.00     0.274 HD
HETATM   16  H           1     -22.541 -10.801  -3.356  0.00  0.00     0.274 HD
ENDBRANCH  12  13
ENDBRANCH  11  12
ENDBRANCH  10  11
ENDBRANCH   5  10
ENDBRANCH   2   5
BRANCH   3  17
HETATM   17  C           1     -21.241  -5.409  -6.489  0.00  0.00     0.185 C 
BRANCH  17  18
HETATM   18  C           1     -21.771  -4.071  -6.992  0.00  0.00     0.036 C 
BRANCH  18  19
HETATM   19  C           1     -23.085  -4.290  -7.729  0.00  0.00     0.003 C 
BRANCH  19  20
HETATM   20 Se           1     -22.769  -4.228  -9.652  0.00  0.00     0.000 Se
HETATM   21  C           1     -24.511  -3.464 -10.079  0.00  0.00     0.000 C 
ENDBRANCH  19  20
ENDBRANCH  18  19
ENDBRANCH  17  18
BRANCH  17  22
HETATM   22  C           1     -19.935  -5.723  -7.177  0.00  0.00     0.196 C 
HETATM   23  O           1     -19.362  -4.847  -7.861  0.00  0.00    -0.646 OA
HETATM   24  O           1     -19.425  -6.858  -7.064  0.00  0.00    -0.646 OA
ENDBRANCH  17  22
ENDBRANCH   3  17
TORSDOF 11
ENDMDL
MODEL 9
REMARK VINA RESULT:      -4.9     10.936     12.844
REMARK  11 active torsions:
REMARK  status: ('A' for Active; 'I' for Inactive)
REMARK    1  A    between atoms: C_3  and  C_19 
REMARK    2  A    between atoms: C_3  and  C_17 
REMARK    3  A    between atoms: C_3  and  N_11 
REMARK    4  A    between atoms: Se_6  and  C_20 
REMARK    5  A    between atoms: N_7  and  C_8 
REMARK    6  A    between atoms: C_8  and  C_24 
REMARK       I    between atoms: C_10  and  N_11 
REMARK    7  A    between atoms: C_10  and  C_22 
REMARK    8  A    between atoms: N_16  and  C_22 
REMARK    9  A    between atoms: C_19  and  C_20 
REMARK   10  A    between atoms: C_22  and  C_23 
REMARK   11  A    between atoms: C_23  and  C_24 
ROOT
HETATM    1  H           1     -22.564  -6.278  -7.913  0.00  0.00     0.163 HD
HETATM    2  C           1     -22.436  -4.218  -8.059  0.00  0.00     0.249 C 
HETATM    3  N           1     -22.160  -5.442  -7.512  0.00  0.00    -0.345 N 
HETATM    4  O           1     -21.953  -3.220  -7.581  0.00  0.00    -0.271 OA
ENDROOT
BRANCH   2   5
HETATM    5  C           1     -23.343  -4.117  -9.261  0.00  0.00     0.274 C 
BRANCH   5   6
HETATM    6  N           1     -24.613  -3.421  -8.870  0.00  0.00    -0.067 N 
HETATM    7  H           1     -24.433  -2.804  -8.045  0.00  0.00     0.275 HD
HETATM    8  H           1     -25.338  -4.132  -8.623  0.00  0.00     0.275 HD
HETATM    9  H           1     -24.953  -2.841  -9.670  0.00  0.00     0.275 HD
ENDBRANCH   5   6
BRANCH   5  10
HETATM   10  C           1     -22.647  -3.323 -10.359  0.00  0.00     0.044 C 
BRANCH  10  11
HETATM   11  C           1     -21.916  -4.280 -11.292  0.00  0.00     0.030 C 
BRANCH  11  12
HETATM   12  C           1     -20.423  -3.983 -11.258  0.00  0.00     0.230 C 
BRANCH  12  13
HETATM   13  N           1     -19.771  -4.819 -10.197  0.00  0.00    -0.079 N 
HETATM   14  H           1     -18.765  -4.970 -10.441  0.00  0.00     0.274 HD
HETATM   15  H           1     -20.256  -5.742 -10.134  0.00  0.00     0.274 HD
HETATM   16  H           1     -19.835  -4.327  -9.277  0.00  0.00     0.274 HD
ENDBRANCH  12  13
ENDBRANCH  11  12
ENDBRANCH  10  11
ENDBRANCH   5  10
ENDBRANCH   2   5
BRANCH   3  17
HETATM   17  C           1     -21.288  -5.539  -6.358  0.00  0.00     0.185 C 
BRANCH  17  18
HETATM   18  C           1     -21.808  -6.620  -5.418  0.00  0.00     0.036 C 
BRANCH  18  19
HETATM   19  C           1     -21.482  -6.243  -3.979  0.00  0.00     0.003 C 
BRANCH  19  20
HETATM   20 Se           1     -20.837  -7.816  -3.025  0.00  0.00     0.000 Se
HETATM   21  C           1     -21.408  -9.082  -4.392  0.00  0.00     0.000 C 
ENDBRANCH  19  20
ENDBRANCH  18  19
ENDBRANCH  17  18
BRANCH  17  22
HETATM   22  C           1     -19.893  -5.893  -6.810  0.00  0.00     0.196 C 
HETATM   23  O           1     -19.131  -5.002  -7.244  0.00  0.00    -0.646 OA
HETATM   24  O           1     -19.497  -7.078  -6.749  0.00  0.00    -0.646 OA
ENDBRANCH  17  22
ENDBRANCH   3  17
TORSDOF 11
ENDMDL
