MODEL 1
REMARK VINA RESULT:      -6.3      0.000      0.000
REMARK  9 active torsions:
REMARK  status: ('A' for Active; 'I' for Inactive)
REMARK       I    between atoms: C_2  and  N_15 
REMARK    1  A    between atoms: C_2  and  C_8 
REMARK    2  A    between atoms: C_8  and  C_12 
REMARK    3  A    between atoms: C_8  and  N_10 
REMARK    4  A    between atoms: O_11  and  C_12 
REMARK    5  A    between atoms: C_13  and  C_21 
REMARK    6  A    between atoms: C_13  and  C_18 
REMARK    7  A    between atoms: N_15  and  C_19 
REMARK    8  A    between atoms: C_18  and  C_19 
REMARK    9  A    between atoms: C_19  and  C_20 
ROOT
HETATM    1  C           1     -26.267  -6.562 -18.894  0.00  0.00     0.251 C 
HETATM    2  H           1     -27.930  -6.895 -20.080  0.00  0.00     0.163 HD
HETATM    3  O           1     -25.883  -6.213 -17.802  0.00  0.00    -0.271 OA
HETATM    4  N           1     -27.608  -6.603 -19.167  0.00  0.00    -0.345 N 
ENDROOT
BRANCH   4   5
HETATM    5  C           1     -28.567  -6.229 -18.146  0.00  0.00     0.186 C 
BRANCH   5   6
HETATM    6  C           1     -29.294  -4.960 -18.573  0.00  0.00     0.046 C 
BRANCH   6   7
HETATM    7  C           1     -29.698  -4.165 -17.339  0.00  0.00     0.116 C 
BRANCH   7   8
HETATM    8  C           1     -31.198  -3.996 -17.318  0.00  0.00     0.172 C 
HETATM    9  O           1     -31.718  -2.974 -17.815  0.00  0.00    -0.648 OA
HETATM   10  O           1     -31.919  -4.877 -16.803  0.00  0.00    -0.648 OA
ENDBRANCH   7   8
ENDBRANCH   6   7
ENDBRANCH   5   6
BRANCH   5  11
HETATM   11  C           1     -29.567  -7.344 -17.961  0.00  0.00     0.196 C 
HETATM   12  O           1     -29.487  -8.096 -16.966  0.00  0.00    -0.646 OA
HETATM   13  O           1     -30.475  -7.515 -18.803  0.00  0.00    -0.646 OA
ENDBRANCH   5  11
ENDBRANCH   4   5
BRANCH   1  14
HETATM   14  C           1     -25.269  -6.952 -19.956  0.00  0.00     0.297 C 
BRANCH  14  15
HETATM   15  C           1     -25.943  -7.855 -20.981  0.00  0.00     0.206 C 
BRANCH  15  16
HETATM   16  O           1     -24.966  -8.493 -21.757  0.00  0.00    -0.398 OA
HETATM   17  H           1     -24.270  -8.741 -21.172  0.00  0.00     0.209 HD
ENDBRANCH  15  16
ENDBRANCH  14  15
BRANCH  14  18
HETATM   18  N           1     -24.125  -7.685 -19.321  0.00  0.00    -0.064 N 
HETATM   19  H           1     -24.464  -8.595 -18.935  0.00  0.00     0.275 HD
HETATM   20  H           1     -23.387  -7.865 -20.038  0.00  0.00     0.275 HD
HETATM   21  H           1     -23.726  -7.105 -18.548  0.00  0.00     0.275 HD
ENDBRANCH  14  18
ENDBRANCH   1  14
TORSDOF 9
ENDMDL
MODEL 2
REMARK VINA RESULT:      -6.1      9.724     12.269
REMARK  9 active torsions:
REMARK  status: ('A' for Active; 'I' for Inactive)
REMARK       I    between atoms: C_2  and  N_15 
REMARK    1  A    between atoms: C_2  and  C_8 
REMARK    2  A    between atoms: C_8  and  C_12 
REMARK    3  A    between atoms: C_8  and  N_10 
REMARK    4  A    between atoms: O_11  and  C_12 
REMARK    5  A    between atoms: C_13  and  C_21 
REMARK    6  A    between atoms: C_13  and  C_18 
REMARK    7  A    between atoms: N_15  and  C_19 
REMARK    8  A    between atoms: C_18  and  C_19 
REMARK    9  A    between atoms: C_19  and  C_20 
ROOT
HETATM    1  C           1     -36.620  -0.151 -13.439  0.00  0.00     0.251 C 
HETATM    2  H           1     -35.054   0.340 -12.179  0.00  0.00     0.163 HD
HETATM    3  O           1     -37.674  -0.737 -13.529  0.00  0.00    -0.271 OA
HETATM    4  N           1     -35.936  -0.151 -12.254  0.00  0.00    -0.345 N 
ENDROOT
BRANCH   4   5
HETATM    5  C           1     -36.475  -0.851 -11.105  0.00  0.00     0.186 C 
BRANCH   5   6
HETATM    6  C           1     -35.399  -1.745 -10.504  0.00  0.00     0.046 C 
BRANCH   6   7
HETATM    7  C           1     -35.397  -3.090 -11.219  0.00  0.00     0.116 C 
BRANCH   7   8
HETATM    8  C           1     -34.291  -3.113 -12.246  0.00  0.00     0.172 C 
HETATM    9  O           1     -33.140  -3.472 -11.916  0.00  0.00    -0.648 OA
HETATM   10  O           1     -34.526  -2.772 -13.425  0.00  0.00    -0.648 OA
ENDBRANCH   7   8
ENDBRANCH   6   7
ENDBRANCH   5   6
BRANCH   5  11
HETATM   11  C           1     -36.932   0.151 -10.073  0.00  0.00     0.196 C 
HETATM   12  O           1     -37.944   0.851 -10.287  0.00  0.00    -0.646 OA
HETATM   13  O           1     -36.297   0.280  -9.004  0.00  0.00    -0.646 OA
ENDBRANCH   5  11
ENDBRANCH   4   5
BRANCH   1  14
HETATM   14  C           1     -36.058   0.578 -14.635  0.00  0.00     0.297 C 
BRANCH  14  15
HETATM   15  C           1     -36.928   0.301 -15.854  0.00  0.00     0.206 C 
BRANCH  15  16
HETATM   16  O           1     -37.968   1.240 -15.910  0.00  0.00    -0.398 OA
HETATM   17  H           1     -38.772   0.754 -15.979  0.00  0.00     0.209 HD
ENDBRANCH  15  16
ENDBRANCH  14  15
BRANCH  14  18
HETATM   18  N           1     -34.661   0.102 -14.900  0.00  0.00    -0.064 N 
HETATM   19  H           1     -34.343  -0.503 -14.109  0.00  0.00     0.275 HD
HETATM   20  H           1     -34.643  -0.447 -15.787  0.00  0.00     0.275 HD
HETATM   21  H           1     -34.023   0.926 -14.987  0.00  0.00     0.275 HD
ENDBRANCH  14  18
ENDBRANCH   1  14
TORSDOF 9
ENDMDL
MODEL 3
REMARK VINA RESULT:      -6.0      2.452      2.878
REMARK  9 active torsions:
REMARK  status: ('A' for Active; 'I' for Inactive)
REMARK       I    between atoms: C_2  and  N_15 
REMARK    1  A    between atoms: C_2  and  C_8 
REMARK    2  A    between atoms: C_8  and  C_12 
REMARK    3  A    between atoms: C_8  and  N_10 
REMARK    4  A    between atoms: O_11  and  C_12 
REMARK    5  A    between atoms: C_13  and  C_21 
REMARK    6  A    between atoms: C_13  and  C_18 
REMARK    7  A    between atoms: N_15  and  C_19 
REMARK    8  A    between atoms: C_18  and  C_19 
REMARK    9  A    between atoms: C_19  and  C_20 
ROOT
HETATM    1  C           1     -26.890  -6.860 -16.209  0.00  0.00     0.251 C 
HETATM    2  H           1     -27.406  -5.934 -17.985  0.00  0.00     0.163 HD
HETATM    3  O           1     -27.290  -7.544 -15.295  0.00  0.00    -0.271 OA
HETATM    4  N           1     -27.740  -6.506 -17.221  0.00  0.00    -0.345 N 
ENDROOT
BRANCH   4   5
HETATM    5  C           1     -29.120  -6.951 -17.199  0.00  0.00     0.186 C 
BRANCH   5   6
HETATM    6  C           1     -30.037  -5.753 -16.995  0.00  0.00     0.046 C 
BRANCH   6   7
HETATM    7  C           1     -29.690  -4.669 -18.008  0.00  0.00     0.116 C 
BRANCH   7   8
HETATM    8  C           1     -30.313  -3.363 -17.581  0.00  0.00     0.172 C 
HETATM    9  O           1     -31.555  -3.269 -17.470  0.00  0.00    -0.648 OA
HETATM   10  O           1     -29.588  -2.374 -17.339  0.00  0.00    -0.648 OA
ENDBRANCH   7   8
ENDBRANCH   6   7
ENDBRANCH   5   6
BRANCH   5  11
HETATM   11  C           1     -29.453  -7.623 -18.508  0.00  0.00     0.196 C 
HETATM   12  O           1     -28.596  -7.681 -19.416  0.00  0.00    -0.646 OA
HETATM   13  O           1     -30.585  -8.123 -18.684  0.00  0.00    -0.646 OA
ENDBRANCH   5  11
ENDBRANCH   4   5
BRANCH   1  14
HETATM   14  C           1     -25.455  -6.397 -16.232  0.00  0.00     0.297 C 
BRANCH  14  15
HETATM   15  C           1     -24.639  -7.312 -17.136  0.00  0.00     0.206 C 
BRANCH  15  16
HETATM   16  O           1     -23.884  -8.194 -16.351  0.00  0.00    -0.398 OA
HETATM   17  H           1     -24.494  -8.686 -15.828  0.00  0.00     0.209 HD
ENDBRANCH  15  16
ENDBRANCH  14  15
BRANCH  14  18
HETATM   18  N           1     -24.893  -6.440 -14.842  0.00  0.00    -0.064 N 
HETATM   19  H           1     -25.637  -6.743 -14.174  0.00  0.00     0.275 HD
HETATM   20  H           1     -24.099  -7.117 -14.808  0.00  0.00     0.275 HD
HETATM   21  H           1     -24.552  -5.488 -14.575  0.00  0.00     0.275 HD
ENDBRANCH  14  18
ENDBRANCH   1  14
TORSDOF 9
ENDMDL
MODEL 4
REMARK VINA RESULT:      -6.0      1.741      2.287
REMARK  9 active torsions:
REMARK  status: ('A' for Active; 'I' for Inactive)
REMARK       I    between atoms: C_2  and  N_15 
REMARK    1  A    between atoms: C_2  and  C_8 
REMARK    2  A    between atoms: C_8  and  C_12 
REMARK    3  A    between atoms: C_8  and  N_10 
REMARK    4  A    between atoms: O_11  and  C_12 
REMARK    5  A    between atoms: C_13  and  C_21 
REMARK    6  A    between atoms: C_13  and  C_18 
REMARK    7  A    between atoms: N_15  and  C_19 
REMARK    8  A    between atoms: C_18  and  C_19 
REMARK    9  A    between atoms: C_19  and  C_20 
ROOT
HETATM    1  C           1     -25.733  -6.689 -19.048  0.00  0.00     0.251 C 
HETATM    2  H           1     -27.775  -6.614 -18.726  0.00  0.00     0.163 HD
HETATM    3  O           1     -24.646  -6.462 -18.571  0.00  0.00    -0.271 OA
HETATM    4  N           1     -26.865  -6.425 -18.326  0.00  0.00    -0.345 N 
ENDROOT
BRANCH   4   5
HETATM    5  C           1     -26.761  -5.874 -16.989  0.00  0.00     0.186 C 
BRANCH   5   6
HETATM    6  C           1     -27.871  -4.854 -16.772  0.00  0.00     0.046 C 
BRANCH   6   7
HETATM    7  C           1     -28.811  -4.862 -17.970  0.00  0.00     0.116 C 
BRANCH   7   8
HETATM    8  C           1     -30.235  -5.002 -17.493  0.00  0.00     0.172 C 
HETATM    9  O           1     -30.700  -6.134 -17.238  0.00  0.00    -0.648 OA
HETATM   10  O           1     -30.950  -3.987 -17.352  0.00  0.00    -0.648 OA
ENDBRANCH   7   8
ENDBRANCH   6   7
ENDBRANCH   5   6
BRANCH   5  11
HETATM   11  C           1     -26.893  -6.985 -15.976  0.00  0.00     0.196 C 
HETATM   12  O           1     -25.874  -7.449 -15.422  0.00  0.00    -0.646 OA
HETATM   13  O           1     -28.022  -7.439 -15.690  0.00  0.00    -0.646 OA
ENDBRANCH   5  11
ENDBRANCH   4   5
BRANCH   1  14
HETATM   14  C           1     -25.841  -7.262 -20.439  0.00  0.00     0.297 C 
BRANCH  14  15
HETATM   15  C           1     -27.230  -7.857 -20.638  0.00  0.00     0.206 C 
BRANCH  15  16
HETATM   16  O           1     -27.165  -8.890 -21.583  0.00  0.00    -0.398 OA
HETATM   17  H           1     -26.278  -9.208 -21.580  0.00  0.00     0.209 HD
ENDBRANCH  15  16
ENDBRANCH  14  15
BRANCH  14  18
HETATM   18  N           1     -24.808  -8.334 -20.620  0.00  0.00    -0.064 N 
HETATM   19  H           1     -23.958  -8.097 -20.060  0.00  0.00     0.275 HD
HETATM   20  H           1     -25.195  -9.248 -20.296  0.00  0.00     0.275 HD
HETATM   21  H           1     -24.552  -8.403 -21.632  0.00  0.00     0.275 HD
ENDBRANCH  14  18
ENDBRANCH   1  14
TORSDOF 9
ENDMDL
MODEL 5
REMARK VINA RESULT:      -5.8      1.748      2.097
REMARK  9 active torsions:
REMARK  status: ('A' for Active; 'I' for Inactive)
REMARK       I    between atoms: C_2  and  N_15 
REMARK    1  A    between atoms: C_2  and  C_8 
REMARK    2  A    between atoms: C_8  and  C_12 
REMARK    3  A    between atoms: C_8  and  N_10 
REMARK    4  A    between atoms: O_11  and  C_12 
REMARK    5  A    between atoms: C_13  and  C_21 
REMARK    6  A    between atoms: C_13  and  C_18 
REMARK    7  A    between atoms: N_15  and  C_19 
REMARK    8  A    between atoms: C_18  and  C_19 
REMARK    9  A    between atoms: C_19  and  C_20 
ROOT
HETATM    1  C           1     -26.489  -6.632 -18.752  0.00  0.00     0.251 C 
HETATM    2  H           1     -27.985  -7.406 -19.954  0.00  0.00     0.163 HD
HETATM    3  O           1     -26.250  -6.041 -17.725  0.00  0.00    -0.271 OA
HETATM    4  N           1     -27.784  -6.911 -19.095  0.00  0.00    -0.345 N 
ENDROOT
BRANCH   4   5
HETATM    5  C           1     -28.870  -6.498 -18.226  0.00  0.00     0.186 C 
BRANCH   5   6
HETATM    6  C           1     -29.348  -5.112 -18.636  0.00  0.00     0.046 C 
BRANCH   6   7
HETATM    7  C           1     -29.856  -4.366 -17.409  0.00  0.00     0.116 C 
BRANCH   7   8
HETATM    8  C           1     -28.927  -3.220 -17.095  0.00  0.00     0.172 C 
HETATM    9  O           1     -29.272  -2.046 -17.353  0.00  0.00    -0.648 OA
HETATM   10  O           1     -27.811  -3.443 -16.578  0.00  0.00    -0.648 OA
ENDBRANCH   7   8
ENDBRANCH   6   7
ENDBRANCH   5   6
BRANCH   5  11
HETATM   11  C           1     -30.010  -7.480 -18.345  0.00  0.00     0.196 C 
HETATM   12  O           1     -31.053  -7.308 -17.679  0.00  0.00    -0.646 OA
HETATM   13  O           1     -29.911  -8.464 -19.109  0.00  0.00    -0.646 OA
ENDBRANCH   5  11
ENDBRANCH   4   5
BRANCH   1  14
HETATM   14  C           1     -25.360  -7.062 -19.655  0.00  0.00     0.297 C 
BRANCH  14  15
HETATM   15  C           1     -24.038  -6.950 -18.906  0.00  0.00     0.206 C 
BRANCH  15  16
HETATM   16  O           1     -24.106  -7.701 -17.724  0.00  0.00    -0.398 OA
HETATM   17  H           1     -23.797  -7.146 -17.029  0.00  0.00     0.209 HD
ENDBRANCH  15  16
ENDBRANCH  14  15
BRANCH  14  18
HETATM   18  N           1     -25.324  -6.177 -20.866  0.00  0.00    -0.064 N 
HETATM   19  H           1     -25.041  -6.739 -21.700  0.00  0.00     0.275 HD
HETATM   20  H           1     -26.271  -5.769 -21.026  0.00  0.00     0.275 HD
HETATM   21  H           1     -24.633  -5.407 -20.714  0.00  0.00     0.275 HD
ENDBRANCH  14  18
ENDBRANCH   1  14
TORSDOF 9
ENDMDL
MODEL 6
REMARK VINA RESULT:      -5.6     12.353     13.682
REMARK  9 active torsions:
REMARK  status: ('A' for Active; 'I' for Inactive)
REMARK       I    between atoms: C_2  and  N_15 
REMARK    1  A    between atoms: C_2  and  C_8 
REMARK    2  A    between atoms: C_8  and  C_12 
REMARK    3  A    between atoms: C_8  and  N_10 
REMARK    4  A    between atoms: O_11  and  C_12 
REMARK    5  A    between atoms: C_13  and  C_21 
REMARK    6  A    between atoms: C_13  and  C_18 
REMARK    7  A    between atoms: N_15  and  C_19 
REMARK    8  A    between atoms: C_18  and  C_19 
REMARK    9  A    between atoms: C_19  and  C_20 
ROOT
HETATM    1  C           1     -21.182  -6.248  -6.016  0.00  0.00     0.251 C 
HETATM    2  H           1     -21.295  -4.183  -5.965  0.00  0.00     0.163 HD
HETATM    3  O           1     -21.210  -7.225  -6.728  0.00  0.00    -0.271 OA
HETATM    4  N           1     -21.318  -5.000  -6.561  0.00  0.00    -0.345 N 
ENDROOT
BRANCH   4   5
HETATM    5  C           1     -21.494  -4.849  -7.992  0.00  0.00     0.186 C 
BRANCH   5   6
HETATM    6  C           1     -22.438  -3.686  -8.267  0.00  0.00     0.046 C 
BRANCH   6   7
HETATM    7  C           1     -23.695  -4.203  -8.954  0.00  0.00     0.116 C 
BRANCH   7   8
HETATM    8  C           1     -23.866  -3.508 -10.282  0.00  0.00     0.172 C 
HETATM    9  O           1     -25.010  -3.207 -10.687  0.00  0.00    -0.648 OA
HETATM   10  O           1     -22.865  -3.233 -10.977  0.00  0.00    -0.648 OA
ENDBRANCH   7   8
ENDBRANCH   6   7
ENDBRANCH   5   6
BRANCH   5  11
HETATM   11  C           1     -20.157  -4.576  -8.638  0.00  0.00     0.196 C 
HETATM   12  O           1     -20.011  -4.748  -9.866  0.00  0.00    -0.646 OA
HETATM   13  O           1     -19.197  -4.178  -7.943  0.00  0.00    -0.646 OA
ENDBRANCH   5  11
ENDBRANCH   4   5
BRANCH   1  14
HETATM   14  C           1     -20.999  -6.405  -4.527  0.00  0.00     0.297 C 
BRANCH  14  15
HETATM   15  C           1     -20.523  -7.819  -4.219  0.00  0.00     0.206 C 
BRANCH  15  16
HETATM   16  O           1     -21.621  -8.690  -4.205  0.00  0.00    -0.398 OA
HETATM   17  H           1     -21.622  -9.143  -5.030  0.00  0.00     0.209 HD
ENDBRANCH  15  16
ENDBRANCH  14  15
BRANCH  14  18
HETATM   18  N           1     -22.305  -6.157  -3.833  0.00  0.00    -0.064 N 
HETATM   19  H           1     -22.409  -5.135  -3.642  0.00  0.00     0.275 HD
HETATM   20  H           1     -23.089  -6.479  -4.443  0.00  0.00     0.275 HD
HETATM   21  H           1     -22.326  -6.684  -2.930  0.00  0.00     0.275 HD
ENDBRANCH  14  18
ENDBRANCH   1  14
TORSDOF 9
ENDMDL
MODEL 7
REMARK VINA RESULT:      -5.5      2.403      2.757
REMARK  9 active torsions:
REMARK  status: ('A' for Active; 'I' for Inactive)
REMARK       I    between atoms: C_2  and  N_15 
REMARK    1  A    between atoms: C_2  and  C_8 
REMARK    2  A    between atoms: C_8  and  C_12 
REMARK    3  A    between atoms: C_8  and  N_10 
REMARK    4  A    between atoms: O_11  and  C_12 
REMARK    5  A    between atoms: C_13  and  C_21 
REMARK    6  A    between atoms: C_13  and  C_18 
REMARK    7  A    between atoms: N_15  and  C_19 
REMARK    8  A    between atoms: C_18  and  C_19 
REMARK    9  A    between atoms: C_19  and  C_20 
ROOT
HETATM    1  C           1     -26.144  -6.375 -17.288  0.00  0.00     0.251 C 
HETATM    2  H           1     -27.887  -7.203 -18.034  0.00  0.00     0.163 HD
HETATM    3  O           1     -25.681  -5.579 -16.505  0.00  0.00    -0.271 OA
HETATM    4  N           1     -27.500  -6.536 -17.379  0.00  0.00    -0.345 N 
ENDROOT
BRANCH   4   5
HETATM    5  C           1     -28.382  -5.752 -16.537  0.00  0.00     0.186 C 
BRANCH   5   6
HETATM    6  C           1     -29.721  -5.568 -17.237  0.00  0.00     0.046 C 
BRANCH   6   7
HETATM    7  C           1     -29.621  -4.422 -18.235  0.00  0.00     0.116 C 
BRANCH   7   8
HETATM    8  C           1     -30.293  -3.197 -17.665  0.00  0.00     0.172 C 
HETATM    9  O           1     -31.540  -3.144 -17.597  0.00  0.00    -0.648 OA
HETATM   10  O           1     -29.604  -2.236 -17.261  0.00  0.00    -0.648 OA
ENDBRANCH   7   8
ENDBRANCH   6   7
ENDBRANCH   5   6
BRANCH   5  11
HETATM   11  C           1     -28.593  -6.468 -15.225  0.00  0.00     0.196 C 
HETATM   12  O           1     -29.398  -6.009 -14.387  0.00  0.00    -0.646 OA
HETATM   13  O           1     -27.964  -7.520 -14.979  0.00  0.00    -0.646 OA
ENDBRANCH   5  11
ENDBRANCH   4   5
BRANCH   1  14
HETATM   14  C           1     -25.226  -7.192 -18.164  0.00  0.00     0.297 C 
BRANCH  14  15
HETATM   15  C           1     -23.845  -7.264 -17.526  0.00  0.00     0.206 C 
BRANCH  15  16
HETATM   16  O           1     -23.888  -8.112 -16.411  0.00  0.00    -0.398 OA
HETATM   17  H           1     -24.250  -8.931 -16.703  0.00  0.00     0.209 HD
ENDBRANCH  15  16
ENDBRANCH  14  15
BRANCH  14  18
HETATM   18  N           1     -25.120  -6.547 -19.514  0.00  0.00    -0.064 N 
HETATM   19  H           1     -24.452  -5.745 -19.466  0.00  0.00     0.275 HD
HETATM   20  H           1     -24.774  -7.247 -20.207  0.00  0.00     0.275 HD
HETATM   21  H           1     -26.061  -6.200 -19.809  0.00  0.00     0.275 HD
ENDBRANCH  14  18
ENDBRANCH   1  14
TORSDOF 9
ENDMDL
MODEL 8
REMARK VINA RESULT:      -5.5     11.841     13.347
REMARK  9 active torsions:
REMARK  status: ('A' for Active; 'I' for Inactive)
REMARK       I    between atoms: C_2  and  N_15 
REMARK    1  A    between atoms: C_2  and  C_8 
REMARK    2  A    between atoms: C_8  and  C_12 
REMARK    3  A    between atoms: C_8  and  N_10 
REMARK    4  A    between atoms: O_11  and  C_12 
REMARK    5  A    between atoms: C_13  and  C_21 
REMARK    6  A    between atoms: C_13  and  C_18 
REMARK    7  A    between atoms: N_15  and  C_19 
REMARK    8  A    between atoms: C_18  and  C_19 
REMARK    9  A    between atoms: C_19  and  C_20 
ROOT
HETATM    1  C           1     -23.105  -4.304  -8.999  0.00  0.00     0.251 C 
HETATM    2  H           1     -22.273  -6.198  -8.937  0.00  0.00     0.163 HD
HETATM    3  O           1     -23.019  -3.170  -8.591  0.00  0.00    -0.271 OA
HETATM    4  N           1     -22.201  -5.248  -8.595  0.00  0.00    -0.345 N 
ENDROOT
BRANCH   4   5
HETATM    5  C           1     -21.138  -4.888  -7.677  0.00  0.00     0.186 C 
BRANCH   5   6
HETATM    6  C           1     -20.881  -6.043  -6.719  0.00  0.00     0.046 C 
BRANCH   6   7
HETATM    7  C           1     -20.897  -5.528  -5.286  0.00  0.00     0.116 C 
BRANCH   7   8
HETATM    8  C           1     -21.759  -6.430  -4.436  0.00  0.00     0.172 C 
HETATM    9  O           1     -22.091  -7.558  -4.861  0.00  0.00    -0.648 OA
HETATM   10  O           1     -22.140  -6.049  -3.309  0.00  0.00    -0.648 OA
ENDBRANCH   7   8
ENDBRANCH   6   7
ENDBRANCH   5   6
BRANCH   5  11
HETATM   11  C           1     -19.880  -4.591  -8.457  0.00  0.00     0.196 C 
HETATM   12  O           1     -19.880  -4.686  -9.702  0.00  0.00    -0.646 OA
HETATM   13  O           1     -18.838  -4.249  -7.855  0.00  0.00    -0.646 OA
ENDBRANCH   5  11
ENDBRANCH   4   5
BRANCH   1  14
HETATM   14  C           1     -24.212  -4.680  -9.954  0.00  0.00     0.297 C 
BRANCH  14  15
HETATM   15  C           1     -23.655  -4.766 -11.369  0.00  0.00     0.206 C 
BRANCH  15  16
HETATM   16  O           1     -22.441  -4.068 -11.437  0.00  0.00    -0.398 OA
HETATM   17  H           1     -22.637  -3.161 -11.276  0.00  0.00     0.209 HD
ENDBRANCH  15  16
ENDBRANCH  14  15
BRANCH  14  18
HETATM   18  N           1     -25.290  -3.638  -9.904  0.00  0.00    -0.064 N 
HETATM   19  H           1     -25.055  -2.862 -10.563  0.00  0.00     0.275 HD
HETATM   20  H           1     -26.201  -4.067 -10.181  0.00  0.00     0.275 HD
HETATM   21  H           1     -25.363  -3.259  -8.932  0.00  0.00     0.275 HD
ENDBRANCH  14  18
ENDBRANCH   1  14
TORSDOF 9
ENDMDL
MODEL 9
REMARK VINA RESULT:      -5.4      2.259      3.269
REMARK  9 active torsions:
REMARK  status: ('A' for Active; 'I' for Inactive)
REMARK       I    between atoms: C_2  and  N_15 
REMARK    1  A    between atoms: C_2  and  C_8 
REMARK    2  A    between atoms: C_8  and  C_12 
REMARK    3  A    between atoms: C_8  and  N_10 
REMARK    4  A    between atoms: O_11  and  C_12 
REMARK    5  A    between atoms: C_13  and  C_21 
REMARK    6  A    between atoms: C_13  and  C_18 
REMARK    7  A    between atoms: N_15  and  C_19 
REMARK    8  A    between atoms: C_18  and  C_19 
REMARK    9  A    between atoms: C_19  and  C_20 
ROOT
HETATM    1  C           1     -26.387  -6.657 -19.670  0.00  0.00     0.251 C 
HETATM    2  H           1     -26.122  -7.195 -17.690  0.00  0.00     0.163 HD
HETATM    3  O           1     -27.080  -6.041 -20.445  0.00  0.00    -0.271 OA
HETATM    4  N           1     -26.702  -6.679 -18.339  0.00  0.00    -0.345 N 
ENDROOT
BRANCH   4   5
HETATM    5  C           1     -27.866  -5.961 -17.857  0.00  0.00     0.186 C 
BRANCH   5   6
HETATM    6  C           1     -28.860  -6.947 -17.259  0.00  0.00     0.046 C 
BRANCH   6   7
HETATM    7  C           1     -30.256  -6.646 -17.786  0.00  0.00     0.116 C 
BRANCH   7   8
HETATM    8  C           1     -30.713  -7.774 -18.678  0.00  0.00     0.172 C 
HETATM    9  O           1     -31.919  -7.874 -18.991  0.00  0.00    -0.648 OA
HETATM   10  O           1     -29.886  -8.609 -19.103  0.00  0.00    -0.648 OA
ENDBRANCH   7   8
ENDBRANCH   6   7
ENDBRANCH   5   6
BRANCH   5  11
HETATM   11  C           1     -27.444  -4.968 -16.801  0.00  0.00     0.196 C 
HETATM   12  O           1     -26.443  -5.201 -16.090  0.00  0.00    -0.646 OA
HETATM   13  O           1     -28.095  -3.913 -16.639  0.00  0.00    -0.646 OA
ENDBRANCH   5  11
ENDBRANCH   4   5
BRANCH   1  14
HETATM   14  C           1     -25.176  -7.405 -20.171  0.00  0.00     0.297 C 
BRANCH  14  15
HETATM   15  C           1     -23.973  -7.065 -19.301  0.00  0.00     0.206 C 
BRANCH  15  16
HETATM   16  O           1     -24.107  -7.689 -18.053  0.00  0.00    -0.398 OA
HETATM   17  H           1     -25.024  -7.681 -17.840  0.00  0.00     0.209 HD
ENDBRANCH  15  16
ENDBRANCH  14  15
BRANCH  14  18
HETATM   18  N           1     -24.894  -7.007 -21.590  0.00  0.00    -0.064 N 
HETATM   19  H           1     -25.794  -6.928 -22.115  0.00  0.00     0.275 HD
HETATM   20  H           1     -24.403  -6.086 -21.601  0.00  0.00     0.275 HD
HETATM   21  H           1     -24.290  -7.731 -22.041  0.00  0.00     0.275 HD
ENDBRANCH  14  18
ENDBRANCH   1  14
TORSDOF 9
ENDMDL
