MODEL 1
REMARK VINA RESULT:      -7.4      0.000      0.000
REMARK  8 active torsions:
REMARK  status: ('A' for Active; 'I' for Inactive)
REMARK    1  A    between atoms: C_5  and  C_10 
REMARK    2  A    between atoms: C_5  and  C_17 
REMARK    3  A    between atoms: C_5  and  N_19 
REMARK    4  A    between atoms: C_6  and  C_23 
REMARK       I    between atoms: C_10  and  N_13 
REMARK    5  A    between atoms: C_11  and  O_24 
REMARK    6  A    between atoms: N_13  and  C_23 
REMARK    7  A    between atoms: C_17  and  C_21 
REMARK    8  A    between atoms: C_22  and  C_23 
ROOT
HETATM    1  C           1     -22.219  -5.321  -6.691  0.00  0.00     0.278 C 
ENDROOT
BRANCH   1   2
HETATM    2  C           1     -21.294  -5.891  -5.644  0.00  0.00     0.249 C 
HETATM    3  N           1     -21.753  -6.834  -4.764  0.00  0.00    -0.344 N 
HETATM    4  H           1     -22.714  -7.149  -4.816  0.00  0.00     0.163 HD
HETATM    5  O           1     -20.147  -5.515  -5.581  0.00  0.00    -0.271 OA
BRANCH   3   6
HETATM    6  C           1     -20.865  -7.381  -3.758  0.00  0.00     0.189 C 
BRANCH   6   7
HETATM    7  C           1     -21.611  -7.508  -2.435  0.00  0.00     0.010 C 
HETATM    8  C           1     -22.171  -6.149  -2.035  0.00  0.00     0.012 C 
HETATM    9  C           1     -20.652  -7.998  -1.358  0.00  0.00     0.012 C 
ENDBRANCH   6   7
BRANCH   6  10
HETATM   10  C           1     -20.386  -8.742  -4.196  0.00  0.00     0.197 C 
HETATM   11  O           1     -19.164  -8.950  -4.366  0.00  0.00    -0.646 OA
HETATM   12  O           1     -21.209  -9.663  -4.390  0.00  0.00    -0.646 OA
ENDBRANCH   6  10
ENDBRANCH   3   6
ENDBRANCH   1   2
BRANCH   1  13
HETATM   13  C           1     -21.678  -3.981  -7.172  0.00  0.00     0.081 C 
BRANCH  13  14
HETATM   14  C           1     -21.680  -3.950  -8.669  0.00  0.00    -0.056 A 
HETATM   15  C           1     -20.492  -4.156  -9.371  0.00  0.00     0.010 A 
HETATM   16  C           1     -20.493  -4.128 -10.765  0.00  0.00     0.037 A 
HETATM   17  C           1     -21.681  -3.894 -11.458  0.00  0.00     0.065 A 
HETATM   18  C           1     -22.868  -3.687 -10.755  0.00  0.00     0.037 A 
HETATM   19  C           1     -22.868  -3.716  -9.360  0.00  0.00     0.010 A 
BRANCH  17  20
HETATM   20  O           1     -21.681  -3.866 -12.812  0.00  0.00    -0.361 OA
HETATM   21  H           1     -21.173  -4.630 -13.129  0.00  0.00     0.217 HD
ENDBRANCH  17  20
ENDBRANCH  13  14
ENDBRANCH   1  13
BRANCH   1  22
HETATM   22  N           1     -23.583  -5.127  -6.100  0.00  0.00    -0.066 N 
HETATM   23  H           1     -24.306  -5.249  -6.845  0.00  0.00     0.275 HD
HETATM   24  H           1     -23.655  -4.164  -5.701  0.00  0.00     0.275 HD
HETATM   25  H           1     -23.740  -5.830  -5.344  0.00  0.00     0.275 HD
ENDBRANCH   1  22
TORSDOF 8
ENDMDL
MODEL 2
REMARK VINA RESULT:      -7.3      0.410      1.154
REMARK  8 active torsions:
REMARK  status: ('A' for Active; 'I' for Inactive)
REMARK    1  A    between atoms: C_5  and  C_10 
REMARK    2  A    between atoms: C_5  and  C_17 
REMARK    3  A    between atoms: C_5  and  N_19 
REMARK    4  A    between atoms: C_6  and  C_23 
REMARK       I    between atoms: C_10  and  N_13 
REMARK    5  A    between atoms: C_11  and  O_24 
REMARK    6  A    between atoms: N_13  and  C_23 
REMARK    7  A    between atoms: C_17  and  C_21 
REMARK    8  A    between atoms: C_22  and  C_23 
ROOT
HETATM    1  C           1     -22.222  -5.428  -6.769  0.00  0.00     0.278 C 
ENDROOT
BRANCH   1   2
HETATM    2  C           1     -21.338  -6.181  -5.806  0.00  0.00     0.249 C 
HETATM    3  N           1     -21.896  -6.895  -4.778  0.00  0.00    -0.344 N 
HETATM    4  H           1     -22.901  -6.918  -4.666  0.00  0.00     0.163 HD
HETATM    5  O           1     -20.137  -6.155  -5.940  0.00  0.00    -0.271 OA
BRANCH   3   6
HETATM    6  C           1     -21.046  -7.618  -3.853  0.00  0.00     0.189 C 
BRANCH   6   7
HETATM    7  C           1     -21.623  -7.515  -2.446  0.00  0.00     0.010 C 
HETATM    8  C           1     -22.043  -6.076  -2.173  0.00  0.00     0.012 C 
HETATM    9  C           1     -20.566  -7.935  -1.434  0.00  0.00     0.012 C 
ENDBRANCH   6   7
BRANCH   6  10
HETATM   10  C           1     -20.977  -9.068  -4.262  0.00  0.00     0.197 C 
HETATM   11  O           1     -19.961  -9.505  -4.845  0.00  0.00    -0.646 OA
HETATM   12  O           1     -21.935  -9.834  -4.018  0.00  0.00    -0.646 OA
ENDBRANCH   6  10
ENDBRANCH   3   6
ENDBRANCH   1   2
BRANCH   1  13
HETATM   13  C           1     -21.529  -4.141  -7.195  0.00  0.00     0.081 C 
BRANCH  13  14
HETATM   14  C           1     -21.553  -4.031  -8.688  0.00  0.00    -0.056 A 
HETATM   15  C           1     -22.738  -3.696  -9.343  0.00  0.00     0.010 A 
HETATM   16  C           1     -22.762  -3.594 -10.733  0.00  0.00     0.037 A 
HETATM   17  C           1     -21.600  -3.826 -11.470  0.00  0.00     0.065 A 
HETATM   18  C           1     -20.415  -4.162 -10.815  0.00  0.00     0.037 A 
HETATM   19  C           1     -20.391  -4.264  -9.423  0.00  0.00     0.010 A 
BRANCH  17  20
HETATM   20  O           1     -21.623  -3.727 -12.820  0.00  0.00    -0.361 OA
HETATM   21  H           1     -20.947  -3.083 -13.086  0.00  0.00     0.217 HD
ENDBRANCH  17  20
ENDBRANCH  13  14
ENDBRANCH   1  13
BRANCH   1  22
HETATM   22  N           1     -23.523  -5.097  -6.099  0.00  0.00    -0.066 N 
HETATM   23  H           1     -23.335  -4.576  -5.213  0.00  0.00     0.275 HD
HETATM   24  H           1     -24.036  -5.980  -5.882  0.00  0.00     0.275 HD
HETATM   25  H           1     -24.102  -4.504  -6.736  0.00  0.00     0.275 HD
ENDBRANCH   1  22
TORSDOF 8
ENDMDL
MODEL 3
REMARK VINA RESULT:      -7.2      2.095      7.612
REMARK  8 active torsions:
REMARK  status: ('A' for Active; 'I' for Inactive)
REMARK    1  A    between atoms: C_5  and  C_10 
REMARK    2  A    between atoms: C_5  and  C_17 
REMARK    3  A    between atoms: C_5  and  N_19 
REMARK    4  A    between atoms: C_6  and  C_23 
REMARK       I    between atoms: C_10  and  N_13 
REMARK    5  A    between atoms: C_11  and  O_24 
REMARK    6  A    between atoms: N_13  and  C_23 
REMARK    7  A    between atoms: C_17  and  C_21 
REMARK    8  A    between atoms: C_22  and  C_23 
ROOT
HETATM    1  C           1     -21.164  -5.685  -6.908  0.00  0.00     0.278 C 
ENDROOT
BRANCH   1   2
HETATM    2  C           1     -21.689  -4.523  -7.716  0.00  0.00     0.249 C 
HETATM    3  N           1     -22.196  -4.734  -8.970  0.00  0.00    -0.344 N 
HETATM    4  H           1     -22.218  -5.670  -9.356  0.00  0.00     0.163 HD
HETATM    5  O           1     -21.661  -3.406  -7.256  0.00  0.00    -0.271 OA
BRANCH   3   6
HETATM    6  C           1     -22.699  -3.618  -9.746  0.00  0.00     0.189 C 
BRANCH   6   7
HETATM    7  C           1     -21.909  -3.503 -11.044  0.00  0.00     0.010 C 
HETATM    8  C           1     -22.246  -4.679 -11.951  0.00  0.00     0.012 C 
HETATM    9  C           1     -20.418  -3.516 -10.732  0.00  0.00     0.012 C 
ENDBRANCH   6   7
BRANCH   6  10
HETATM   10  C           1     -24.156  -3.843 -10.064  0.00  0.00     0.197 C 
HETATM   11  O           1     -24.818  -2.945 -10.629  0.00  0.00    -0.646 OA
HETATM   12  O           1     -24.702  -4.927  -9.763  0.00  0.00    -0.646 OA
ENDBRANCH   6  10
ENDBRANCH   3   6
ENDBRANCH   1   2
BRANCH   1  13
HETATM   13  C           1     -20.893  -5.230  -5.480  0.00  0.00     0.081 C 
BRANCH  13  14
HETATM   14  C           1     -21.165  -6.360  -4.536  0.00  0.00    -0.056 A 
HETATM   15  C           1     -21.280  -6.113  -3.168  0.00  0.00     0.010 A 
HETATM   16  C           1     -21.534  -7.165  -2.289  0.00  0.00     0.037 A 
HETATM   17  C           1     -21.674  -8.464  -2.776  0.00  0.00     0.065 A 
HETATM   18  C           1     -21.560  -8.710  -4.144  0.00  0.00     0.037 A 
HETATM   19  C           1     -21.305  -7.658  -5.025  0.00  0.00     0.010 A 
BRANCH  17  20
HETATM   20  O           1     -21.921  -9.485  -1.922  0.00  0.00    -0.361 OA
HETATM   21  H           1     -22.807  -9.356  -1.546  0.00  0.00     0.217 HD
ENDBRANCH  17  20
ENDBRANCH  13  14
ENDBRANCH   1  13
BRANCH   1  22
HETATM   22  N           1     -19.891  -6.187  -7.523  0.00  0.00    -0.066 N 
HETATM   23  H           1     -19.250  -6.522  -6.769  0.00  0.00     0.275 HD
HETATM   24  H           1     -19.432  -5.412  -8.052  0.00  0.00     0.275 HD
HETATM   25  H           1     -20.105  -6.975  -8.174  0.00  0.00     0.275 HD
ENDBRANCH   1  22
TORSDOF 8
ENDMDL
MODEL 4
REMARK VINA RESULT:      -7.1     13.198     16.741
REMARK  8 active torsions:
REMARK  status: ('A' for Active; 'I' for Inactive)
REMARK    1  A    between atoms: C_5  and  C_10 
REMARK    2  A    between atoms: C_5  and  C_17 
REMARK    3  A    between atoms: C_5  and  N_19 
REMARK    4  A    between atoms: C_6  and  C_23 
REMARK       I    between atoms: C_10  and  N_13 
REMARK    5  A    between atoms: C_11  and  O_24 
REMARK    6  A    between atoms: N_13  and  C_23 
REMARK    7  A    between atoms: C_17  and  C_21 
REMARK    8  A    between atoms: C_22  and  C_23 
ROOT
HETATM    1  C           1     -34.557  -2.476 -11.756  0.00  0.00     0.278 C 
ENDROOT
BRANCH   1   2
HETATM    2  C           1     -35.388  -1.655 -12.711  0.00  0.00     0.249 C 
HETATM    3  N           1     -34.851  -1.233 -13.898  0.00  0.00    -0.344 N 
HETATM    4  H           1     -33.897  -1.472 -14.135  0.00  0.00     0.163 HD
HETATM    5  O           1     -36.527  -1.368 -12.427  0.00  0.00    -0.271 OA
BRANCH   3   6
HETATM    6  C           1     -35.650  -0.443 -14.814  0.00  0.00     0.189 C 
BRANCH   6   7
HETATM    7  C           1     -34.989   0.914 -15.024  0.00  0.00     0.010 C 
HETATM    8  C           1     -34.542   1.476 -13.681  0.00  0.00     0.012 C 
HETATM    9  C           1     -35.987   1.869 -15.666  0.00  0.00     0.012 C 
ENDBRANCH   6   7
BRANCH   6  10
HETATM   10  C           1     -35.755  -1.160 -16.137  0.00  0.00     0.197 C 
HETATM   11  O           1     -34.760  -1.758 -16.604  0.00  0.00    -0.646 OA
HETATM   12  O           1     -36.835  -1.159 -16.765  0.00  0.00    -0.646 OA
ENDBRANCH   6  10
ENDBRANCH   3   6
ENDBRANCH   1   2
BRANCH   1  13
HETATM   13  C           1     -35.472  -3.349 -10.907  0.00  0.00     0.081 C 
BRANCH  13  14
HETATM   14  C           1     -34.864  -4.709 -10.756  0.00  0.00    -0.056 A 
HETATM   15  C           1     -33.605  -4.973 -11.293  0.00  0.00     0.010 A 
HETATM   16  C           1     -33.038  -6.240 -11.152  0.00  0.00     0.037 A 
HETATM   17  C           1     -33.731  -7.242 -10.473  0.00  0.00     0.065 A 
HETATM   18  C           1     -34.990  -6.978  -9.936  0.00  0.00     0.037 A 
HETATM   19  C           1     -35.557  -5.711 -10.077  0.00  0.00     0.010 A 
BRANCH  17  20
HETATM   20  O           1     -33.181  -8.473 -10.336  0.00  0.00    -0.361 OA
HETATM   21  H           1     -32.224  -8.393 -10.486  0.00  0.00     0.217 HD
ENDBRANCH  17  20
ENDBRANCH  13  14
ENDBRANCH   1  13
BRANCH   1  22
HETATM   22  N           1     -33.769  -1.563 -10.865  0.00  0.00    -0.066 N 
HETATM   23  H           1     -32.925  -2.066 -10.510  0.00  0.00     0.275 HD
HETATM   24  H           1     -34.364  -1.268 -10.058  0.00  0.00     0.275 HD
HETATM   25  H           1     -33.471  -0.720 -11.405  0.00  0.00     0.275 HD
ENDBRANCH   1  22
TORSDOF 8
ENDMDL
MODEL 5
REMARK VINA RESULT:      -6.9     13.473     17.101
REMARK  8 active torsions:
REMARK  status: ('A' for Active; 'I' for Inactive)
REMARK    1  A    between atoms: C_5  and  C_10 
REMARK    2  A    between atoms: C_5  and  C_17 
REMARK    3  A    between atoms: C_5  and  N_19 
REMARK    4  A    between atoms: C_6  and  C_23 
REMARK       I    between atoms: C_10  and  N_13 
REMARK    5  A    between atoms: C_11  and  O_24 
REMARK    6  A    between atoms: N_13  and  C_23 
REMARK    7  A    between atoms: C_17  and  C_21 
REMARK    8  A    between atoms: C_22  and  C_23 
ROOT
HETATM    1  C           1     -35.795  -0.631 -11.343  0.00  0.00     0.278 C 
ENDROOT
BRANCH   1   2
HETATM    2  C           1     -36.404  -0.728 -12.720  0.00  0.00     0.249 C 
HETATM    3  N           1     -35.601  -0.680 -13.829  0.00  0.00    -0.344 N 
HETATM    4  H           1     -34.600  -0.579 -13.724  0.00  0.00     0.163 HD
HETATM    5  O           1     -37.600  -0.848 -12.845  0.00  0.00    -0.271 OA
BRANCH   3   6
HETATM    6  C           1     -36.186  -0.773 -15.152  0.00  0.00     0.189 C 
BRANCH   6   7
HETATM    7  C           1     -36.224   0.610 -15.789  0.00  0.00     0.010 C 
HETATM    8  C           1     -35.318   1.555 -15.011  0.00  0.00     0.012 C 
HETATM    9  C           1     -37.652   1.140 -15.762  0.00  0.00     0.012 C 
ENDBRANCH   6   7
BRANCH   6  10
HETATM   10  C           1     -35.353  -1.697 -16.006  0.00  0.00     0.197 C 
HETATM   11  O           1     -34.737  -2.649 -15.478  0.00  0.00    -0.646 OA
HETATM   12  O           1     -35.280  -1.512 -17.240  0.00  0.00    -0.646 OA
ENDBRANCH   6  10
ENDBRANCH   3   6
ENDBRANCH   1   2
BRANCH   1  13
HETATM   13  C           1     -36.121  -1.891 -10.552  0.00  0.00     0.081 C 
BRANCH  13  14
HETATM   14  C           1     -35.112  -2.951 -10.864  0.00  0.00    -0.056 A 
HETATM   15  C           1     -35.489  -4.294 -10.864  0.00  0.00     0.010 A 
HETATM   16  C           1     -34.549  -5.282 -11.154  0.00  0.00     0.037 A 
HETATM   17  C           1     -33.232  -4.929 -11.447  0.00  0.00     0.065 A 
HETATM   18  C           1     -32.855  -3.586 -11.447  0.00  0.00     0.037 A 
HETATM   19  C           1     -33.795  -2.597 -11.156  0.00  0.00     0.010 A 
BRANCH  17  20
HETATM   20  O           1     -32.319  -5.889 -11.729  0.00  0.00    -0.361 OA
HETATM   21  H           1     -32.551  -6.281 -12.587  0.00  0.00     0.217 HD
ENDBRANCH  17  20
ENDBRANCH  13  14
ENDBRANCH   1  13
BRANCH   1  22
HETATM   22  N           1     -36.357   0.565 -10.631  0.00  0.00    -0.066 N 
HETATM   23  H           1     -37.368   0.669 -10.872  0.00  0.00     0.275 HD
HETATM   24  H           1     -35.837   1.421 -10.928  0.00  0.00     0.275 HD
HETATM   25  H           1     -36.256   0.436  -9.599  0.00  0.00     0.275 HD
ENDBRANCH   1  22
TORSDOF 8
ENDMDL
MODEL 6
REMARK VINA RESULT:      -6.8     13.162     16.342
REMARK  8 active torsions:
REMARK  status: ('A' for Active; 'I' for Inactive)
REMARK    1  A    between atoms: C_5  and  C_10 
REMARK    2  A    between atoms: C_5  and  C_17 
REMARK    3  A    between atoms: C_5  and  N_19 
REMARK    4  A    between atoms: C_6  and  C_23 
REMARK       I    between atoms: C_10  and  N_13 
REMARK    5  A    between atoms: C_11  and  O_24 
REMARK    6  A    between atoms: N_13  and  C_23 
REMARK    7  A    between atoms: C_17  and  C_21 
REMARK    8  A    between atoms: C_22  and  C_23 
ROOT
HETATM    1  C           1     -33.958  -2.945 -11.362  0.00  0.00     0.278 C 
ENDROOT
BRANCH   1   2
HETATM    2  C           1     -34.590  -2.347 -12.595  0.00  0.00     0.249 C 
HETATM    3  N           1     -35.068  -1.064 -12.566  0.00  0.00    -0.344 N 
HETATM    4  H           1     -34.997  -0.517 -11.718  0.00  0.00     0.163 HD
HETATM    5  O           1     -34.676  -3.000 -13.608  0.00  0.00    -0.271 OA
BRANCH   3   6
HETATM    6  C           1     -35.675  -0.490 -13.750  0.00  0.00     0.189 C 
BRANCH   6   7
HETATM    7  C           1     -37.014   0.138 -13.382  0.00  0.00     0.010 C 
HETATM    8  C           1     -37.414  -0.303 -11.980  0.00  0.00     0.012 C 
HETATM    9  C           1     -38.075  -0.312 -14.378  0.00  0.00     0.012 C 
ENDBRANCH   6   7
BRANCH   6  10
HETATM   10  C           1     -34.764   0.569 -14.320  0.00  0.00     0.197 C 
HETATM   11  O           1     -34.411   1.537 -13.611  0.00  0.00    -0.646 OA
HETATM   12  O           1     -34.361   0.478 -15.500  0.00  0.00    -0.646 OA
ENDBRANCH   6  10
ENDBRANCH   3   6
ENDBRANCH   1   2
BRANCH   1  13
HETATM   13  C           1     -35.004  -3.738 -10.588  0.00  0.00     0.081 C 
BRANCH  13  14
HETATM   14  C           1     -34.581  -5.172 -10.503  0.00  0.00    -0.056 A 
HETATM   15  C           1     -33.368  -5.574 -11.063  0.00  0.00     0.010 A 
HETATM   16  C           1     -32.974  -6.910 -10.984  0.00  0.00     0.037 A 
HETATM   17  C           1     -33.791  -7.842 -10.346  0.00  0.00     0.065 A 
HETATM   18  C           1     -35.003  -7.439  -9.786  0.00  0.00     0.037 A 
HETATM   19  C           1     -35.398  -6.103  -9.865  0.00  0.00     0.010 A 
BRANCH  17  20
HETATM   20  O           1     -33.407  -9.139 -10.269  0.00  0.00    -0.361 OA
HETATM   21  H           1     -33.904  -9.639 -10.938  0.00  0.00     0.217 HD
ENDBRANCH  17  20
ENDBRANCH  13  14
ENDBRANCH   1  13
BRANCH   1  22
HETATM   22  N           1     -33.421  -1.847 -10.493  0.00  0.00    -0.066 N 
HETATM   23  H           1     -33.002  -2.260  -9.629  0.00  0.00     0.275 HD
HETATM   24  H           1     -34.198  -1.201 -10.228  0.00  0.00     0.275 HD
HETATM   25  H           1     -32.689  -1.315 -11.015  0.00  0.00     0.275 HD
ENDBRANCH   1  22
TORSDOF 8
ENDMDL
MODEL 7
REMARK VINA RESULT:      -6.8      1.753      2.559
REMARK  8 active torsions:
REMARK  status: ('A' for Active; 'I' for Inactive)
REMARK    1  A    between atoms: C_5  and  C_10 
REMARK    2  A    between atoms: C_5  and  C_17 
REMARK    3  A    between atoms: C_5  and  N_19 
REMARK    4  A    between atoms: C_6  and  C_23 
REMARK       I    between atoms: C_10  and  N_13 
REMARK    5  A    between atoms: C_11  and  O_24 
REMARK    6  A    between atoms: N_13  and  C_23 
REMARK    7  A    between atoms: C_17  and  C_21 
REMARK    8  A    between atoms: C_22  and  C_23 
ROOT
HETATM    1  C           1     -20.417  -5.190  -6.430  0.00  0.00     0.278 C 
ENDROOT
BRANCH   1   2
HETATM    2  C           1     -21.290  -5.975  -5.483  0.00  0.00     0.249 C 
HETATM    3  N           1     -20.722  -6.834  -4.579  0.00  0.00    -0.344 N 
HETATM    4  H           1     -19.717  -6.942  -4.548  0.00  0.00     0.163 HD
HETATM    5  O           1     -22.491  -5.847  -5.521  0.00  0.00    -0.271 OA
BRANCH   3   6
HETATM    6  C           1     -21.561  -7.588  -3.670  0.00  0.00     0.189 C 
BRANCH   6   7
HETATM    7  C           1     -20.982  -8.985  -3.484  0.00  0.00     0.010 C 
HETATM    8  C           1     -19.650  -9.085  -4.215  0.00  0.00     0.012 C 
HETATM    9  C           1     -21.951 -10.014  -4.052  0.00  0.00     0.012 C 
ENDBRANCH   6   7
BRANCH   6  10
HETATM   10  C           1     -21.616  -6.885  -2.336  0.00  0.00     0.197 C 
HETATM   11  O           1     -20.977  -7.342  -1.363  0.00  0.00    -0.646 OA
HETATM   12  O           1     -22.298  -5.846  -2.204  0.00  0.00    -0.646 OA
ENDBRANCH   6  10
ENDBRANCH   3   6
ENDBRANCH   1   2
BRANCH   1  13
HETATM   13  C           1     -21.169  -3.957  -6.913  0.00  0.00     0.081 C 
BRANCH  13  14
HETATM   14  C           1     -21.439  -4.079  -8.380  0.00  0.00    -0.056 A 
HETATM   15  C           1     -22.726  -4.376  -8.829  0.00  0.00     0.010 A 
HETATM   16  C           1     -22.977  -4.489 -10.196  0.00  0.00     0.037 A 
HETATM   17  C           1     -21.944  -4.305 -11.114  0.00  0.00     0.065 A 
HETATM   18  C           1     -20.657  -4.009 -10.664  0.00  0.00     0.037 A 
HETATM   19  C           1     -20.405  -3.895  -9.297  0.00  0.00     0.010 A 
BRANCH  17  20
HETATM   20  O           1     -22.188  -4.416 -12.442  0.00  0.00    -0.361 OA
HETATM   21  H           1     -21.505  -3.915 -12.916  0.00  0.00     0.217 HD
ENDBRANCH  17  20
ENDBRANCH  13  14
ENDBRANCH   1  13
BRANCH   1  22
HETATM   22  N           1     -20.058  -6.049  -7.607  0.00  0.00    -0.066 N 
HETATM   23  H           1     -19.292  -6.706  -7.337  0.00  0.00     0.275 HD
HETATM   24  H           1     -19.736  -5.442  -8.394  0.00  0.00     0.275 HD
HETATM   25  H           1     -20.896  -6.595  -7.908  0.00  0.00     0.275 HD
ENDBRANCH   1  22
TORSDOF 8
ENDMDL
MODEL 8
REMARK VINA RESULT:      -6.6      1.688      2.446
REMARK  8 active torsions:
REMARK  status: ('A' for Active; 'I' for Inactive)
REMARK    1  A    between atoms: C_5  and  C_10 
REMARK    2  A    between atoms: C_5  and  C_17 
REMARK    3  A    between atoms: C_5  and  N_19 
REMARK    4  A    between atoms: C_6  and  C_23 
REMARK       I    between atoms: C_10  and  N_13 
REMARK    5  A    between atoms: C_11  and  O_24 
REMARK    6  A    between atoms: N_13  and  C_23 
REMARK    7  A    between atoms: C_17  and  C_21 
REMARK    8  A    between atoms: C_22  and  C_23 
ROOT
HETATM    1  C           1     -21.333  -6.169  -5.683  0.00  0.00     0.278 C 
ENDROOT
BRANCH   1   2
HETATM    2  C           1     -20.375  -7.333  -5.614  0.00  0.00     0.249 C 
HETATM    3  N           1     -20.523  -8.285  -4.640  0.00  0.00    -0.344 N 
HETATM    4  H           1     -21.274  -8.207  -3.967  0.00  0.00     0.163 HD
HETATM    5  O           1     -19.477  -7.426  -6.417  0.00  0.00    -0.271 OA
BRANCH   3   6
HETATM    6  C           1     -19.603  -9.403  -4.574  0.00  0.00     0.189 C 
BRANCH   6   7
HETATM    7  C           1     -19.176  -9.625  -3.128  0.00  0.00     0.010 C 
HETATM    8  C           1     -19.886  -8.622  -2.228  0.00  0.00     0.012 C 
HETATM    9  C           1     -17.669  -9.433  -3.010  0.00  0.00     0.012 C 
ENDBRANCH   6   7
BRANCH   6  10
HETATM   10  C           1     -20.283 -10.645  -5.093  0.00  0.00     0.197 C 
HETATM   11  O           1     -20.378 -10.836  -6.325  0.00  0.00    -0.646 OA
HETATM   12  O           1     -20.750 -11.484  -4.293  0.00  0.00    -0.646 OA
ENDBRANCH   6  10
ENDBRANCH   3   6
ENDBRANCH   1   2
BRANCH   1  13
HETATM   13  C           1     -20.583  -4.919  -6.127  0.00  0.00     0.081 C 
BRANCH  13  14
HETATM   14  C           1     -21.034  -4.528  -7.500  0.00  0.00    -0.056 A 
HETATM   15  C           1     -22.358  -4.146  -7.715  0.00  0.00     0.010 A 
HETATM   16  C           1     -22.778  -3.781  -8.994  0.00  0.00     0.037 A 
HETATM   17  C           1     -21.875  -3.798 -10.057  0.00  0.00     0.065 A 
HETATM   18  C           1     -20.551  -4.180  -9.840  0.00  0.00     0.037 A 
HETATM   19  C           1     -20.130  -4.545  -8.561  0.00  0.00     0.010 A 
BRANCH  17  20
HETATM   20  O           1     -22.284  -3.444 -11.299  0.00  0.00    -0.361 OA
HETATM   21  H           1     -21.690  -2.747 -11.623  0.00  0.00     0.217 HD
ENDBRANCH  17  20
ENDBRANCH  13  14
ENDBRANCH   1  13
BRANCH   1  22
HETATM   22  N           1     -21.934  -5.936  -4.329  0.00  0.00    -0.066 N 
HETATM   23  H           1     -21.230  -6.162  -3.591  0.00  0.00     0.275 HD
HETATM   24  H           1     -22.772  -6.549  -4.210  0.00  0.00     0.275 HD
HETATM   25  H           1     -22.220  -4.934  -4.242  0.00  0.00     0.275 HD
ENDBRANCH   1  22
TORSDOF 8
ENDMDL
MODEL 9
REMARK VINA RESULT:      -6.5      2.076      3.289
REMARK  8 active torsions:
REMARK  status: ('A' for Active; 'I' for Inactive)
REMARK    1  A    between atoms: C_5  and  C_10 
REMARK    2  A    between atoms: C_5  and  C_17 
REMARK    3  A    between atoms: C_5  and  N_19 
REMARK    4  A    between atoms: C_6  and  C_23 
REMARK       I    between atoms: C_10  and  N_13 
REMARK    5  A    between atoms: C_11  and  O_24 
REMARK    6  A    between atoms: N_13  and  C_23 
REMARK    7  A    between atoms: C_17  and  C_21 
REMARK    8  A    between atoms: C_22  and  C_23 
ROOT
HETATM    1  C           1     -20.350  -7.599  -5.056  0.00  0.00     0.278 C 
ENDROOT
BRANCH   1   2
HETATM    2  C           1     -20.318  -8.263  -3.702  0.00  0.00     0.249 C 
HETATM    3  N           1     -21.455  -8.322  -2.940  0.00  0.00    -0.344 N 
HETATM    4  H           1     -22.317  -7.919  -3.287  0.00  0.00     0.163 HD
HETATM    5  O           1     -19.289  -8.743  -3.288  0.00  0.00    -0.271 OA
BRANCH   3   6
HETATM    6  C           1     -21.424  -8.959  -1.639  0.00  0.00     0.189 C 
BRANCH   6   7
HETATM    7  C           1     -22.276  -8.160  -0.661  0.00  0.00     0.010 C 
HETATM    8  C           1     -22.312  -6.700  -1.093  0.00  0.00     0.012 C 
HETATM    9  C           1     -21.672  -8.261   0.734  0.00  0.00     0.012 C 
ENDBRANCH   6   7
BRANCH   6  10
HETATM   10  C           1     -21.971 -10.360  -1.753  0.00  0.00     0.197 C 
HETATM   11  O           1     -23.164 -10.591  -1.456  0.00  0.00    -0.646 OA
HETATM   12  O           1     -21.233 -11.291  -2.144  0.00  0.00    -0.646 OA
ENDBRANCH   6  10
ENDBRANCH   3   6
ENDBRANCH   1   2
BRANCH   1  13
HETATM   13  C           1     -20.910  -6.189  -4.918  0.00  0.00     0.081 C 
BRANCH  13  14
HETATM   14  C           1     -20.908  -5.518  -6.256  0.00  0.00    -0.056 A 
HETATM   15  C           1     -22.090  -4.982  -6.769  0.00  0.00     0.010 A 
HETATM   16  C           1     -22.088  -4.357  -8.015  0.00  0.00     0.037 A 
HETATM   17  C           1     -20.906  -4.266  -8.749  0.00  0.00     0.065 A 
HETATM   18  C           1     -19.725  -4.802  -8.236  0.00  0.00     0.037 A 
HETATM   19  C           1     -19.725  -5.428  -6.989  0.00  0.00     0.010 A 
BRANCH  17  20
HETATM   20  O           1     -20.905  -3.658  -9.960  0.00  0.00    -0.361 OA
HETATM   21  H           1     -21.763  -3.828 -10.382  0.00  0.00     0.217 HD
ENDBRANCH  17  20
ENDBRANCH  13  14
ENDBRANCH   1  13
BRANCH   1  22
HETATM   22  N           1     -21.221  -8.394  -5.983  0.00  0.00    -0.066 N 
HETATM   23  H           1     -21.990  -8.843  -5.437  0.00  0.00     0.275 HD
HETATM   24  H           1     -20.649  -9.132  -6.451  0.00  0.00     0.275 HD
HETATM   25  H           1     -21.631  -7.761  -6.705  0.00  0.00     0.275 HD
ENDBRANCH   1  22
TORSDOF 8
ENDMDL
