MODEL 1
REMARK VINA RESULT:      -4.9      0.000      0.000
REMARK  7 active torsions:
REMARK  status: ('A' for Active; 'I' for Inactive)
REMARK    1  A    between atoms: C_1  and  C_7 
REMARK    2  A    between atoms: C_1  and  C_9 
REMARK    3  A    between atoms: N_2  and  C_8 
REMARK       I    between atoms: N_2  and  C_12 
REMARK    4  A    between atoms: N_3  and  C_7 
REMARK    5  A    between atoms: C_7  and  C_12 
REMARK    6  A    between atoms: C_8  and  C_10 
REMARK    7  A    between atoms: C_9  and  S_11 
ROOT
HETATM    1  C           1     -20.666  -5.293  -7.273  0.00  0.00     0.275 C 
ENDROOT
BRANCH   1   2
HETATM    2  C           1     -20.450  -5.588  -5.795  0.00  0.00     0.053 C 
BRANCH   2   3
HETATM    3  C           1     -20.252  -7.085  -5.598  0.00  0.00     0.076 C 
BRANCH   3   4
HETATM    4  S           1     -21.421  -7.692  -4.349  0.00  0.00    -0.173 SA
HETATM    5  C           1     -21.466  -6.169  -3.363  0.00  0.00     0.089 C 
ENDBRANCH   3   4
ENDBRANCH   2   3
ENDBRANCH   1   2
BRANCH   1   6
HETATM    6  N           1     -19.688  -4.249  -7.722  0.00  0.00    -0.066 N 
HETATM    7  H           1     -18.876  -4.225  -7.064  0.00  0.00     0.275 HD
HETATM    8  H           1     -19.350  -4.478  -8.683  0.00  0.00     0.275 HD
HETATM    9  H           1     -20.155  -3.314  -7.730  0.00  0.00     0.275 HD
ENDBRANCH   1   6
BRANCH   1  10
HETATM   10  C           1     -22.072  -4.787  -7.485  0.00  0.00     0.248 C 
HETATM   11  N           1     -22.458  -4.333  -8.717  0.00  0.00    -0.349 N 
HETATM   12  H           1     -21.800  -4.336  -9.486  0.00  0.00     0.163 HD
HETATM   13  O           1     -22.858  -4.783  -6.567  0.00  0.00    -0.271 OA
BRANCH  11  14
HETATM   14  C           1     -23.809  -3.847  -8.921  0.00  0.00     0.235 C 
BRANCH  14  15
HETATM   15  C           1     -24.057  -3.648 -10.396  0.00  0.00     0.191 C 
HETATM   16  O           1     -25.166  -3.231 -10.792  0.00  0.00    -0.647 OA
HETATM   17  O           1     -23.153  -3.901 -11.221  0.00  0.00    -0.647 OA
ENDBRANCH  14  15
ENDBRANCH  11  14
ENDBRANCH   1  10
TORSDOF 7
ENDMDL
MODEL 2
REMARK VINA RESULT:      -4.9     10.393     12.584
REMARK  7 active torsions:
REMARK  status: ('A' for Active; 'I' for Inactive)
REMARK    1  A    between atoms: C_1  and  C_7 
REMARK    2  A    between atoms: C_1  and  C_9 
REMARK    3  A    between atoms: N_2  and  C_8 
REMARK       I    between atoms: N_2  and  C_12 
REMARK    4  A    between atoms: N_3  and  C_7 
REMARK    5  A    between atoms: C_7  and  C_12 
REMARK    6  A    between atoms: C_8  and  C_10 
REMARK    7  A    between atoms: C_9  and  S_11 
ROOT
HETATM    1  C           1     -29.593  -6.506 -18.071  0.00  0.00     0.275 C 
ENDROOT
BRANCH   1   2
HETATM    2  C           1     -29.932  -6.087 -16.648  0.00  0.00     0.053 C 
BRANCH   2   3
HETATM    3  C           1     -30.932  -4.939 -16.679  0.00  0.00     0.076 C 
BRANCH   3   4
HETATM    4  S           1     -30.379  -3.686 -17.870  0.00  0.00    -0.173 SA
HETATM    5  C           1     -28.865  -3.222 -16.982  0.00  0.00     0.089 C 
ENDBRANCH   3   4
ENDBRANCH   2   3
ENDBRANCH   1   2
BRANCH   1   6
HETATM    6  N           1     -30.100  -7.895 -18.318  0.00  0.00    -0.066 N 
HETATM    7  H           1     -29.510  -8.580 -17.793  0.00  0.00     0.275 HD
HETATM    8  H           1     -31.090  -7.967 -17.993  0.00  0.00     0.275 HD
HETATM    9  H           1     -30.052  -8.108 -19.340  0.00  0.00     0.275 HD
ENDBRANCH   1   6
BRANCH   1  10
HETATM   10  C           1     -28.096  -6.478 -18.262  0.00  0.00     0.248 C 
HETATM   11  N           1     -27.266  -6.537 -17.175  0.00  0.00    -0.349 N 
HETATM   12  H           1     -27.656  -6.600 -16.243  0.00  0.00     0.163 HD
HETATM   13  O           1     -27.629  -6.403 -19.374  0.00  0.00    -0.271 OA
BRANCH  11  14
HETATM   14  C           1     -25.828  -6.510 -17.358  0.00  0.00     0.235 C 
BRANCH  14  15
HETATM   15  C           1     -25.151  -7.019 -16.109  0.00  0.00     0.191 C 
HETATM   16  O           1     -24.492  -8.080 -16.144  0.00  0.00    -0.647 OA
HETATM   17  O           1     -25.249  -6.379 -15.040  0.00  0.00    -0.647 OA
ENDBRANCH  14  15
ENDBRANCH  11  14
ENDBRANCH   1  10
TORSDOF 7
ENDMDL
MODEL 3
REMARK VINA RESULT:      -4.6     18.699     19.988
REMARK  7 active torsions:
REMARK  status: ('A' for Active; 'I' for Inactive)
REMARK    1  A    between atoms: C_1  and  C_7 
REMARK    2  A    between atoms: C_1  and  C_9 
REMARK    3  A    between atoms: N_2  and  C_8 
REMARK       I    between atoms: N_2  and  C_12 
REMARK    4  A    between atoms: N_3  and  C_7 
REMARK    5  A    between atoms: C_7  and  C_12 
REMARK    6  A    between atoms: C_8  and  C_10 
REMARK    7  A    between atoms: C_9  and  S_11 
ROOT
HETATM    1  C           1     -10.208   6.036 -19.519  0.00  0.00     0.275 C 
ENDROOT
BRANCH   1   2
HETATM    2  C           1      -9.565   6.503 -20.818  0.00  0.00     0.053 C 
BRANCH   2   3
HETATM    3  C           1      -9.377   8.013 -20.780  0.00  0.00     0.076 C 
BRANCH   3   4
HETATM    4  S           1     -10.581   8.745 -19.634  0.00  0.00    -0.173 SA
HETATM    5  C           1     -11.471   9.721 -20.879  0.00  0.00     0.089 C 
ENDBRANCH   3   4
ENDBRANCH   2   3
ENDBRANCH   1   2
BRANCH   1   6
HETATM    6  N           1      -9.163   5.427 -18.633  0.00  0.00    -0.066 N 
HETATM    7  H           1      -9.546   4.563 -18.186  0.00  0.00     0.275 HD
HETATM    8  H           1      -8.323   5.180 -19.204  0.00  0.00     0.275 HD
HETATM    9  H           1      -8.892   6.111 -17.891  0.00  0.00     0.275 HD
ENDBRANCH   1   6
BRANCH   1  10
HETATM   10  C           1     -11.269   5.007 -19.824  0.00  0.00     0.248 C 
HETATM   11  N           1     -12.540   5.406 -20.139  0.00  0.00    -0.349 N 
HETATM   12  H           1     -12.769   6.392 -20.167  0.00  0.00     0.163 HD
HETATM   13  O           1     -10.996   3.830 -19.790  0.00  0.00    -0.271 OA
BRANCH  11  14
HETATM   14  C           1     -13.559   4.417 -20.432  0.00  0.00     0.235 C 
BRANCH  14  15
HETATM   15  C           1     -14.917   5.075 -20.427  0.00  0.00     0.191 C 
HETATM   16  O           1     -15.475   5.348 -19.342  0.00  0.00    -0.647 OA
HETATM   17  O           1     -15.483   5.347 -21.507  0.00  0.00    -0.647 OA
ENDBRANCH  14  15
ENDBRANCH  11  14
ENDBRANCH   1  10
TORSDOF 7
ENDMDL
MODEL 4
REMARK VINA RESULT:      -4.6      3.393      5.861
REMARK  7 active torsions:
REMARK  status: ('A' for Active; 'I' for Inactive)
REMARK    1  A    between atoms: C_1  and  C_7 
REMARK    2  A    between atoms: C_1  and  C_9 
REMARK    3  A    between atoms: N_2  and  C_8 
REMARK       I    between atoms: N_2  and  C_12 
REMARK    4  A    between atoms: N_3  and  C_7 
REMARK    5  A    between atoms: C_7  and  C_12 
REMARK    6  A    between atoms: C_8  and  C_10 
REMARK    7  A    between atoms: C_9  and  S_11 
ROOT
HETATM    1  C           1     -21.776  -4.604  -8.017  0.00  0.00     0.275 C 
ENDROOT
BRANCH   1   2
HETATM    2  C           1     -21.073  -4.498  -9.364  0.00  0.00     0.053 C 
BRANCH   2   3
HETATM    3  C           1     -22.007  -3.847 -10.376  0.00  0.00     0.076 C 
BRANCH   3   4
HETATM    4  S           1     -23.569  -4.768 -10.439  0.00  0.00    -0.173 SA
HETATM    5  C           1     -24.641  -3.373  -9.992  0.00  0.00     0.089 C 
ENDBRANCH   3   4
ENDBRANCH   2   3
ENDBRANCH   1   2
BRANCH   1   6
HETATM    6  N           1     -21.669  -3.296  -7.293  0.00  0.00    -0.066 N 
HETATM    7  H           1     -21.848  -2.512  -7.961  0.00  0.00     0.275 HD
HETATM    8  H           1     -22.375  -3.264  -6.524  0.00  0.00     0.275 HD
HETATM    9  H           1     -20.710  -3.197  -6.890  0.00  0.00     0.275 HD
ENDBRANCH   1   6
BRANCH   1  10
HETATM   10  C           1     -21.124  -5.688  -7.194  0.00  0.00     0.248 C 
HETATM   11  N           1     -21.686  -6.077  -6.008  0.00  0.00    -0.349 N 
HETATM   12  H           1     -22.538  -5.639  -5.682  0.00  0.00     0.163 HD
HETATM   13  O           1     -20.107  -6.212  -7.581  0.00  0.00    -0.271 OA
BRANCH  11  14
HETATM   14  C           1     -21.059  -7.119  -5.216  0.00  0.00     0.235 C 
BRANCH  14  15
HETATM   15  C           1     -21.392  -6.914  -3.759  0.00  0.00     0.191 C 
HETATM   16  O           1     -22.302  -6.122  -3.431  0.00  0.00    -0.647 OA
HETATM   17  O           1     -20.758  -7.536  -2.880  0.00  0.00    -0.647 OA
ENDBRANCH  14  15
ENDBRANCH  11  14
ENDBRANCH   1  10
TORSDOF 7
ENDMDL
MODEL 5
REMARK VINA RESULT:      -4.6      4.029      6.746
REMARK  7 active torsions:
REMARK  status: ('A' for Active; 'I' for Inactive)
REMARK    1  A    between atoms: C_1  and  C_7 
REMARK    2  A    between atoms: C_1  and  C_9 
REMARK    3  A    between atoms: N_2  and  C_8 
REMARK       I    between atoms: N_2  and  C_12 
REMARK    4  A    between atoms: N_3  and  C_7 
REMARK    5  A    between atoms: C_7  and  C_12 
REMARK    6  A    between atoms: C_8  and  C_10 
REMARK    7  A    between atoms: C_9  and  S_11 
ROOT
HETATM    1  C           1     -20.585  -7.108  -5.262  0.00  0.00     0.275 C 
ENDROOT
BRANCH   1   2
HETATM    2  C           1     -20.743  -6.256  -6.514  0.00  0.00     0.053 C 
BRANCH   2   3
HETATM    3  C           1     -20.282  -4.834  -6.224  0.00  0.00     0.076 C 
BRANCH   3   4
HETATM    4  S           1     -20.980  -3.706  -7.463  0.00  0.00    -0.173 SA
HETATM    5  C           1     -22.665  -4.380  -7.418  0.00  0.00     0.089 C 
ENDBRANCH   3   4
ENDBRANCH   2   3
ENDBRANCH   1   2
BRANCH   1   6
HETATM    6  N           1     -20.807  -8.550  -5.608  0.00  0.00    -0.066 N 
HETATM    7  H           1     -20.639  -8.694  -6.630  0.00  0.00     0.275 HD
HETATM    8  H           1     -20.147  -9.146  -5.060  0.00  0.00     0.275 HD
HETATM    9  H           1     -21.791  -8.817  -5.378  0.00  0.00     0.275 HD
ENDBRANCH   1   6
BRANCH   1  10
HETATM   10  C           1     -21.598  -6.678  -4.229  0.00  0.00     0.248 C 
HETATM   11  N           1     -21.251  -6.639  -2.906  0.00  0.00    -0.349 N 
HETATM   12  H           1     -20.316  -6.897  -2.619  0.00  0.00     0.163 HD
HETATM   13  O           1     -22.715  -6.369  -4.571  0.00  0.00    -0.271 OA
BRANCH  11  14
HETATM   14  C           1     -22.225  -6.226  -1.913  0.00  0.00     0.235 C 
BRANCH  14  15
HETATM   15  C           1     -22.222  -7.205  -0.766  0.00  0.00     0.191 C 
HETATM   16  O           1     -21.196  -7.876  -0.520  0.00  0.00    -0.647 OA
HETATM   17  O           1     -23.244  -7.346  -0.061  0.00  0.00    -0.647 OA
ENDBRANCH  14  15
ENDBRANCH  11  14
ENDBRANCH   1  10
TORSDOF 7
ENDMDL
MODEL 6
REMARK VINA RESULT:      -4.5     19.033     20.347
REMARK  7 active torsions:
REMARK  status: ('A' for Active; 'I' for Inactive)
REMARK    1  A    between atoms: C_1  and  C_7 
REMARK    2  A    between atoms: C_1  and  C_9 
REMARK    3  A    between atoms: N_2  and  C_8 
REMARK       I    between atoms: N_2  and  C_12 
REMARK    4  A    between atoms: N_3  and  C_7 
REMARK    5  A    between atoms: C_7  and  C_12 
REMARK    6  A    between atoms: C_8  and  C_10 
REMARK    7  A    between atoms: C_9  and  S_11 
ROOT
HETATM    1  C           1     -10.161   6.398 -19.559  0.00  0.00     0.275 C 
ENDROOT
BRANCH   1   2
HETATM    2  C           1      -9.382   6.933 -20.752  0.00  0.00     0.053 C 
BRANCH   2   3
HETATM    3  C           1      -9.685   8.414 -20.935  0.00  0.00     0.076 C 
BRANCH   3   4
HETATM    4  S           1     -10.454   9.066 -19.425  0.00  0.00    -0.173 SA
HETATM    5  C           1     -12.014   9.576 -20.202  0.00  0.00     0.089 C 
ENDBRANCH   3   4
ENDBRANCH   2   3
ENDBRANCH   1   2
BRANCH   1   6
HETATM    6  N           1      -9.308   5.427 -18.799  0.00  0.00    -0.066 N 
HETATM    7  H           1      -8.544   5.945 -18.307  0.00  0.00     0.275 HD
HETATM    8  H           1      -9.894   4.923 -18.096  0.00  0.00     0.275 HD
HETATM    9  H           1      -8.888   4.738 -19.462  0.00  0.00     0.275 HD
ENDBRANCH   1   6
BRANCH   1  10
HETATM   10  C           1     -11.407   5.697 -20.044  0.00  0.00     0.248 C 
HETATM   11  N           1     -11.368   4.947 -21.189  0.00  0.00    -0.349 N 
HETATM   12  H           1     -10.505   4.862 -21.710  0.00  0.00     0.163 HD
HETATM   13  O           1     -12.438   5.798 -19.423  0.00  0.00    -0.271 OA
BRANCH  11  14
HETATM   14  C           1     -12.565   4.274 -21.655  0.00  0.00     0.235 C 
BRANCH  14  15
HETATM   15  C           1     -12.525   2.825 -21.236  0.00  0.00     0.191 C 
HETATM   16  O           1     -13.556   2.123 -21.315  0.00  0.00    -0.647 OA
HETATM   17  O           1     -11.461   2.327 -20.809  0.00  0.00    -0.647 OA
ENDBRANCH  14  15
ENDBRANCH  11  14
ENDBRANCH   1  10
TORSDOF 7
ENDMDL
MODEL 7
REMARK VINA RESULT:      -4.4     10.638     12.727
REMARK  7 active torsions:
REMARK  status: ('A' for Active; 'I' for Inactive)
REMARK    1  A    between atoms: C_1  and  C_7 
REMARK    2  A    between atoms: C_1  and  C_9 
REMARK    3  A    between atoms: N_2  and  C_8 
REMARK       I    between atoms: N_2  and  C_12 
REMARK    4  A    between atoms: N_3  and  C_7 
REMARK    5  A    between atoms: C_7  and  C_12 
REMARK    6  A    between atoms: C_8  and  C_10 
REMARK    7  A    between atoms: C_9  and  S_11 
ROOT
HETATM    1  C           1     -29.547  -5.386 -18.009  0.00  0.00     0.275 C 
ENDROOT
BRANCH   1   2
HETATM    2  C           1     -30.262  -4.177 -17.421  0.00  0.00     0.053 C 
BRANCH   2   3
HETATM    3  C           1     -31.530  -4.631 -16.710  0.00  0.00     0.076 C 
BRANCH   3   4
HETATM    4  S           1     -32.924  -3.591 -17.233  0.00  0.00    -0.173 SA
HETATM    5  C           1     -34.053  -4.089 -15.902  0.00  0.00     0.089 C 
ENDBRANCH   3   4
ENDBRANCH   2   3
ENDBRANCH   1   2
BRANCH   1   6
HETATM    6  N           1     -30.185  -6.642 -17.496  0.00  0.00    -0.066 N 
HETATM    7  H           1     -30.607  -7.169 -18.294  0.00  0.00     0.275 HD
HETATM    8  H           1     -29.462  -7.235 -17.031  0.00  0.00     0.275 HD
HETATM    9  H           1     -30.933  -6.398 -16.808  0.00  0.00     0.275 HD
ENDBRANCH   1   6
BRANCH   1  10
HETATM   10  C           1     -28.094  -5.358 -17.600  0.00  0.00     0.248 C 
HETATM   11  N           1     -27.291  -6.436 -17.858  0.00  0.00    -0.349 N 
HETATM   12  H           1     -27.670  -7.251 -18.322  0.00  0.00     0.163 HD
HETATM   13  O           1     -27.641  -4.385 -17.046  0.00  0.00    -0.271 OA
BRANCH  11  14
HETATM   14  C           1     -25.895  -6.409 -17.465  0.00  0.00     0.235 C 
BRANCH  14  15
HETATM   15  C           1     -25.787  -6.591 -15.971  0.00  0.00     0.191 C 
HETATM   16  O           1     -26.434  -7.498 -15.404  0.00  0.00    -0.647 OA
HETATM   17  O           1     -25.052  -5.835 -15.301  0.00  0.00    -0.647 OA
ENDBRANCH  14  15
ENDBRANCH  11  14
ENDBRANCH   1  10
TORSDOF 7
ENDMDL
MODEL 8
REMARK VINA RESULT:      -4.3      3.348      4.719
REMARK  7 active torsions:
REMARK  status: ('A' for Active; 'I' for Inactive)
REMARK    1  A    between atoms: C_1  and  C_7 
REMARK    2  A    between atoms: C_1  and  C_9 
REMARK    3  A    between atoms: N_2  and  C_8 
REMARK       I    between atoms: N_2  and  C_12 
REMARK    4  A    between atoms: N_3  and  C_7 
REMARK    5  A    between atoms: C_7  and  C_12 
REMARK    6  A    between atoms: C_8  and  C_10 
REMARK    7  A    between atoms: C_9  and  S_11 
ROOT
HETATM    1  C           1     -21.263  -6.598  -2.606  0.00  0.00     0.275 C 
ENDROOT
BRANCH   1   2
HETATM    2  C           1     -21.271  -7.974  -1.953  0.00  0.00     0.053 C 
BRANCH   2   3
HETATM    3  C           1     -22.097  -7.927  -0.675  0.00  0.00     0.076 C 
BRANCH   3   4
HETATM    4  S           1     -22.731  -9.586  -0.302  0.00  0.00    -0.173 SA
HETATM    5  C           1     -21.227 -10.195   0.512  0.00  0.00     0.089 C 
ENDBRANCH   3   4
ENDBRANCH   2   3
ENDBRANCH   1   2
BRANCH   1   6
HETATM    6  N           1     -22.367  -5.764  -2.027  0.00  0.00    -0.066 N 
HETATM    7  H           1     -23.275  -6.272  -2.124  0.00  0.00     0.275 HD
HETATM    8  H           1     -22.175  -5.585  -1.016  0.00  0.00     0.275 HD
HETATM    9  H           1     -22.421  -4.854  -2.538  0.00  0.00     0.275 HD
ENDBRANCH   1   6
BRANCH   1  10
HETATM   10  C           1     -21.473  -6.745  -4.093  0.00  0.00     0.248 C 
HETATM   11  N           1     -21.178  -5.705  -4.932  0.00  0.00    -0.349 N 
HETATM   12  H           1     -20.818  -4.837  -4.556  0.00  0.00     0.163 HD
HETATM   13  O           1     -21.902  -7.781  -4.543  0.00  0.00    -0.271 OA
BRANCH  11  14
HETATM   14  C           1     -21.380  -5.846  -6.361  0.00  0.00     0.235 C 
BRANCH  14  15
HETATM   15  C           1     -21.886  -4.544  -6.931  0.00  0.00     0.191 C 
HETATM   16  O           1     -23.087  -4.430  -7.256  0.00  0.00    -0.647 OA
HETATM   17  O           1     -21.104  -3.580  -7.077  0.00  0.00    -0.647 OA
ENDBRANCH  14  15
ENDBRANCH  11  14
ENDBRANCH   1  10
TORSDOF 7
ENDMDL
MODEL 9
REMARK VINA RESULT:      -4.3     19.526     20.678
REMARK  7 active torsions:
REMARK  status: ('A' for Active; 'I' for Inactive)
REMARK    1  A    between atoms: C_1  and  C_7 
REMARK    2  A    between atoms: C_1  and  C_9 
REMARK    3  A    between atoms: N_2  and  C_8 
REMARK       I    between atoms: N_2  and  C_12 
REMARK    4  A    between atoms: N_3  and  C_7 
REMARK    5  A    between atoms: C_7  and  C_12 
REMARK    6  A    between atoms: C_8  and  C_10 
REMARK    7  A    between atoms: C_9  and  S_11 
ROOT
HETATM    1  C           1     -10.940   4.268 -19.921  0.00  0.00     0.275 C 
ENDROOT
BRANCH   1   2
HETATM    2  C           1     -11.098   3.777 -21.353  0.00  0.00     0.053 C 
BRANCH   2   3
HETATM    3  C           1     -12.547   3.376 -21.597  0.00  0.00     0.076 C 
BRANCH   3   4
HETATM    4  S           1     -13.255   4.425 -22.899  0.00  0.00    -0.173 SA
HETATM    5  C           1     -14.745   4.905 -21.979  0.00  0.00     0.089 C 
ENDBRANCH   3   4
ENDBRANCH   2   3
ENDBRANCH   1   2
BRANCH   1   6
HETATM    6  N           1     -12.290   4.576 -19.345  0.00  0.00    -0.066 N 
HETATM    7  H           1     -12.981   3.865 -19.678  0.00  0.00     0.275 HD
HETATM    8  H           1     -12.238   4.550 -18.303  0.00  0.00     0.275 HD
HETATM    9  H           1     -12.593   5.526 -19.657  0.00  0.00     0.275 HD
ENDBRANCH   1   6
BRANCH   1  10
HETATM   10  C           1     -10.092   5.516 -19.907  0.00  0.00     0.248 C 
HETATM   11  N           1     -10.389   6.555 -20.747  0.00  0.00    -0.349 N 
HETATM   12  H           1     -11.178   6.486 -21.378  0.00  0.00     0.163 HD
HETATM   13  O           1      -9.150   5.598 -19.155  0.00  0.00    -0.271 OA
BRANCH  11  14
HETATM   14  C           1      -9.574   7.754 -20.734  0.00  0.00     0.235 C 
BRANCH  14  15
HETATM   15  C           1     -10.256   8.818 -19.909  0.00  0.00     0.191 C 
HETATM   16  O           1     -10.752   9.820 -20.468  0.00  0.00    -0.647 OA
HETATM   17  O           1     -10.324   8.697 -18.667  0.00  0.00    -0.647 OA
ENDBRANCH  14  15
ENDBRANCH  11  14
ENDBRANCH   1  10
TORSDOF 7
ENDMDL
