MODEL 1
REMARK VINA RESULT:      -6.0      0.000      0.000
REMARK  9 active torsions:
REMARK  status: ('A' for Active; 'I' for Inactive)
REMARK    1  A    between atoms: Se_7  and  C_8 
REMARK    2  A    between atoms: C_8  and  C_9 
REMARK    3  A    between atoms: C_9  and  C_10 
REMARK    4  A    between atoms: C_10  and  C_11 
REMARK    5  A    between atoms: C_10  and  N_23 
REMARK    6  A    between atoms: N_16  and  C_21 
REMARK       I    between atoms: N_18  and  C_19 
REMARK    7  A    between atoms: C_19  and  C_20 
REMARK    8  A    between atoms: C_20  and  C_21 
REMARK    9  A    between atoms: C_21  and  C_22 
REMARK       I    between atoms: C_22  and  N_23 
ROOT
HETATM    1  H           1     -36.293  -3.591 -12.059  0.00  0.00     0.163 HD
HETATM    2  O           1     -33.503  -3.819 -10.643  0.00  0.00    -0.271 OA
HETATM    3  C           1     -34.533  -4.193 -11.151  0.00  0.00     0.249 C 
HETATM    4  N           1     -35.431  -3.278 -11.633  0.00  0.00    -0.345 N 
ENDROOT
BRANCH   3   5
HETATM    5  C           1     -34.832  -5.669 -11.255  0.00  0.00     0.283 C 
BRANCH   5   6
HETATM    6  N           1     -34.956  -6.053 -12.699  0.00  0.00    -0.066 N 
HETATM    7  H           1     -34.059  -5.844 -13.193  0.00  0.00     0.275 HD
HETATM    8  H           1     -35.162  -7.075 -12.771  0.00  0.00     0.275 HD
HETATM    9  H           1     -35.732  -5.508 -13.139  0.00  0.00     0.275 HD
ENDBRANCH   5   6
BRANCH   5  10
HETATM   10  C           1     -33.700  -6.462 -10.615  0.00  0.00     0.145 C 
BRANCH  10  11
HETATM   11  C           1     -34.202  -7.826 -10.214  0.00  0.00     0.217 C 
HETATM   12  O           1     -35.347  -7.967  -9.854  0.00  0.00    -0.274 OA
HETATM   13  N           1     -33.362  -8.906 -10.259  0.00  0.00    -0.370 N 
HETATM   14  H           1     -33.699  -9.822  -9.989  0.00  0.00     0.159 HD
HETATM   15  H           1     -32.403  -8.788 -10.560  0.00  0.00     0.159 HD
ENDBRANCH  10  11
ENDBRANCH   5  10
ENDBRANCH   3   5
BRANCH   4  16
HETATM   16  C           1     -35.144  -1.860 -11.535  0.00  0.00     0.185 C 
BRANCH  16  17
HETATM   17  C           1     -35.233  -1.227 -12.917  0.00  0.00     0.036 C 
BRANCH  17  18
HETATM   18  C           1     -34.855   0.245 -12.828  0.00  0.00     0.003 C 
BRANCH  18  19
HETATM   19 Se           1     -35.089   1.085 -14.570  0.00  0.00     0.000 Se
HETATM   20  C           1     -36.638   0.009 -15.063  0.00  0.00     0.000 C 
ENDBRANCH  18  19
ENDBRANCH  17  18
ENDBRANCH  16  17
BRANCH  16  21
HETATM   21  C           1     -36.149  -1.209 -10.617  0.00  0.00     0.196 C 
HETATM   22  O           1     -35.765  -0.631  -9.577  0.00  0.00    -0.646 OA
HETATM   23  O           1     -37.367  -1.246 -10.897  0.00  0.00    -0.646 OA
ENDBRANCH  16  21
ENDBRANCH   4  16
TORSDOF 9
ENDMDL
MODEL 2
REMARK VINA RESULT:      -5.9      2.713      3.798
REMARK  9 active torsions:
REMARK  status: ('A' for Active; 'I' for Inactive)
REMARK    1  A    between atoms: Se_7  and  C_8 
REMARK    2  A    between atoms: C_8  and  C_9 
REMARK    3  A    between atoms: C_9  and  C_10 
REMARK    4  A    between atoms: C_10  and  C_11 
REMARK    5  A    between atoms: C_10  and  N_23 
REMARK    6  A    between atoms: N_16  and  C_21 
REMARK       I    between atoms: N_18  and  C_19 
REMARK    7  A    between atoms: C_19  and  C_20 
REMARK    8  A    between atoms: C_20  and  C_21 
REMARK    9  A    between atoms: C_21  and  C_22 
REMARK       I    between atoms: C_22  and  N_23 
ROOT
HETATM    1  H           1     -35.016  -0.830 -11.337  0.00  0.00     0.163 HD
HETATM    2  O           1     -34.596  -3.009 -13.554  0.00  0.00    -0.271 OA
HETATM    3  C           1     -34.465  -2.461 -12.486  0.00  0.00     0.249 C 
HETATM    4  N           1     -35.126  -1.289 -12.232  0.00  0.00    -0.345 N 
ENDROOT
BRANCH   3   5
HETATM    5  C           1     -33.574  -3.069 -11.430  0.00  0.00     0.283 C 
BRANCH   5   6
HETATM    6  N           1     -33.182  -2.013 -10.440  0.00  0.00    -0.066 N 
HETATM    7  H           1     -32.293  -2.291  -9.967  0.00  0.00     0.275 HD
HETATM    8  H           1     -33.040  -1.104 -10.938  0.00  0.00     0.275 HD
HETATM    9  H           1     -33.938  -1.905  -9.726  0.00  0.00     0.275 HD
ENDBRANCH   5   6
BRANCH   5  10
HETATM   10  C           1     -34.325  -4.182 -10.712  0.00  0.00     0.145 C 
BRANCH  10  11
HETATM   11  C           1     -34.047  -5.499 -11.392  0.00  0.00     0.217 C 
HETATM   12  O           1     -33.132  -6.194 -11.014  0.00  0.00    -0.274 OA
HETATM   13  N           1     -34.829  -5.908 -12.438  0.00  0.00    -0.370 N 
HETATM   14  H           1     -34.641  -6.792 -12.896  0.00  0.00     0.159 HD
HETATM   15  H           1     -35.594  -5.326 -12.756  0.00  0.00     0.159 HD
ENDBRANCH  10  11
ENDBRANCH   5  10
ENDBRANCH   3   5
BRANCH   4  16
HETATM   16  C           1     -35.982  -0.704 -13.246  0.00  0.00     0.185 C 
BRANCH  16  17
HETATM   17  C           1     -37.145   0.014 -12.574  0.00  0.00     0.036 C 
BRANCH  17  18
HETATM   18  C           1     -37.355  -0.556 -11.178  0.00  0.00     0.003 C 
BRANCH  18  19
HETATM   19 Se           1     -37.121   0.858  -9.856  0.00  0.00     0.000 Se
HETATM   20  C           1     -37.460  -0.296  -8.322  0.00  0.00     0.000 C 
ENDBRANCH  18  19
ENDBRANCH  17  18
ENDBRANCH  16  17
BRANCH  16  21
HETATM   21  C           1     -35.187   0.281 -14.066  0.00  0.00     0.196 C 
HETATM   22  O           1     -34.832   1.370 -13.565  0.00  0.00    -0.646 OA
HETATM   23  O           1     -34.881   0.009 -15.247  0.00  0.00    -0.646 OA
ENDBRANCH  16  21
ENDBRANCH   4  16
TORSDOF 9
ENDMDL
MODEL 3
REMARK VINA RESULT:      -5.8      1.607      2.152
REMARK  9 active torsions:
REMARK  status: ('A' for Active; 'I' for Inactive)
REMARK    1  A    between atoms: Se_7  and  C_8 
REMARK    2  A    between atoms: C_8  and  C_9 
REMARK    3  A    between atoms: C_9  and  C_10 
REMARK    4  A    between atoms: C_10  and  C_11 
REMARK    5  A    between atoms: C_10  and  N_23 
REMARK    6  A    between atoms: N_16  and  C_21 
REMARK       I    between atoms: N_18  and  C_19 
REMARK    7  A    between atoms: C_19  and  C_20 
REMARK    8  A    between atoms: C_20  and  C_21 
REMARK    9  A    between atoms: C_21  and  C_22 
REMARK       I    between atoms: C_22  and  N_23 
ROOT
HETATM    1  H           1     -35.450  -2.156 -12.846  0.00  0.00     0.163 HD
HETATM    2  O           1     -33.366  -1.874 -10.518  0.00  0.00    -0.271 OA
HETATM    3  C           1     -33.992  -2.413 -11.399  0.00  0.00     0.249 C 
HETATM    4  N           1     -34.925  -1.705 -12.108  0.00  0.00    -0.345 N 
ENDROOT
BRANCH   3   5
HETATM    5  C           1     -33.746  -3.868 -11.719  0.00  0.00     0.283 C 
BRANCH   5   6
HETATM    6  N           1     -32.289  -4.077 -12.003  0.00  0.00    -0.066 N 
HETATM    7  H           1     -31.959  -4.941 -11.516  0.00  0.00     0.275 HD
HETATM    8  H           1     -32.146  -4.183 -13.033  0.00  0.00     0.275 HD
HETATM    9  H           1     -31.744  -3.253 -11.658  0.00  0.00     0.275 HD
ENDBRANCH   5   6
BRANCH   5  10
HETATM   10  C           1     -34.159  -4.725 -10.530  0.00  0.00     0.145 C 
BRANCH  10  11
HETATM   11  C           1     -34.511  -6.112 -11.007  0.00  0.00     0.217 C 
HETATM   12  O           1     -34.423  -7.051 -10.251  0.00  0.00    -0.274 OA
HETATM   13  N           1     -34.930  -6.308 -12.295  0.00  0.00    -0.370 N 
HETATM   14  H           1     -35.165  -7.240 -12.615  0.00  0.00     0.159 HD
HETATM   15  H           1     -35.003  -5.522 -12.928  0.00  0.00     0.159 HD
ENDBRANCH  10  11
ENDBRANCH   5  10
ENDBRANCH   3   5
BRANCH   4  16
HETATM   16  C           1     -35.162  -0.307 -11.801  0.00  0.00     0.185 C 
BRANCH  16  17
HETATM   17  C           1     -35.170   0.501 -13.092  0.00  0.00     0.036 C 
BRANCH  17  18
HETATM   18  C           1     -35.326  -0.440 -14.279  0.00  0.00     0.003 C 
BRANCH  18  19
HETATM   19 Se           1     -36.890   0.078 -15.320  0.00  0.00     0.000 Se
HETATM   20  C           1     -36.431  -1.022 -16.862  0.00  0.00     0.000 C 
ENDBRANCH  18  19
ENDBRANCH  17  18
ENDBRANCH  16  17
BRANCH  16  21
HETATM   21  C           1     -36.494  -0.165 -11.109  0.00  0.00     0.196 C 
HETATM   22  O           1     -37.480  -0.821 -11.508  0.00  0.00    -0.646 OA
HETATM   23  O           1     -36.614   0.609 -10.134  0.00  0.00    -0.646 OA
ENDBRANCH  16  21
ENDBRANCH   4  16
TORSDOF 9
ENDMDL
MODEL 4
REMARK VINA RESULT:      -5.6     13.176     15.190
REMARK  9 active torsions:
REMARK  status: ('A' for Active; 'I' for Inactive)
REMARK    1  A    between atoms: Se_7  and  C_8 
REMARK    2  A    between atoms: C_8  and  C_9 
REMARK    3  A    between atoms: C_9  and  C_10 
REMARK    4  A    between atoms: C_10  and  C_11 
REMARK    5  A    between atoms: C_10  and  N_23 
REMARK    6  A    between atoms: N_16  and  C_21 
REMARK       I    between atoms: N_18  and  C_19 
REMARK    7  A    between atoms: C_19  and  C_20 
REMARK    8  A    between atoms: C_20  and  C_21 
REMARK    9  A    between atoms: C_21  and  C_22 
REMARK       I    between atoms: C_22  and  N_23 
ROOT
HETATM    1  H           1     -21.190  -5.517  -8.232  0.00  0.00     0.163 HD
HETATM    2  O           1     -23.673  -4.351  -6.709  0.00  0.00    -0.271 OA
HETATM    3  C           1     -22.979  -4.654  -7.651  0.00  0.00     0.249 C 
HETATM    4  N           1     -21.771  -5.264  -7.443  0.00  0.00    -0.345 N 
ENDROOT
BRANCH   3   5
HETATM    5  C           1     -23.444  -4.358  -9.056  0.00  0.00     0.283 C 
BRANCH   5   6
HETATM    6  N           1     -24.504  -3.298  -9.018  0.00  0.00    -0.066 N 
HETATM    7  H           1     -24.121  -2.408  -9.410  0.00  0.00     0.275 HD
HETATM    8  H           1     -25.324  -3.605  -9.589  0.00  0.00     0.275 HD
HETATM    9  H           1     -24.806  -3.142  -8.030  0.00  0.00     0.275 HD
ENDBRANCH   5   6
BRANCH   5  10
HETATM   10  C           1     -22.266  -3.867  -9.887  0.00  0.00     0.145 C 
BRANCH  10  11
HETATM   11  C           1     -22.493  -4.212 -11.338  0.00  0.00     0.217 C 
HETATM   12  O           1     -23.577  -4.600 -11.704  0.00  0.00    -0.274 OA
HETATM   13  N           1     -21.471  -4.085 -12.240  0.00  0.00    -0.370 N 
HETATM   14  H           1     -21.624  -4.318 -13.214  0.00  0.00     0.159 HD
HETATM   15  H           1     -20.563  -3.762 -11.933  0.00  0.00     0.159 HD
ENDBRANCH  10  11
ENDBRANCH   5  10
ENDBRANCH   3   5
BRANCH   4  16
HETATM   16  C           1     -21.324  -5.548  -6.093  0.00  0.00     0.185 C 
BRANCH  16  17
HETATM   17  C           1     -21.093  -7.046  -5.941  0.00  0.00     0.036 C 
BRANCH  17  18
HETATM   18  C           1     -21.987  -7.587  -4.833  0.00  0.00     0.003 C 
BRANCH  18  19
HETATM   19 Se           1     -20.992  -7.636  -3.158  0.00  0.00     0.000 Se
HETATM   20  C           1     -21.950  -6.140  -2.356  0.00  0.00     0.000 C 
ENDBRANCH  18  19
ENDBRANCH  17  18
ENDBRANCH  16  17
BRANCH  16  21
HETATM   21  C           1     -20.036  -4.810  -5.827  0.00  0.00     0.196 C 
HETATM   22  O           1     -19.233  -4.595  -6.760  0.00  0.00    -0.646 OA
HETATM   23  O           1     -19.771  -4.411  -4.672  0.00  0.00    -0.646 OA
ENDBRANCH  16  21
ENDBRANCH   4  16
TORSDOF 9
ENDMDL
MODEL 5
REMARK VINA RESULT:      -5.6     13.245     15.410
REMARK  9 active torsions:
REMARK  status: ('A' for Active; 'I' for Inactive)
REMARK    1  A    between atoms: Se_7  and  C_8 
REMARK    2  A    between atoms: C_8  and  C_9 
REMARK    3  A    between atoms: C_9  and  C_10 
REMARK    4  A    between atoms: C_10  and  C_11 
REMARK    5  A    between atoms: C_10  and  N_23 
REMARK    6  A    between atoms: N_16  and  C_21 
REMARK       I    between atoms: N_18  and  C_19 
REMARK    7  A    between atoms: C_19  and  C_20 
REMARK    8  A    between atoms: C_20  and  C_21 
REMARK    9  A    between atoms: C_21  and  C_22 
REMARK       I    between atoms: C_22  and  N_23 
ROOT
HETATM    1  H           1     -22.298  -6.088  -7.724  0.00  0.00     0.163 HD
HETATM    2  O           1     -21.097  -3.336  -6.817  0.00  0.00    -0.271 OA
HETATM    3  C           1     -21.704  -4.117  -7.510  0.00  0.00     0.249 C 
HETATM    4  N           1     -21.790  -5.434  -7.143  0.00  0.00    -0.345 N 
ENDROOT
BRANCH   3   5
HETATM    5  C           1     -22.366  -3.643  -8.781  0.00  0.00     0.283 C 
BRANCH   5   6
HETATM    6  N           1     -21.476  -3.944  -9.950  0.00  0.00    -0.066 N 
HETATM    7  H           1     -20.555  -4.300  -9.604  0.00  0.00     0.275 HD
HETATM    8  H           1     -21.925  -4.671 -10.552  0.00  0.00     0.275 HD
HETATM    9  H           1     -21.325  -3.073 -10.507  0.00  0.00     0.275 HD
ENDBRANCH   5   6
BRANCH   5  10
HETATM   10  C           1     -23.696  -4.364  -8.959  0.00  0.00     0.145 C 
BRANCH  10  11
HETATM   11  C           1     -24.591  -3.555  -9.865  0.00  0.00     0.217 C 
HETATM   12  O           1     -24.119  -2.953 -10.801  0.00  0.00    -0.274 OA
HETATM   13  N           1     -25.938  -3.501  -9.627  0.00  0.00    -0.370 N 
HETATM   14  H           1     -26.538  -2.957 -10.234  0.00  0.00     0.159 HD
HETATM   15  H           1     -26.334  -4.004  -8.842  0.00  0.00     0.159 HD
ENDBRANCH  10  11
ENDBRANCH   5  10
ENDBRANCH   3   5
BRANCH   4  16
HETATM   16  C           1     -21.154  -5.890  -5.923  0.00  0.00     0.185 C 
BRANCH  16  17
HETATM   17  C           1     -22.184  -6.586  -5.044  0.00  0.00     0.036 C 
BRANCH  17  18
HETATM   18  C           1     -21.983  -6.164  -3.594  0.00  0.00     0.003 C 
BRANCH  18  19
HETATM   19 Se           1     -21.416  -7.703  -2.541  0.00  0.00     0.000 Se
HETATM   20  C           1     -22.213  -7.067  -0.880  0.00  0.00     0.000 C 
ENDBRANCH  18  19
ENDBRANCH  17  18
ENDBRANCH  16  17
BRANCH  16  21
HETATM   21  C           1     -20.048  -6.857  -6.265  0.00  0.00     0.196 C 
HETATM   22  O           1     -19.959  -7.947  -5.659  0.00  0.00    -0.646 OA
HETATM   23  O           1     -19.220  -6.570  -7.156  0.00  0.00    -0.646 OA
ENDBRANCH  16  21
ENDBRANCH   4  16
TORSDOF 9
ENDMDL
MODEL 6
REMARK VINA RESULT:      -5.5     14.395     16.368
REMARK  9 active torsions:
REMARK  status: ('A' for Active; 'I' for Inactive)
REMARK    1  A    between atoms: Se_7  and  C_8 
REMARK    2  A    between atoms: C_8  and  C_9 
REMARK    3  A    between atoms: C_9  and  C_10 
REMARK    4  A    between atoms: C_10  and  C_11 
REMARK    5  A    between atoms: C_10  and  N_23 
REMARK    6  A    between atoms: N_16  and  C_21 
REMARK       I    between atoms: N_18  and  C_19 
REMARK    7  A    between atoms: C_19  and  C_20 
REMARK    8  A    between atoms: C_20  and  C_21 
REMARK    9  A    between atoms: C_21  and  C_22 
REMARK       I    between atoms: C_22  and  N_23 
ROOT
HETATM    1  H           1     -21.792  -7.134  -7.346  0.00  0.00     0.163 HD
HETATM    2  O           1     -20.577  -4.386  -6.443  0.00  0.00    -0.271 OA
HETATM    3  C           1     -21.147  -5.176  -7.157  0.00  0.00     0.249 C 
HETATM    4  N           1     -21.315  -6.472  -6.748  0.00  0.00    -0.345 N 
ENDROOT
BRANCH   3   5
HETATM    5  C           1     -21.673  -4.736  -8.502  0.00  0.00     0.283 C 
BRANCH   5   6
HETATM    6  N           1     -22.609  -3.579  -8.316  0.00  0.00    -0.066 N 
HETATM    7  H           1     -22.304  -3.012  -7.492  0.00  0.00     0.275 HD
HETATM    8  H           1     -22.597  -2.980  -9.173  0.00  0.00     0.275 HD
HETATM    9  H           1     -23.578  -3.936  -8.153  0.00  0.00     0.275 HD
ENDBRANCH   5   6
BRANCH   5  10
HETATM   10  C           1     -20.509  -4.309  -9.387  0.00  0.00     0.145 C 
BRANCH  10  11
HETATM   11  C           1     -21.013  -4.026 -10.781  0.00  0.00     0.217 C 
HETATM   12  O           1     -22.026  -4.554 -11.176  0.00  0.00    -0.274 OA
HETATM   13  N           1     -20.322  -3.172 -11.598  0.00  0.00    -0.370 N 
HETATM   14  H           1     -20.660  -2.983 -12.534  0.00  0.00     0.159 HD
HETATM   15  H           1     -19.473  -2.731 -11.267  0.00  0.00     0.159 HD
ENDBRANCH  10  11
ENDBRANCH   5  10
ENDBRANCH   3   5
BRANCH   4  16
HETATM   16  C           1     -20.809  -6.896  -5.456  0.00  0.00     0.185 C 
BRANCH  16  17
HETATM   17  C           1     -21.936  -6.853  -4.432  0.00  0.00     0.036 C 
BRANCH  17  18
HETATM   18  C           1     -21.410  -6.281  -3.123  0.00  0.00     0.003 C 
BRANCH  18  19
HETATM   19 Se           1     -21.043  -7.735  -1.878  0.00  0.00     0.000 Se
HETATM   20  C           1     -22.408  -7.199  -0.594  0.00  0.00     0.000 C 
ENDBRANCH  18  19
ENDBRANCH  17  18
ENDBRANCH  16  17
BRANCH  16  21
HETATM   21  C           1     -20.279  -8.304  -5.564  0.00  0.00     0.196 C 
HETATM   22  O           1     -21.071  -9.271  -5.584  0.00  0.00    -0.646 OA
HETATM   23  O           1     -19.047  -8.505  -5.633  0.00  0.00    -0.646 OA
ENDBRANCH  16  21
ENDBRANCH   4  16
TORSDOF 9
ENDMDL
MODEL 7
REMARK VINA RESULT:      -5.5      3.499      6.754
REMARK  9 active torsions:
REMARK  status: ('A' for Active; 'I' for Inactive)
REMARK    1  A    between atoms: Se_7  and  C_8 
REMARK    2  A    between atoms: C_8  and  C_9 
REMARK    3  A    between atoms: C_9  and  C_10 
REMARK    4  A    between atoms: C_10  and  C_11 
REMARK    5  A    between atoms: C_10  and  N_23 
REMARK    6  A    between atoms: N_16  and  C_21 
REMARK       I    between atoms: N_18  and  C_19 
REMARK    7  A    between atoms: C_19  and  C_20 
REMARK    8  A    between atoms: C_20  and  C_21 
REMARK    9  A    between atoms: C_21  and  C_22 
REMARK       I    between atoms: C_22  and  N_23 
ROOT
HETATM    1  H           1     -35.662  -2.844 -12.677  0.00  0.00     0.163 HD
HETATM    2  O           1     -34.467  -1.410 -10.156  0.00  0.00    -0.271 OA
HETATM    3  C           1     -35.147  -1.552 -11.144  0.00  0.00     0.249 C 
HETATM    4  N           1     -35.093  -2.725 -11.849  0.00  0.00    -0.345 N 
ENDROOT
BRANCH   3   5
HETATM    5  C           1     -36.055  -0.437 -11.603  0.00  0.00     0.283 C 
BRANCH   5   6
HETATM    6  N           1     -36.466   0.389 -10.421  0.00  0.00    -0.066 N 
HETATM    7  H           1     -36.952   1.254 -10.752  0.00  0.00     0.275 HD
HETATM    8  H           1     -37.115  -0.164  -9.818  0.00  0.00     0.275 HD
HETATM    9  H           1     -35.618   0.656  -9.870  0.00  0.00     0.275 HD
ENDBRANCH   5   6
BRANCH   5  10
HETATM   10  C           1     -35.314   0.441 -12.603  0.00  0.00     0.145 C 
BRANCH  10  11
HETATM   11  C           1     -35.501  -0.110 -13.995  0.00  0.00     0.217 C 
HETATM   12  O           1     -36.376  -0.915 -14.213  0.00  0.00    -0.274 OA
HETATM   13  N           1     -34.681   0.301 -15.010  0.00  0.00    -0.370 N 
HETATM   14  H           1     -34.806  -0.070 -15.944  0.00  0.00     0.159 HD
HETATM   15  H           1     -33.948   0.974 -14.827  0.00  0.00     0.159 HD
ENDBRANCH  10  11
ENDBRANCH   5  10
ENDBRANCH   3   5
BRANCH   4  16
HETATM   16  C           1     -34.220  -3.797 -11.409  0.00  0.00     0.185 C 
BRANCH  16  17
HETATM   17  C           1     -35.049  -5.047 -11.142  0.00  0.00     0.036 C 
BRANCH  17  18
HETATM   18  C           1     -34.120  -6.216 -10.841  0.00  0.00     0.003 C 
BRANCH  18  19
HETATM   19 Se           1     -35.027  -7.482  -9.669  0.00  0.00     0.000 Se
HETATM   20  C           1     -33.736  -8.915  -9.946  0.00  0.00     0.000 C 
ENDBRANCH  18  19
ENDBRANCH  17  18
ENDBRANCH  16  17
BRANCH  16  21
HETATM   21  C           1     -33.202  -4.087 -12.483  0.00  0.00     0.196 C 
HETATM   22  O           1     -33.517  -3.983 -13.689  0.00  0.00    -0.646 OA
HETATM   23  O           1     -32.042  -4.431 -12.169  0.00  0.00    -0.646 OA
ENDBRANCH  16  21
ENDBRANCH   4  16
TORSDOF 9
ENDMDL
MODEL 8
REMARK VINA RESULT:      -5.4      4.357      6.512
REMARK  9 active torsions:
REMARK  status: ('A' for Active; 'I' for Inactive)
REMARK    1  A    between atoms: Se_7  and  C_8 
REMARK    2  A    between atoms: C_8  and  C_9 
REMARK    3  A    between atoms: C_9  and  C_10 
REMARK    4  A    between atoms: C_10  and  C_11 
REMARK    5  A    between atoms: C_10  and  N_23 
REMARK    6  A    between atoms: N_16  and  C_21 
REMARK       I    between atoms: N_18  and  C_19 
REMARK    7  A    between atoms: C_19  and  C_20 
REMARK    8  A    between atoms: C_20  and  C_21 
REMARK    9  A    between atoms: C_21  and  C_22 
REMARK       I    between atoms: C_22  and  N_23 
ROOT
HETATM    1  H           1     -37.320  -0.683 -13.226  0.00  0.00     0.163 HD
HETATM    2  O           1     -34.741   1.102 -13.281  0.00  0.00    -0.271 OA
HETATM    3  C           1     -35.703   0.514 -13.713  0.00  0.00     0.249 C 
HETATM    4  N           1     -36.514  -0.190 -12.863  0.00  0.00    -0.345 N 
ENDROOT
BRANCH   3   5
HETATM    5  C           1     -36.011   0.552 -15.190  0.00  0.00     0.283 C 
BRANCH   5   6
HETATM    6  N           1     -36.076   1.979 -15.649  0.00  0.00    -0.066 N 
HETATM    7  H           1     -35.136   2.423 -15.542  0.00  0.00     0.275 HD
HETATM    8  H           1     -36.362   2.009 -16.654  0.00  0.00     0.275 HD
HETATM    9  H           1     -36.774   2.500 -15.071  0.00  0.00     0.275 HD
ENDBRANCH   5   6
BRANCH   5  10
HETATM   10  C           1     -34.914  -0.177 -15.956  0.00  0.00     0.145 C 
BRANCH  10  11
HETATM   11  C           1     -35.518  -1.315 -16.740  0.00  0.00     0.217 C 
HETATM   12  O           1     -36.597  -1.181 -17.267  0.00  0.00    -0.274 OA
HETATM   13  N           1     -34.844  -2.501 -16.854  0.00  0.00    -0.370 N 
HETATM   14  H           1     -35.250  -3.266 -17.379  0.00  0.00     0.159 HD
HETATM   15  H           1     -33.941  -2.614 -16.412  0.00  0.00     0.159 HD
ENDBRANCH  10  11
ENDBRANCH   5  10
ENDBRANCH   3   5
BRANCH   4  16
HETATM   16  C           1     -36.219  -0.228 -11.444  0.00  0.00     0.185 C 
BRANCH  16  17
HETATM   17  C           1     -37.521  -0.176 -10.654  0.00  0.00     0.036 C 
BRANCH  17  18
HETATM   18  C           1     -37.209  -0.138  -9.164  0.00  0.00     0.003 C 
BRANCH  18  19
HETATM   19 Se           1     -37.809   1.560  -8.418  0.00  0.00     0.000 Se
HETATM   20  C           1     -37.276   1.132  -6.592  0.00  0.00     0.000 C 
ENDBRANCH  18  19
ENDBRANCH  17  18
ENDBRANCH  16  17
BRANCH  16  21
HETATM   21  C           1     -35.483  -1.504 -11.119  0.00  0.00     0.196 C 
HETATM   22  O           1     -36.057  -2.607 -11.244  0.00  0.00    -0.646 OA
HETATM   23  O           1     -34.297  -1.459 -10.726  0.00  0.00    -0.646 OA
ENDBRANCH  16  21
ENDBRANCH   4  16
TORSDOF 9
ENDMDL
MODEL 9
REMARK VINA RESULT:      -5.3     13.770     15.993
REMARK  9 active torsions:
REMARK  status: ('A' for Active; 'I' for Inactive)
REMARK    1  A    between atoms: Se_7  and  C_8 
REMARK    2  A    between atoms: C_8  and  C_9 
REMARK    3  A    between atoms: C_9  and  C_10 
REMARK    4  A    between atoms: C_10  and  C_11 
REMARK    5  A    between atoms: C_10  and  N_23 
REMARK    6  A    between atoms: N_16  and  C_21 
REMARK       I    between atoms: N_18  and  C_19 
REMARK    7  A    between atoms: C_19  and  C_20 
REMARK    8  A    between atoms: C_20  and  C_21 
REMARK    9  A    between atoms: C_21  and  C_22 
REMARK       I    between atoms: C_22  and  N_23 
ROOT
HETATM    1  H           1     -21.658  -6.658  -7.475  0.00  0.00     0.163 HD
HETATM    2  O           1     -20.447  -4.072  -6.178  0.00  0.00    -0.271 OA
HETATM    3  C           1     -20.973  -4.759  -7.021  0.00  0.00     0.249 C 
HETATM    4  N           1     -21.218  -6.082  -6.769  0.00  0.00    -0.345 N 
ENDROOT
BRANCH   3   5
HETATM    5  C           1     -21.358  -4.160  -8.352  0.00  0.00     0.283 C 
BRANCH   5   6
HETATM    6  N           1     -20.305  -4.486  -9.369  0.00  0.00    -0.066 N 
HETATM    7  H           1     -20.154  -3.660  -9.991  0.00  0.00     0.275 HD
HETATM    8  H           1     -19.411  -4.722  -8.882  0.00  0.00     0.275 HD
HETATM    9  H           1     -20.616  -5.303  -9.943  0.00  0.00     0.275 HD
ENDBRANCH   5   6
BRANCH   5  10
HETATM   10  C           1     -22.693  -4.739  -8.801  0.00  0.00     0.145 C 
BRANCH  10  11
HETATM   11  C           1     -23.450  -3.704  -9.596  0.00  0.00     0.217 C 
HETATM   12  O           1     -23.009  -3.313 -10.652  0.00  0.00    -0.274 OA
HETATM   13  N           1     -24.635  -3.209  -9.123  0.00  0.00    -0.370 N 
HETATM   14  H           1     -25.142  -2.514  -9.657  0.00  0.00     0.159 HD
HETATM   15  H           1     -25.003  -3.536  -8.239  0.00  0.00     0.159 HD
ENDBRANCH  10  11
ENDBRANCH   5  10
ENDBRANCH   3   5
BRANCH   4  16
HETATM   16  C           1     -20.848  -6.659  -5.491  0.00  0.00     0.185 C 
BRANCH  16  17
HETATM   17  C           1     -22.050  -6.630  -4.555  0.00  0.00     0.036 C 
BRANCH  17  18
HETATM   18  C           1     -21.599  -6.210  -3.163  0.00  0.00     0.003 C 
BRANCH  18  19
HETATM   19 Se           1     -21.303  -7.795  -2.068  0.00  0.00     0.000 Se
HETATM   20  C           1     -22.436  -7.194  -0.601  0.00  0.00     0.000 C 
ENDBRANCH  18  19
ENDBRANCH  17  18
ENDBRANCH  16  17
BRANCH  16  21
HETATM   21  C           1     -20.402  -8.085  -5.695  0.00  0.00     0.196 C 
HETATM   22  O           1     -21.247  -9.006  -5.735  0.00  0.00    -0.646 OA
HETATM   23  O           1     -19.187  -8.348  -5.824  0.00  0.00    -0.646 OA
ENDBRANCH  16  21
ENDBRANCH   4  16
TORSDOF 9
ENDMDL
