MODEL 1
REMARK VINA RESULT:      -6.7      0.000      0.000
REMARK  6 active torsions:
REMARK  status: ('A' for Active; 'I' for Inactive)
REMARK    1  A    between atoms: N_2  and  C_13 
REMARK       I    between atoms: C_8  and  N_15 
REMARK    2  A    between atoms: C_8  and  C_13 
REMARK    3  A    between atoms: C_10  and  C_11 
REMARK    4  A    between atoms: C_11  and  C_13 
REMARK    5  A    between atoms: N_15  and  C_21 
REMARK    6  A    between atoms: C_20  and  C_21 
ROOT
HETATM    1  C           1     -34.504  -2.320 -11.901  0.00  0.00     0.280 C 
ENDROOT
BRANCH   1   2
HETATM    2  N           1     -33.816  -1.376 -10.961  0.00  0.00    -0.066 N 
HETATM    3  H           1     -33.056  -1.883 -10.454  0.00  0.00     0.275 HD
HETATM    4  H           1     -33.404  -0.582 -11.503  0.00  0.00     0.275 HD
HETATM    5  H           1     -34.508  -1.004 -10.272  0.00  0.00     0.275 HD
ENDBRANCH   1   2
BRANCH   1   6
HETATM    6  C           1     -35.411  -1.540 -12.822  0.00  0.00     0.249 C 
HETATM    7  N           1     -34.936  -1.078 -14.020  0.00  0.00    -0.345 N 
HETATM    8  H           1     -33.977  -1.260 -14.288  0.00  0.00     0.163 HD
HETATM    9  O           1     -36.555  -1.324 -12.503  0.00  0.00    -0.271 OA
BRANCH   7  10
HETATM   10  C           1     -35.806  -0.329 -14.905  0.00  0.00     0.181 C 
HETATM   11  C           1     -35.319   1.111 -14.997  0.00  0.00     0.043 C 
BRANCH  10  12
HETATM   12  C           1     -35.786  -0.955 -16.278  0.00  0.00     0.196 C 
HETATM   13  O           1     -34.826  -1.677 -16.621  0.00  0.00    -0.646 OA
HETATM   14  O           1     -36.730  -0.750 -17.072  0.00  0.00    -0.646 OA
ENDBRANCH  10  12
ENDBRANCH   7  10
ENDBRANCH   1   6
BRANCH   1  15
HETATM   15  C           1     -35.331  -3.319 -11.102  0.00  0.00     0.101 C 
BRANCH  15  16
HETATM   16  C           1     -34.605  -4.626 -11.033  0.00  0.00     0.028 A 
HETATM   17  N           1     -35.086  -5.753 -10.419  0.00  0.00    -0.355 N 
HETATM   18  C           1     -34.154  -6.663 -10.584  0.00  0.00     0.180 A 
ATOM     19  HN          1     -35.979  -5.862  -9.938  1.00  0.00     0.166 HD
HETATM   20  N           1     -33.088  -6.167 -11.280  0.00  0.00    -0.360 N 
HETATM   21  C           1     -33.363  -4.860 -11.574  0.00  0.00     0.114 A 
HETATM   22  H           1     -32.218  -6.692 -11.541  0.00  0.00     0.166 HD
ENDBRANCH  15  16
ENDBRANCH   1  15
TORSDOF 6
ENDMDL
MODEL 2
REMARK VINA RESULT:      -6.5      8.774     10.255
REMARK  6 active torsions:
REMARK  status: ('A' for Active; 'I' for Inactive)
REMARK    1  A    between atoms: N_2  and  C_13 
REMARK       I    between atoms: C_8  and  N_15 
REMARK    2  A    between atoms: C_8  and  C_13 
REMARK    3  A    between atoms: C_10  and  C_11 
REMARK    4  A    between atoms: C_11  and  C_13 
REMARK    5  A    between atoms: N_15  and  C_21 
REMARK    6  A    between atoms: C_20  and  C_21 
ROOT
HETATM    1  C           1     -29.594  -6.735 -17.886  0.00  0.00     0.280 C 
ENDROOT
BRANCH   1   2
HETATM    2  N           1     -29.360  -8.110 -17.335  0.00  0.00    -0.066 N 
HETATM    3  H           1     -30.081  -8.321 -16.608  0.00  0.00     0.275 HD
HETATM    4  H           1     -29.428  -8.812 -18.107  0.00  0.00     0.275 HD
HETATM    5  H           1     -28.408  -8.156 -16.907  0.00  0.00     0.275 HD
ENDBRANCH   1   2
BRANCH   1   6
HETATM    6  C           1     -28.460  -6.364 -18.810  0.00  0.00     0.249 C 
HETATM    7  N           1     -27.675  -7.343 -19.358  0.00  0.00    -0.345 N 
HETATM    8  H           1     -27.856  -8.315 -19.143  0.00  0.00     0.163 HD
HETATM    9  O           1     -28.245  -5.204 -19.066  0.00  0.00    -0.271 OA
BRANCH   7  10
HETATM   10  C           1     -26.585  -6.987 -20.246  0.00  0.00     0.181 C 
HETATM   11  C           1     -25.317  -6.773 -19.431  0.00  0.00     0.043 C 
BRANCH  10  12
HETATM   12  C           1     -26.363  -8.100 -21.239  0.00  0.00     0.196 C 
HETATM   13  O           1     -25.238  -8.256 -21.761  0.00  0.00    -0.646 OA
HETATM   14  O           1     -27.304  -8.865 -21.541  0.00  0.00    -0.646 OA
ENDBRANCH  10  12
ENDBRANCH   7  10
ENDBRANCH   1   6
BRANCH   1  15
HETATM   15  C           1     -29.664  -5.734 -16.740  0.00  0.00     0.101 C 
BRANCH  15  16
HETATM   16  C           1     -30.869  -4.863 -16.910  0.00  0.00     0.028 A 
HETATM   17  N           1     -32.126  -5.175 -16.463  0.00  0.00    -0.355 N 
HETATM   18  C           1     -32.881  -4.159 -16.811  0.00  0.00     0.180 A 
ATOM     19  HN          1     -32.414  -6.018 -15.966  1.00  0.00     0.166 HD
HETATM   20  N           1     -32.160  -3.202 -17.467  0.00  0.00    -0.360 N 
HETATM   21  C           1     -30.867  -3.640 -17.538  0.00  0.00     0.114 A 
HETATM   22  H           1     -32.530  -2.295 -17.846  0.00  0.00     0.166 HD
ENDBRANCH  15  16
ENDBRANCH   1  15
TORSDOF 6
ENDMDL
MODEL 3
REMARK VINA RESULT:      -6.2     13.076     14.571
REMARK  6 active torsions:
REMARK  status: ('A' for Active; 'I' for Inactive)
REMARK    1  A    between atoms: N_2  and  C_13 
REMARK       I    between atoms: C_8  and  N_15 
REMARK    2  A    between atoms: C_8  and  C_13 
REMARK    3  A    between atoms: C_10  and  C_11 
REMARK    4  A    between atoms: C_11  and  C_13 
REMARK    5  A    between atoms: N_15  and  C_21 
REMARK    6  A    between atoms: C_20  and  C_21 
ROOT
HETATM    1  C           1     -21.163  -5.627  -6.870  0.00  0.00     0.280 C 
ENDROOT
BRANCH   1   2
HETATM    2  N           1     -19.981  -6.224  -7.574  0.00  0.00    -0.066 N 
HETATM    3  H           1     -20.246  -7.155  -7.970  0.00  0.00     0.275 HD
HETATM    4  H           1     -19.678  -5.590  -8.347  0.00  0.00     0.275 HD
HETATM    5  H           1     -19.196  -6.345  -6.894  0.00  0.00     0.275 HD
ENDBRANCH   1   2
BRANCH   1   6
HETATM    6  C           1     -21.703  -4.476  -7.683  0.00  0.00     0.249 C 
HETATM    7  N           1     -22.331  -4.716  -8.876  0.00  0.00    -0.345 N 
HETATM    8  H           1     -22.433  -5.666  -9.212  0.00  0.00     0.163 HD
HETATM    9  O           1     -21.582  -3.344  -7.282  0.00  0.00    -0.271 OA
BRANCH   7  10
HETATM   10  C           1     -22.850  -3.611  -9.658  0.00  0.00     0.181 C 
HETATM   11  C           1     -21.956  -3.382 -10.869  0.00  0.00     0.043 C 
BRANCH  10  12
HETATM   12  C           1     -24.249  -3.936 -10.119  0.00  0.00     0.196 C 
HETATM   13  O           1     -24.774  -5.026  -9.804  0.00  0.00    -0.646 OA
HETATM   14  O           1     -24.883  -3.116 -10.819  0.00  0.00    -0.646 OA
ENDBRANCH  10  12
ENDBRANCH   7  10
ENDBRANCH   1   6
BRANCH   1  15
HETATM   15  C           1     -20.734  -5.122  -5.498  0.00  0.00     0.101 C 
BRANCH  15  16
HETATM   16  C           1     -21.113  -6.127  -4.455  0.00  0.00     0.028 A 
HETATM   17  N           1     -21.457  -5.818  -3.165  0.00  0.00    -0.355 N 
HETATM   18  C           1     -21.713  -6.971  -2.589  0.00  0.00     0.180 A 
ATOM     19  HN          1     -21.503  -4.891  -2.742  1.00  0.00     0.166 HD
HETATM   20  N           1     -21.548  -8.011  -3.458  0.00  0.00    -0.360 N 
HETATM   21  C           1     -21.163  -7.485  -4.660  0.00  0.00     0.114 A 
HETATM   22  H           1     -21.691  -9.029  -3.243  0.00  0.00     0.166 HD
ENDBRANCH  15  16
ENDBRANCH   1  15
TORSDOF 6
ENDMDL
MODEL 4
REMARK VINA RESULT:      -6.1      8.286     10.106
REMARK  6 active torsions:
REMARK  status: ('A' for Active; 'I' for Inactive)
REMARK    1  A    between atoms: N_2  and  C_13 
REMARK       I    between atoms: C_8  and  N_15 
REMARK    2  A    between atoms: C_8  and  C_13 
REMARK    3  A    between atoms: C_10  and  C_11 
REMARK    4  A    between atoms: C_11  and  C_13 
REMARK    5  A    between atoms: N_15  and  C_21 
REMARK    6  A    between atoms: C_20  and  C_21 
ROOT
HETATM    1  C           1     -29.210  -6.035 -17.813  0.00  0.00     0.280 C 
ENDROOT
BRANCH   1   2
HETATM    2  N           1     -29.231  -7.412 -18.406  0.00  0.00    -0.066 N 
HETATM    3  H           1     -28.959  -8.110 -17.675  0.00  0.00     0.275 HD
HETATM    4  H           1     -30.192  -7.629 -18.754  0.00  0.00     0.275 HD
HETATM    5  H           1     -28.554  -7.459 -19.201  0.00  0.00     0.275 HD
ENDBRANCH   1   2
BRANCH   1   6
HETATM    6  C           1     -27.825  -5.732 -17.295  0.00  0.00     0.249 C 
HETATM    7  N           1     -26.836  -6.673 -17.394  0.00  0.00    -0.345 N 
HETATM    8  H           1     -27.034  -7.572 -17.815  0.00  0.00     0.163 HD
HETATM    9  O           1     -27.590  -4.658 -16.794  0.00  0.00    -0.271 OA
BRANCH   7  10
HETATM   10  C           1     -25.505  -6.381 -16.896  0.00  0.00     0.181 C 
HETATM   11  C           1     -25.315  -7.045 -15.539  0.00  0.00     0.043 C 
BRANCH  10  12
HETATM   12  C           1     -24.479  -6.914 -17.865  0.00  0.00     0.196 C 
HETATM   13  O           1     -23.526  -7.606 -17.448  0.00  0.00    -0.646 OA
HETATM   14  O           1     -24.582  -6.663 -19.086  0.00  0.00    -0.646 OA
ENDBRANCH  10  12
ENDBRANCH   7  10
ENDBRANCH   1   6
BRANCH   1  15
HETATM   15  C           1     -30.209  -5.961 -16.666  0.00  0.00     0.101 C 
BRANCH  15  16
HETATM   16  C           1     -31.215  -4.888 -16.947  0.00  0.00     0.028 A 
HETATM   17  N           1     -32.558  -4.996 -16.701  0.00  0.00    -0.355 N 
HETATM   18  C           1     -33.075  -3.852 -17.085  0.00  0.00     0.180 A 
ATOM     19  HN          1     -33.052  -5.795 -16.302  1.00  0.00     0.166 HD
HETATM   20  N           1     -32.116  -3.009 -17.572  0.00  0.00    -0.360 N 
HETATM   21  C           1     -30.917  -3.661 -17.489  0.00  0.00     0.114 A 
HETATM   22  H           1     -32.271  -2.039 -17.941  0.00  0.00     0.166 HD
ENDBRANCH  15  16
ENDBRANCH   1  15
TORSDOF 6
ENDMDL
MODEL 5
REMARK VINA RESULT:      -6.0     13.245     15.595
REMARK  6 active torsions:
REMARK  status: ('A' for Active; 'I' for Inactive)
REMARK    1  A    between atoms: N_2  and  C_13 
REMARK       I    between atoms: C_8  and  N_15 
REMARK    2  A    between atoms: C_8  and  C_13 
REMARK    3  A    between atoms: C_10  and  C_11 
REMARK    4  A    between atoms: C_11  and  C_13 
REMARK    5  A    between atoms: N_15  and  C_21 
REMARK    6  A    between atoms: C_20  and  C_21 
ROOT
HETATM    1  C           1     -21.637  -4.382  -7.204  0.00  0.00     0.280 C 
ENDROOT
BRANCH   1   2
HETATM    2  N           1     -20.192  -4.147  -6.879  0.00  0.00    -0.066 N 
HETATM    3  H           1     -19.972  -4.567  -5.947  0.00  0.00     0.275 HD
HETATM    4  H           1     -19.592  -4.590  -7.611  0.00  0.00     0.275 HD
HETATM    5  H           1     -20.004  -3.119  -6.852  0.00  0.00     0.275 HD
ENDBRANCH   1   2
BRANCH   1   6
HETATM    6  C           1     -22.214  -5.383  -6.234  0.00  0.00     0.249 C 
HETATM    7  N           1     -21.395  -6.296  -5.624  0.00  0.00    -0.345 N 
HETATM    8  H           1     -20.403  -6.299  -5.825  0.00  0.00     0.163 HD
HETATM    9  O           1     -23.397  -5.379  -5.994  0.00  0.00    -0.271 OA
BRANCH   7  10
HETATM   10  C           1     -21.949  -7.258  -4.691  0.00  0.00     0.181 C 
HETATM   11  C           1     -21.313  -8.621  -4.929  0.00  0.00     0.043 C 
BRANCH  10  12
HETATM   12  C           1     -21.664  -6.809  -3.279  0.00  0.00     0.196 C 
HETATM   13  O           1     -20.693  -7.288  -2.656  0.00  0.00    -0.646 OA
HETATM   14  O           1     -22.401  -5.960  -2.733  0.00  0.00    -0.646 OA
ENDBRANCH  10  12
ENDBRANCH   7  10
ENDBRANCH   1   6
BRANCH   1  15
HETATM   15  C           1     -21.755  -4.924  -8.623  0.00  0.00     0.101 C 
BRANCH  15  16
HETATM   16  C           1     -23.002  -4.392  -9.259  0.00  0.00     0.028 A 
HETATM   17  N           1     -23.910  -3.580  -8.632  0.00  0.00    -0.355 N 
HETATM   18  C           1     -24.843  -3.346  -9.527  0.00  0.00     0.180 A 
ATOM     19  HN          1     -23.871  -3.232  -7.673  1.00  0.00     0.166 HD
HETATM   20  N           1     -24.571  -3.976 -10.708  0.00  0.00    -0.360 N 
HETATM   21  C           1     -23.392  -4.651 -10.551  0.00  0.00     0.114 A 
HETATM   22  H           1     -25.158  -3.947 -11.577  0.00  0.00     0.166 HD
ENDBRANCH  15  16
ENDBRANCH   1  15
TORSDOF 6
ENDMDL
MODEL 6
REMARK VINA RESULT:      -6.0      1.938      2.499
REMARK  6 active torsions:
REMARK  status: ('A' for Active; 'I' for Inactive)
REMARK    1  A    between atoms: N_2  and  C_13 
REMARK       I    between atoms: C_8  and  N_15 
REMARK    2  A    between atoms: C_8  and  C_13 
REMARK    3  A    between atoms: C_10  and  C_11 
REMARK    4  A    between atoms: C_11  and  C_13 
REMARK    5  A    between atoms: N_15  and  C_21 
REMARK    6  A    between atoms: C_20  and  C_21 
ROOT
HETATM    1  C           1     -34.541  -3.880 -12.209  0.00  0.00     0.280 C 
ENDROOT
BRANCH   1   2
HETATM    2  N           1     -33.415  -3.897 -13.199  0.00  0.00    -0.066 N 
HETATM    3  H           1     -33.656  -3.285 -14.011  0.00  0.00     0.275 HD
HETATM    4  H           1     -32.543  -3.544 -12.743  0.00  0.00     0.275 HD
HETATM    5  H           1     -33.260  -4.876 -13.533  0.00  0.00     0.275 HD
ENDBRANCH   1   2
BRANCH   1   6
HETATM    6  C           1     -35.049  -2.468 -12.050  0.00  0.00     0.249 C 
HETATM    7  N           1     -35.008  -1.603 -13.111  0.00  0.00    -0.345 N 
HETATM    8  H           1     -34.637  -1.911 -14.001  0.00  0.00     0.163 HD
HETATM    9  O           1     -35.492  -2.101 -10.989  0.00  0.00    -0.271 OA
BRANCH   7  10
HETATM   10  C           1     -35.497  -0.246 -12.959  0.00  0.00     0.181 C 
HETATM   11  C           1     -34.884   0.638 -14.037  0.00  0.00     0.043 C 
BRANCH  10  12
HETATM   12  C           1     -36.999  -0.235 -13.094  0.00  0.00     0.196 C 
HETATM   13  O           1     -37.705   0.249 -12.184  0.00  0.00    -0.646 OA
HETATM   14  O           1     -37.538  -0.713 -14.116  0.00  0.00    -0.646 OA
ENDBRANCH  10  12
ENDBRANCH   7  10
ENDBRANCH   1   6
BRANCH   1  15
HETATM   15  C           1     -34.042  -4.395 -10.864  0.00  0.00     0.101 C 
BRANCH  15  16
HETATM   16  C           1     -34.421  -5.835 -10.708  0.00  0.00     0.028 A 
HETATM   17  N           1     -34.397  -6.522  -9.523  0.00  0.00    -0.355 N 
HETATM   18  C           1     -34.795  -7.738  -9.819  0.00  0.00     0.180 A 
ATOM     19  HN          1     -34.129  -6.165  -8.606  1.00  0.00     0.166 HD
HETATM   20  N           1     -35.073  -7.862 -11.151  0.00  0.00    -0.360 N 
HETATM   21  C           1     -34.838  -6.648 -11.735  0.00  0.00     0.114 A 
HETATM   22  H           1     -35.408  -8.730 -11.637  0.00  0.00     0.166 HD
ENDBRANCH  15  16
ENDBRANCH   1  15
TORSDOF 6
ENDMDL
MODEL 7
REMARK VINA RESULT:      -5.9      3.569      5.629
REMARK  6 active torsions:
REMARK  status: ('A' for Active; 'I' for Inactive)
REMARK    1  A    between atoms: N_2  and  C_13 
REMARK       I    between atoms: C_8  and  N_15 
REMARK    2  A    between atoms: C_8  and  C_13 
REMARK    3  A    between atoms: C_10  and  C_11 
REMARK    4  A    between atoms: C_11  and  C_13 
REMARK    5  A    between atoms: N_15  and  C_21 
REMARK    6  A    between atoms: C_20  and  C_21 
ROOT
HETATM    1  C           1     -36.386  -0.252 -11.398  0.00  0.00     0.280 C 
ENDROOT
BRANCH   1   2
HETATM    2  N           1     -37.168  -0.096 -12.667  0.00  0.00    -0.066 N 
HETATM    3  H           1     -36.572  -0.373 -13.480  0.00  0.00     0.275 HD
HETATM    4  H           1     -38.016  -0.706 -12.633  0.00  0.00     0.275 HD
HETATM    5  H           1     -37.462   0.902 -12.774  0.00  0.00     0.275 HD
ENDBRANCH   1   2
BRANCH   1   6
HETATM    6  C           1     -35.226  -1.188 -11.634  0.00  0.00     0.249 C 
HETATM    7  N           1     -35.409  -2.542 -11.545  0.00  0.00    -0.345 N 
HETATM    8  H           1     -36.323  -2.915 -11.320  0.00  0.00     0.163 HD
HETATM    9  O           1     -34.136  -0.743 -11.904  0.00  0.00    -0.271 OA
BRANCH   7  10
HETATM   10  C           1     -34.295  -3.442 -11.772  0.00  0.00     0.181 C 
HETATM   11  C           1     -34.157  -4.388 -10.587  0.00  0.00     0.043 C 
BRANCH  10  12
HETATM   12  C           1     -34.544  -4.241 -13.027  0.00  0.00     0.196 C 
HETATM   13  O           1     -35.059  -5.377 -12.953  0.00  0.00    -0.646 OA
HETATM   14  O           1     -34.232  -3.767 -14.141  0.00  0.00    -0.646 OA
ENDBRANCH  10  12
ENDBRANCH   7  10
ENDBRANCH   1   6
BRANCH   1  15
HETATM   15  C           1     -37.289  -0.826 -10.313  0.00  0.00     0.101 C 
BRANCH  15  16
HETATM   16  C           1     -37.222   0.042  -9.095  0.00  0.00     0.028 A 
HETATM   17  N           1     -36.752   1.329  -9.082  0.00  0.00    -0.355 N 
HETATM   18  C           1     -36.863   1.726  -7.835  0.00  0.00     0.180 A 
ATOM     19  HN          1     -36.393   1.865  -9.872  1.00  0.00     0.166 HD
HETATM   20  N           1     -37.386   0.743  -7.043  0.00  0.00    -0.360 N 
HETATM   21  C           1     -37.622  -0.344  -7.838  0.00  0.00     0.114 A 
HETATM   22  H           1     -37.574   0.811  -6.012  0.00  0.00     0.166 HD
ENDBRANCH  15  16
ENDBRANCH   1  15
TORSDOF 6
ENDMDL
MODEL 8
REMARK VINA RESULT:      -5.7     11.511     12.878
REMARK  6 active torsions:
REMARK  status: ('A' for Active; 'I' for Inactive)
REMARK    1  A    between atoms: N_2  and  C_13 
REMARK       I    between atoms: C_8  and  N_15 
REMARK    2  A    between atoms: C_8  and  C_13 
REMARK    3  A    between atoms: C_10  and  C_11 
REMARK    4  A    between atoms: C_11  and  C_13 
REMARK    5  A    between atoms: N_15  and  C_21 
REMARK    6  A    between atoms: C_20  and  C_21 
ROOT
HETATM    1  C           1     -26.095  -7.474 -20.314  0.00  0.00     0.280 C 
ENDROOT
BRANCH   1   2
HETATM    2  N           1     -26.851  -8.558 -21.022  0.00  0.00    -0.066 N 
HETATM    3  H           1     -27.712  -8.794 -20.478  0.00  0.00     0.275 HD
HETATM    4  H           1     -27.121  -8.230 -21.976  0.00  0.00     0.275 HD
HETATM    5  H           1     -26.247  -9.407 -21.104  0.00  0.00     0.275 HD
ENDBRANCH   1   2
BRANCH   1   6
HETATM    6  C           1     -27.069  -6.468 -19.750  0.00  0.00     0.249 C 
HETATM    7  N           1     -27.528  -6.605 -18.467  0.00  0.00    -0.345 N 
HETATM    8  H           1     -27.214  -7.380 -17.898  0.00  0.00     0.163 HD
HETATM    9  O           1     -27.442  -5.542 -20.429  0.00  0.00    -0.271 OA
BRANCH   7  10
HETATM   10  C           1     -28.463  -5.639 -17.925  0.00  0.00     0.181 C 
HETATM   11  C           1     -29.626  -6.371 -17.268  0.00  0.00     0.043 C 
BRANCH  10  12
HETATM   12  C           1     -27.763  -4.784 -16.898  0.00  0.00     0.196 C 
HETATM   13  O           1     -26.725  -5.200 -16.341  0.00  0.00    -0.646 OA
HETATM   14  O           1     -28.222  -3.659 -16.604  0.00  0.00    -0.646 OA
ENDBRANCH  10  12
ENDBRANCH   7  10
ENDBRANCH   1   6
BRANCH   1  15
HETATM   15  C           1     -25.162  -6.780 -21.298  0.00  0.00     0.101 C 
BRANCH  15  16
HETATM   16  C           1     -24.016  -7.687 -21.625  0.00  0.00     0.028 A 
HETATM   17  N           1     -23.229  -8.313 -20.694  0.00  0.00    -0.355 N 
HETATM   18  C           1     -22.354  -9.003 -21.389  0.00  0.00     0.180 A 
ATOM     19  HN          1     -23.306  -8.254 -19.679  1.00  0.00     0.166 HD
HETATM   20  N           1     -22.546  -8.847 -22.732  0.00  0.00    -0.360 N 
HETATM   21  C           1     -23.610  -8.005 -22.899  0.00  0.00     0.114 A 
HETATM   22  H           1     -21.981  -9.293 -23.496  0.00  0.00     0.166 HD
ENDBRANCH  15  16
ENDBRANCH   1  15
TORSDOF 6
ENDMDL
MODEL 9
REMARK VINA RESULT:      -5.7      9.134     10.222
REMARK  6 active torsions:
REMARK  status: ('A' for Active; 'I' for Inactive)
REMARK    1  A    between atoms: N_2  and  C_13 
REMARK       I    between atoms: C_8  and  N_15 
REMARK    2  A    between atoms: C_8  and  C_13 
REMARK    3  A    between atoms: C_10  and  C_11 
REMARK    4  A    between atoms: C_11  and  C_13 
REMARK    5  A    between atoms: N_15  and  C_21 
REMARK    6  A    between atoms: C_20  and  C_21 
ROOT
HETATM    1  C           1     -28.155  -7.101 -18.490  0.00  0.00     0.280 C 
ENDROOT
BRANCH   1   2
HETATM    2  N           1     -29.216  -8.031 -18.999  0.00  0.00    -0.066 N 
HETATM    3  H           1     -30.153  -7.577 -18.900  0.00  0.00     0.275 HD
HETATM    4  H           1     -29.037  -8.247 -20.005  0.00  0.00     0.275 HD
HETATM    5  H           1     -29.197  -8.917 -18.444  0.00  0.00     0.275 HD
ENDBRANCH   1   2
BRANCH   1   6
HETATM    6  C           1     -28.771  -6.113 -17.530  0.00  0.00     0.249 C 
HETATM    7  N           1     -29.267  -4.924 -17.994  0.00  0.00    -0.345 N 
HETATM    8  H           1     -29.219  -4.709 -18.982  0.00  0.00     0.163 HD
HETATM    9  O           1     -28.828  -6.372 -16.351  0.00  0.00    -0.271 OA
BRANCH   7  10
HETATM   10  C           1     -29.859  -3.975 -17.072  0.00  0.00     0.181 C 
HETATM   11  C           1     -29.287  -2.588 -17.335  0.00  0.00     0.043 C 
BRANCH  10  12
HETATM   12  C           1     -31.354  -3.949 -17.270  0.00  0.00     0.196 C 
HETATM   13  O           1     -32.054  -4.905 -16.873  0.00  0.00    -0.646 OA
HETATM   14  O           1     -31.892  -2.971 -17.833  0.00  0.00    -0.646 OA
ENDBRANCH  10  12
ENDBRANCH   7  10
ENDBRANCH   1   6
BRANCH   1  15
HETATM   15  C           1     -27.533  -6.351 -19.661  0.00  0.00     0.101 C 
BRANCH  15  16
HETATM   16  C           1     -26.301  -7.069 -20.117  0.00  0.00     0.028 A 
HETATM   17  N           1     -25.062  -6.928 -19.549  0.00  0.00    -0.355 N 
HETATM   18  C           1     -24.273  -7.721 -20.237  0.00  0.00     0.180 A 
ATOM     19  HN          1     -24.807  -6.334 -18.760  1.00  0.00     0.166 HD
HETATM   20  N           1     -24.955  -8.367 -21.228  0.00  0.00    -0.360 N 
HETATM   21  C           1     -26.258  -7.960 -21.163  0.00  0.00     0.114 A 
HETATM   22  H           1     -24.552  -9.053 -21.914  0.00  0.00     0.166 HD
ENDBRANCH  15  16
ENDBRANCH   1  15
TORSDOF 6
ENDMDL
