MODEL 1
REMARK VINA RESULT:      -6.9      0.000      0.000
REMARK  11 active torsions:
REMARK  status: ('A' for Active; 'I' for Inactive)
REMARK    1  A    between atoms: C_2  and  C_13 
REMARK    2  A    between atoms: C_2  and  C_18 
REMARK    3  A    between atoms: C_2  and  N_7 
REMARK       I    between atoms: N_5  and  C_15 
REMARK    4  A    between atoms: C_6  and  C_18 
REMARK    5  A    between atoms: C_6  and  S_19 
REMARK    6  A    between atoms: C_8  and  C_9 
REMARK    7  A    between atoms: C_8  and  C_17 
REMARK    8  A    between atoms: C_8  and  N_11 
REMARK    9  A    between atoms: C_9  and  C_14 
REMARK       I    between atoms: N_11  and  C_13 
REMARK   10  A    between atoms: C_14  and  C_26 
REMARK       I    between atoms: C_15  and  N_24 
REMARK   11  A    between atoms: N_24  and  C_26 
ROOT
HETATM    1  C           1     -28.292  -6.318 -17.084  0.00  0.00     0.185 C 
ENDROOT
BRANCH   1   2
HETATM    2  C           1     -29.441  -6.035 -18.043  0.00  0.00     0.038 C 
BRANCH   2   3
HETATM    3  C           1     -29.377  -4.584 -18.500  0.00  0.00     0.023 C 
BRANCH   3   4
HETATM    4  C           1     -29.910  -3.679 -17.397  0.00  0.00     0.138 C 
BRANCH   4   5
HETATM    5  N           1     -31.233  -3.164 -17.780  0.00  0.00    -0.227 N 
HETATM    6  H           1     -31.315  -2.436 -18.532  0.00  0.00     0.177 HD
HETATM    7  C           1     -32.273  -3.599 -17.204  0.00  0.00     0.665 C 
HETATM    8  N           1     -33.442  -3.143 -17.542  0.00  0.00    -0.235 N 
HETATM    9  N           1     -32.174  -4.477 -16.297  0.00  0.00    -0.235 N 
HETATM   10  H           1     -33.523  -2.418 -18.290  0.00  0.00     0.174 HD
HETATM   11  H           1     -34.300  -3.502 -17.067  0.00  0.00     0.174 HD
HETATM   12  H           1     -33.037  -4.837 -15.820  0.00  0.00     0.174 HD
HETATM   13  H           1     -31.230  -4.845 -16.024  0.00  0.00     0.174 HD
ENDBRANCH   4   5
ENDBRANCH   3   4
ENDBRANCH   2   3
ENDBRANCH   1   2
BRANCH   1  14
HETATM   14  C           1     -28.644  -7.495 -16.209  0.00  0.00     0.196 C 
HETATM   15  O           1     -28.162  -7.586 -15.060  0.00  0.00    -0.646 OA
HETATM   16  O           1     -29.418  -8.380 -16.634  0.00  0.00    -0.646 OA
ENDBRANCH   1  14
BRANCH   1  17
HETATM   17  N           1     -27.094  -6.621 -17.843  0.00  0.00    -0.345 N 
HETATM   18  H           1     -27.166  -7.090 -18.736  0.00  0.00     0.163 HD
HETATM   19  C           1     -25.865  -6.271 -17.351  0.00  0.00     0.249 C 
HETATM   20  O           1     -25.780  -5.711 -16.285  0.00  0.00    -0.271 OA
BRANCH  19  21
HETATM   21  C           1     -24.618  -6.587 -18.140  0.00  0.00     0.275 C 
BRANCH  21  22
HETATM   22  C           1     -24.990  -6.865 -19.589  0.00  0.00     0.053 C 
BRANCH  22  23
HETATM   23  C           1     -23.943  -7.777 -20.217  0.00  0.00     0.076 C 
BRANCH  23  24
HETATM   24  S           1     -24.233  -7.888 -22.006  0.00  0.00    -0.173 SA
HETATM   25  C           1     -22.618  -8.602 -22.424  0.00  0.00     0.089 C 
ENDBRANCH  23  24
ENDBRANCH  22  23
ENDBRANCH  21  22
BRANCH  21  26
HETATM   26  N           1     -23.950  -7.795 -17.555  0.00  0.00    -0.066 N 
HETATM   27  H           1     -24.524  -8.161 -16.762  0.00  0.00     0.275 HD
HETATM   28  H           1     -23.860  -8.534 -18.288  0.00  0.00     0.275 HD
HETATM   29  H           1     -23.000  -7.533 -17.205  0.00  0.00     0.275 HD
ENDBRANCH  21  26
ENDBRANCH  19  21
ENDBRANCH   1  17
TORSDOF 11
ENDMDL
MODEL 2
REMARK VINA RESULT:      -6.5      1.769      2.449
REMARK  11 active torsions:
REMARK  status: ('A' for Active; 'I' for Inactive)
REMARK    1  A    between atoms: C_2  and  C_13 
REMARK    2  A    between atoms: C_2  and  C_18 
REMARK    3  A    between atoms: C_2  and  N_7 
REMARK       I    between atoms: N_5  and  C_15 
REMARK    4  A    between atoms: C_6  and  C_18 
REMARK    5  A    between atoms: C_6  and  S_19 
REMARK    6  A    between atoms: C_8  and  C_9 
REMARK    7  A    between atoms: C_8  and  C_17 
REMARK    8  A    between atoms: C_8  and  N_11 
REMARK    9  A    between atoms: C_9  and  C_14 
REMARK       I    between atoms: N_11  and  C_13 
REMARK   10  A    between atoms: C_14  and  C_26 
REMARK       I    between atoms: C_15  and  N_24 
REMARK   11  A    between atoms: N_24  and  C_26 
ROOT
HETATM    1  C           1     -28.078  -6.036 -17.673  0.00  0.00     0.185 C 
ENDROOT
BRANCH   1   2
HETATM    2  C           1     -28.736  -7.175 -16.905  0.00  0.00     0.038 C 
BRANCH   2   3
HETATM    3  C           1     -30.044  -7.558 -17.583  0.00  0.00     0.023 C 
BRANCH   3   4
HETATM    4  C           1     -30.801  -6.297 -17.977  0.00  0.00     0.138 C 
BRANCH   4   5
HETATM    5  N           1     -31.740  -5.932 -16.907  0.00  0.00    -0.227 N 
HETATM    6  H           1     -32.199  -6.682 -16.333  0.00  0.00     0.177 HD
HETATM    7  C           1     -31.995  -4.713 -16.677  0.00  0.00     0.665 C 
HETATM    8  N           1     -32.826  -4.391 -15.730  0.00  0.00    -0.235 N 
HETATM    9  N           1     -31.442  -3.809 -17.368  0.00  0.00    -0.235 N 
HETATM   10  H           1     -33.283  -5.137 -15.160  0.00  0.00     0.174 HD
HETATM   11  H           1     -33.037  -3.385 -15.540  0.00  0.00     0.174 HD
HETATM   12  H           1     -31.654  -2.799 -17.177  0.00  0.00     0.174 HD
HETATM   13  H           1     -30.771  -4.069 -18.132  0.00  0.00     0.174 HD
ENDBRANCH   4   5
ENDBRANCH   3   4
ENDBRANCH   2   3
ENDBRANCH   1   2
BRANCH   1  14
HETATM   14  C           1     -28.044  -4.799 -16.810  0.00  0.00     0.196 C 
HETATM   15  O           1     -28.415  -3.701 -17.277  0.00  0.00    -0.646 OA
HETATM   16  O           1     -27.644  -4.873 -15.628  0.00  0.00    -0.646 OA
ENDBRANCH   1  14
BRANCH   1  17
HETATM   17  N           1     -26.725  -6.413 -18.031  0.00  0.00    -0.345 N 
HETATM   18  H           1     -26.050  -6.622 -17.306  0.00  0.00     0.163 HD
HETATM   19  C           1     -26.360  -6.488 -19.349  0.00  0.00     0.249 C 
HETATM   20  O           1     -27.166  -6.239 -20.212  0.00  0.00    -0.271 OA
BRANCH  19  21
HETATM   21  C           1     -24.951  -6.880 -19.721  0.00  0.00     0.275 C 
BRANCH  21  22
HETATM   22  C           1     -24.988  -7.875 -20.872  0.00  0.00     0.053 C 
BRANCH  22  23
HETATM   23  C           1     -24.272  -7.284 -22.079  0.00  0.00     0.076 C 
BRANCH  23  24
HETATM   24  S           1     -23.158  -8.528 -22.792  0.00  0.00    -0.173 SA
HETATM   25  C           1     -22.046  -8.641 -21.363  0.00  0.00     0.089 C 
ENDBRANCH  23  24
ENDBRANCH  22  23
ENDBRANCH  21  22
BRANCH  21  26
HETATM   26  N           1     -24.279  -7.509 -18.537  0.00  0.00    -0.066 N 
HETATM   27  H           1     -23.551  -6.859 -18.163  0.00  0.00     0.275 HD
HETATM   28  H           1     -24.989  -7.699 -17.794  0.00  0.00     0.275 HD
HETATM   29  H           1     -23.829  -8.406 -18.828  0.00  0.00     0.275 HD
ENDBRANCH  21  26
ENDBRANCH  19  21
ENDBRANCH   1  17
TORSDOF 11
ENDMDL
MODEL 3
REMARK VINA RESULT:      -6.4      1.730      2.419
REMARK  11 active torsions:
REMARK  status: ('A' for Active; 'I' for Inactive)
REMARK    1  A    between atoms: C_2  and  C_13 
REMARK    2  A    between atoms: C_2  and  C_18 
REMARK    3  A    between atoms: C_2  and  N_7 
REMARK       I    between atoms: N_5  and  C_15 
REMARK    4  A    between atoms: C_6  and  C_18 
REMARK    5  A    between atoms: C_6  and  S_19 
REMARK    6  A    between atoms: C_8  and  C_9 
REMARK    7  A    between atoms: C_8  and  C_17 
REMARK    8  A    between atoms: C_8  and  N_11 
REMARK    9  A    between atoms: C_9  and  C_14 
REMARK       I    between atoms: N_11  and  C_13 
REMARK   10  A    between atoms: C_14  and  C_26 
REMARK       I    between atoms: C_15  and  N_24 
REMARK   11  A    between atoms: N_24  and  C_26 
ROOT
HETATM    1  C           1     -26.448  -6.010 -17.323  0.00  0.00     0.185 C 
ENDROOT
BRANCH   1   2
HETATM    2  C           1     -27.799  -5.323 -17.169  0.00  0.00     0.038 C 
BRANCH   2   3
HETATM    3  C           1     -28.794  -5.932 -18.147  0.00  0.00     0.023 C 
BRANCH   3   4
HETATM    4  C           1     -29.989  -6.483 -17.380  0.00  0.00     0.138 C 
BRANCH   4   5
HETATM    5  N           1     -30.695  -5.381 -16.712  0.00  0.00    -0.227 N 
HETATM    6  H           1     -30.150  -4.609 -16.255  0.00  0.00     0.177 HD
HETATM    7  C           1     -31.961  -5.362 -16.689  0.00  0.00     0.665 C 
HETATM    8  N           1     -32.586  -4.387 -16.099  0.00  0.00    -0.235 N 
HETATM    9  N           1     -32.618  -6.293 -17.241  0.00  0.00    -0.235 N 
HETATM   10  H           1     -32.043  -3.619 -15.644  0.00  0.00     0.174 HD
HETATM   11  H           1     -33.630  -4.371 -16.080  0.00  0.00     0.174 HD
HETATM   12  H           1     -33.667  -6.277 -17.221  0.00  0.00     0.174 HD
HETATM   13  H           1     -32.113  -7.080 -17.718  0.00  0.00     0.174 HD
ENDBRANCH   4   5
ENDBRANCH   3   4
ENDBRANCH   2   3
ENDBRANCH   1   2
BRANCH   1  14
HETATM   14  C           1     -26.199  -6.903 -16.133  0.00  0.00     0.196 C 
HETATM   15  O           1     -25.031  -7.229 -15.829  0.00  0.00    -0.646 OA
HETATM   16  O           1     -27.160  -7.318 -15.451  0.00  0.00    -0.646 OA
ENDBRANCH   1  14
BRANCH   1  17
HETATM   17  N           1     -26.447  -6.808 -18.534  0.00  0.00    -0.345 N 
HETATM   18  H           1     -27.291  -7.281 -18.828  0.00  0.00     0.163 HD
HETATM   19  C           1     -25.304  -6.919 -19.280  0.00  0.00     0.249 C 
HETATM   20  O           1     -24.298  -6.353 -18.928  0.00  0.00    -0.271 OA
BRANCH  19  21
HETATM   21  C           1     -25.303  -7.749 -20.540  0.00  0.00     0.275 C 
BRANCH  21  22
HETATM   22  C           1     -24.745  -6.924 -21.691  0.00  0.00     0.053 C 
BRANCH  22  23
HETATM   23  C           1     -23.858  -7.804 -22.564  0.00  0.00     0.076 C 
BRANCH  23  24
HETATM   24  S           1     -22.592  -8.598 -21.533  0.00  0.00    -0.173 SA
HETATM   25  C           1     -21.676  -9.364 -22.899  0.00  0.00     0.089 C 
ENDBRANCH  23  24
ENDBRANCH  22  23
ENDBRANCH  21  22
BRANCH  21  26
HETATM   26  N           1     -26.706  -8.170 -20.861  0.00  0.00    -0.066 N 
HETATM   27  H           1     -26.685  -8.967 -21.537  0.00  0.00     0.275 HD
HETATM   28  H           1     -27.189  -8.471 -19.985  0.00  0.00     0.275 HD
HETATM   29  H           1     -27.223  -7.367 -21.286  0.00  0.00     0.275 HD
ENDBRANCH  21  26
ENDBRANCH  19  21
ENDBRANCH   1  17
TORSDOF 11
ENDMDL
MODEL 4
REMARK VINA RESULT:      -5.9     13.343     14.867
REMARK  11 active torsions:
REMARK  status: ('A' for Active; 'I' for Inactive)
REMARK    1  A    between atoms: C_2  and  C_13 
REMARK    2  A    between atoms: C_2  and  C_18 
REMARK    3  A    between atoms: C_2  and  N_7 
REMARK       I    between atoms: N_5  and  C_15 
REMARK    4  A    between atoms: C_6  and  C_18 
REMARK    5  A    between atoms: C_6  and  S_19 
REMARK    6  A    between atoms: C_8  and  C_9 
REMARK    7  A    between atoms: C_8  and  C_17 
REMARK    8  A    between atoms: C_8  and  N_11 
REMARK    9  A    between atoms: C_9  and  C_14 
REMARK       I    between atoms: N_11  and  C_13 
REMARK   10  A    between atoms: C_14  and  C_26 
REMARK       I    between atoms: C_15  and  N_24 
REMARK   11  A    between atoms: N_24  and  C_26 
ROOT
HETATM    1  C           1     -21.503  -5.830  -6.196  0.00  0.00     0.185 C 
ENDROOT
BRANCH   1   2
HETATM    2  C           1     -22.536  -4.858  -6.752  0.00  0.00     0.038 C 
BRANCH   2   3
HETATM    3  C           1     -21.832  -3.767  -7.547  0.00  0.00     0.023 C 
BRANCH   3   4
HETATM    4  C           1     -22.420  -3.700  -8.950  0.00  0.00     0.138 C 
BRANCH   4   5
HETATM    5  N           1     -23.847  -3.355  -8.869  0.00  0.00    -0.227 N 
HETATM    6  H           1     -24.203  -2.781  -8.065  0.00  0.00     0.177 HD
HETATM    7  C           1     -24.646  -3.749  -9.769  0.00  0.00     0.665 C 
HETATM    8  N           1     -25.907  -3.443  -9.698  0.00  0.00    -0.235 N 
HETATM    9  N           1     -24.216  -4.440 -10.739  0.00  0.00    -0.235 N 
HETATM   10  H           1     -26.262  -2.872  -8.897  0.00  0.00     0.174 HD
HETATM   11  H           1     -26.566  -3.768 -10.440  0.00  0.00     0.174 HD
HETATM   12  H           1     -24.879  -4.766 -11.485  0.00  0.00     0.174 HD
HETATM   13  H           1     -23.197  -4.686 -10.797  0.00  0.00     0.174 HD
ENDBRANCH   4   5
ENDBRANCH   3   4
ENDBRANCH   2   3
ENDBRANCH   1   2
BRANCH   1  14
HETATM   14  C           1     -20.157  -5.541  -6.812  0.00  0.00     0.196 C 
HETATM   15  O           1     -19.830  -6.088  -7.887  0.00  0.00    -0.646 OA
HETATM   16  O           1     -19.367  -4.754  -6.247  0.00  0.00    -0.646 OA
ENDBRANCH   1  14
BRANCH   1  17
HETATM   17  N           1     -21.420  -5.674  -4.757  0.00  0.00    -0.345 N 
HETATM   18  H           1     -21.418  -4.749  -4.348  0.00  0.00     0.163 HD
HETATM   19  C           1     -21.345  -6.779  -3.951  0.00  0.00     0.249 C 
HETATM   20  O           1     -21.348  -7.883  -4.441  0.00  0.00    -0.271 OA
BRANCH  19  21
HETATM   21  C           1     -21.258  -6.617  -2.454  0.00  0.00     0.275 C 
BRANCH  21  22
HETATM   22  C           1     -21.261  -7.988  -1.793  0.00  0.00     0.053 C 
BRANCH  22  23
HETATM   23  C           1     -22.180  -7.965  -0.577  0.00  0.00     0.076 C 
BRANCH  23  24
HETATM   24  S           1     -22.800  -9.640  -0.257  0.00  0.00    -0.173 SA
HETATM   25  C           1     -21.278 -10.274   0.500  0.00  0.00     0.089 C 
ENDBRANCH  23  24
ENDBRANCH  22  23
ENDBRANCH  21  22
BRANCH  21  26
HETATM   26  N           1     -22.436  -5.826  -1.968  0.00  0.00    -0.066 N 
HETATM   27  H           1     -23.315  -6.228  -2.368  0.00  0.00     0.275 HD
HETATM   28  H           1     -22.478  -5.867  -0.925  0.00  0.00     0.275 HD
HETATM   29  H           1     -22.338  -4.831  -2.275  0.00  0.00     0.275 HD
ENDBRANCH  21  26
ENDBRANCH  19  21
ENDBRANCH   1  17
TORSDOF 11
ENDMDL
MODEL 5
REMARK VINA RESULT:      -5.9     13.529     15.133
REMARK  11 active torsions:
REMARK  status: ('A' for Active; 'I' for Inactive)
REMARK    1  A    between atoms: C_2  and  C_13 
REMARK    2  A    between atoms: C_2  and  C_18 
REMARK    3  A    between atoms: C_2  and  N_7 
REMARK       I    between atoms: N_5  and  C_15 
REMARK    4  A    between atoms: C_6  and  C_18 
REMARK    5  A    between atoms: C_6  and  S_19 
REMARK    6  A    between atoms: C_8  and  C_9 
REMARK    7  A    between atoms: C_8  and  C_17 
REMARK    8  A    between atoms: C_8  and  N_11 
REMARK    9  A    between atoms: C_9  and  C_14 
REMARK       I    between atoms: N_11  and  C_13 
REMARK   10  A    between atoms: C_14  and  C_26 
REMARK       I    between atoms: C_15  and  N_24 
REMARK   11  A    between atoms: N_24  and  C_26 
ROOT
HETATM    1  C           1     -20.809  -6.896  -4.818  0.00  0.00     0.185 C 
ENDROOT
BRANCH   1   2
HETATM    2  C           1     -21.958  -6.814  -3.821  0.00  0.00     0.038 C 
BRANCH   2   3
HETATM    3  C           1     -21.481  -6.126  -2.550  0.00  0.00     0.023 C 
BRANCH   3   4
HETATM    4  C           1     -22.312  -6.608  -1.368  0.00  0.00     0.138 C 
BRANCH   4   5
HETATM    5  N           1     -22.033  -8.030  -1.119  0.00  0.00    -0.227 N 
HETATM    6  H           1     -21.339  -8.541  -1.718  0.00  0.00     0.177 HD
HETATM    7  C           1     -22.632  -8.638  -0.183  0.00  0.00     0.665 C 
HETATM    8  N           1     -22.385  -9.895   0.036  0.00  0.00    -0.235 N 
HETATM    9  N           1     -23.469  -8.022   0.538  0.00  0.00    -0.235 N 
HETATM   10  H           1     -21.694 -10.404  -0.559  0.00  0.00     0.174 HD
HETATM   11  H           1     -22.879 -10.397   0.809  0.00  0.00     0.174 HD
HETATM   12  H           1     -23.965  -8.526   1.314  0.00  0.00     0.174 HD
HETATM   13  H           1     -23.668  -7.006   0.361  0.00  0.00     0.174 HD
ENDBRANCH   4   5
ENDBRANCH   3   4
ENDBRANCH   2   3
ENDBRANCH   1   2
BRANCH   1  14
HETATM   14  C           1     -20.324  -8.321  -4.912  0.00  0.00     0.196 C 
HETATM   15  O           1     -19.382  -8.710  -4.188  0.00  0.00    -0.646 OA
HETATM   16  O           1     -20.863  -9.113  -5.714  0.00  0.00    -0.646 OA
ENDBRANCH   1  14
BRANCH   1  17
HETATM   17  N           1     -21.269  -6.455  -6.120  0.00  0.00    -0.345 N 
HETATM   18  H           1     -21.811  -7.079  -6.704  0.00  0.00     0.163 HD
HETATM   19  C           1     -20.969  -5.193  -6.561  0.00  0.00     0.249 C 
HETATM   20  O           1     -20.323  -4.449  -5.864  0.00  0.00    -0.271 OA
BRANCH  19  21
HETATM   21  C           1     -21.447  -4.733  -7.917  0.00  0.00     0.275 C 
BRANCH  21  22
HETATM   22  C           1     -20.294  -4.085  -8.669  0.00  0.00     0.053 C 
BRANCH  22  23
HETATM   23  C           1     -20.240  -4.634 -10.090  0.00  0.00     0.076 C 
BRANCH  23  24
HETATM   24  S           1     -21.098  -3.494 -11.212  0.00  0.00    -0.173 SA
HETATM   25  C           1     -22.553  -4.543 -11.486  0.00  0.00     0.089 C 
ENDBRANCH  23  24
ENDBRANCH  22  23
ENDBRANCH  21  22
BRANCH  21  26
HETATM   26  N           1     -22.555  -3.737  -7.744  0.00  0.00    -0.066 N 
HETATM   27  H           1     -22.277  -3.027  -7.029  0.00  0.00     0.275 HD
HETATM   28  H           1     -22.739  -3.259  -8.655  0.00  0.00     0.275 HD
HETATM   29  H           1     -23.420  -4.230  -7.427  0.00  0.00     0.275 HD
ENDBRANCH  21  26
ENDBRANCH  19  21
ENDBRANCH   1  17
TORSDOF 11
ENDMDL
MODEL 6
REMARK VINA RESULT:      -5.7     12.982     14.391
REMARK  11 active torsions:
REMARK  status: ('A' for Active; 'I' for Inactive)
REMARK    1  A    between atoms: C_2  and  C_13 
REMARK    2  A    between atoms: C_2  and  C_18 
REMARK    3  A    between atoms: C_2  and  N_7 
REMARK       I    between atoms: N_5  and  C_15 
REMARK    4  A    between atoms: C_6  and  C_18 
REMARK    5  A    between atoms: C_6  and  S_19 
REMARK    6  A    between atoms: C_8  and  C_9 
REMARK    7  A    between atoms: C_8  and  C_17 
REMARK    8  A    between atoms: C_8  and  N_11 
REMARK    9  A    between atoms: C_9  and  C_14 
REMARK       I    between atoms: N_11  and  C_13 
REMARK   10  A    between atoms: C_14  and  C_26 
REMARK       I    between atoms: C_15  and  N_24 
REMARK   11  A    between atoms: N_24  and  C_26 
ROOT
HETATM    1  C           1     -20.574  -6.861  -5.308  0.00  0.00     0.185 C 
ENDROOT
BRANCH   1   2
HETATM    2  C           1     -20.326  -6.153  -6.633  0.00  0.00     0.038 C 
BRANCH   2   3
HETATM    3  C           1     -19.994  -4.690  -6.375  0.00  0.00     0.023 C 
BRANCH   3   4
HETATM    4  C           1     -20.583  -3.831  -7.485  0.00  0.00     0.138 C 
BRANCH   4   5
HETATM    5  N           1     -22.048  -3.806  -7.363  0.00  0.00    -0.227 N 
HETATM    6  H           1     -22.494  -3.616  -6.432  0.00  0.00     0.177 HD
HETATM    7  C           1     -22.772  -4.014  -8.381  0.00  0.00     0.665 C 
HETATM    8  N           1     -24.067  -3.992  -8.273  0.00  0.00    -0.235 N 
HETATM    9  N           1     -22.234  -4.242  -9.504  0.00  0.00    -0.235 N 
HETATM   10  H           1     -24.510  -3.803  -7.346  0.00  0.00     0.174 HD
HETATM   11  H           1     -24.664  -4.164  -9.113  0.00  0.00     0.174 HD
HETATM   12  H           1     -22.835  -4.415 -10.348  0.00  0.00     0.174 HD
HETATM   13  H           1     -21.188  -4.260  -9.592  0.00  0.00     0.174 HD
ENDBRANCH   4   5
ENDBRANCH   3   4
ENDBRANCH   2   3
ENDBRANCH   1   2
BRANCH   1  14
HETATM   14  C           1     -21.774  -6.251  -4.627  0.00  0.00     0.196 C 
HETATM   15  O           1     -21.722  -5.957  -3.413  0.00  0.00    -0.646 OA
HETATM   16  O           1     -22.820  -6.040  -5.277  0.00  0.00    -0.646 OA
ENDBRANCH   1  14
BRANCH   1  17
HETATM   17  N           1     -20.821  -8.269  -5.552  0.00  0.00    -0.345 N 
HETATM   18  H           1     -21.476  -8.551  -6.269  0.00  0.00     0.163 HD
HETATM   19  C           1     -20.166  -9.218  -4.812  0.00  0.00     0.249 C 
HETATM   20  O           1     -19.383  -8.880  -3.957  0.00  0.00    -0.271 OA
BRANCH  19  21
HETATM   21  C           1     -20.423 -10.683  -5.065  0.00  0.00     0.275 C 
BRANCH  21  22
HETATM   22  C           1     -19.106 -11.445  -5.022  0.00  0.00     0.053 C 
BRANCH  22  23
HETATM   23  C           1     -18.420 -11.353  -6.380  0.00  0.00     0.076 C 
BRANCH  23  24
HETATM   24  S           1     -16.639 -11.638  -6.178  0.00  0.00    -0.173 SA
HETATM   25  C           1     -16.216  -9.934  -5.719  0.00  0.00     0.089 C 
ENDBRANCH  23  24
ENDBRANCH  22  23
ENDBRANCH  21  22
BRANCH  21  26
HETATM   26  N           1     -21.054 -10.852  -6.415  0.00  0.00    -0.066 N 
HETATM   27  H           1     -22.043 -10.515  -6.382  0.00  0.00     0.275 HD
HETATM   28  H           1     -20.521 -10.297  -7.122  0.00  0.00     0.275 HD
HETATM   29  H           1     -21.040 -11.862  -6.682  0.00  0.00     0.275 HD
ENDBRANCH  21  26
ENDBRANCH  19  21
ENDBRANCH   1  17
TORSDOF 11
ENDMDL
MODEL 7
REMARK VINA RESULT:      -5.7     13.145     14.757
REMARK  11 active torsions:
REMARK  status: ('A' for Active; 'I' for Inactive)
REMARK    1  A    between atoms: C_2  and  C_13 
REMARK    2  A    between atoms: C_2  and  C_18 
REMARK    3  A    between atoms: C_2  and  N_7 
REMARK       I    between atoms: N_5  and  C_15 
REMARK    4  A    between atoms: C_6  and  C_18 
REMARK    5  A    between atoms: C_6  and  S_19 
REMARK    6  A    between atoms: C_8  and  C_9 
REMARK    7  A    between atoms: C_8  and  C_17 
REMARK    8  A    between atoms: C_8  and  N_11 
REMARK    9  A    between atoms: C_9  and  C_14 
REMARK       I    between atoms: N_11  and  C_13 
REMARK   10  A    between atoms: C_14  and  C_26 
REMARK       I    between atoms: C_15  and  N_24 
REMARK   11  A    between atoms: N_24  and  C_26 
ROOT
HETATM    1  C           1     -20.887  -6.949  -5.460  0.00  0.00     0.185 C 
ENDROOT
BRANCH   1   2
HETATM    2  C           1     -20.614  -6.161  -6.735  0.00  0.00     0.038 C 
BRANCH   2   3
HETATM    3  C           1     -20.146  -4.757  -6.375  0.00  0.00     0.023 C 
BRANCH   3   4
HETATM    4  C           1     -20.703  -3.762  -7.385  0.00  0.00     0.138 C 
BRANCH   4   5
HETATM    5  N           1     -22.172  -3.812  -7.365  0.00  0.00    -0.227 N 
HETATM    6  H           1     -22.685  -3.804  -6.450  0.00  0.00     0.177 HD
HETATM    7  C           1     -22.818  -3.865  -8.453  0.00  0.00     0.665 C 
HETATM    8  N           1     -24.117  -3.909  -8.436  0.00  0.00    -0.235 N 
HETATM    9  N           1     -22.199  -3.874  -9.557  0.00  0.00    -0.235 N 
HETATM   10  H           1     -24.627  -3.901  -7.524  0.00  0.00     0.174 HD
HETATM   11  H           1     -24.650  -3.952  -9.334  0.00  0.00     0.174 HD
HETATM   12  H           1     -22.735  -3.918 -10.459  0.00  0.00     0.174 HD
HETATM   13  H           1     -21.149  -3.839  -9.571  0.00  0.00     0.174 HD
ENDBRANCH   4   5
ENDBRANCH   3   4
ENDBRANCH   2   3
ENDBRANCH   1   2
BRANCH   1  14
HETATM   14  C           1     -22.027  -6.309  -4.707  0.00  0.00     0.196 C 
HETATM   15  O           1     -23.097  -6.044  -5.298  0.00  0.00    -0.646 OA
HETATM   16  O           1     -21.902  -6.043  -3.493  0.00  0.00    -0.646 OA
ENDBRANCH   1  14
BRANCH   1  17
HETATM   17  N           1     -21.240  -8.313  -5.802  0.00  0.00    -0.345 N 
HETATM   18  H           1     -21.827  -8.497  -6.605  0.00  0.00     0.163 HD
HETATM   19  C           1     -20.778  -9.352  -5.039  0.00  0.00     0.249 C 
HETATM   20  O           1     -20.077  -9.131  -4.081  0.00  0.00    -0.271 OA
BRANCH  19  21
HETATM   21  C           1     -21.145 -10.772  -5.395  0.00  0.00     0.275 C 
BRANCH  21  22
HETATM   22  C           1     -21.020 -11.654  -4.161  0.00  0.00     0.053 C 
BRANCH  22  23
HETATM   23  C           1     -22.410 -12.014  -3.650  0.00  0.00     0.076 C 
BRANCH  23  24
HETATM   24  S           1     -22.745 -11.105  -2.115  0.00  0.00    -0.173 SA
HETATM   25  C           1     -21.078 -11.274  -1.418  0.00  0.00     0.089 C 
ENDBRANCH  23  24
ENDBRANCH  22  23
ENDBRANCH  21  22
BRANCH  21  26
HETATM   26  N           1     -20.219 -11.273  -6.463  0.00  0.00    -0.066 N 
HETATM   27  H           1     -20.067 -10.522  -7.174  0.00  0.00     0.275 HD
HETATM   28  H           1     -19.303 -11.537  -6.036  0.00  0.00     0.275 HD
HETATM   29  H           1     -20.642 -12.110  -6.926  0.00  0.00     0.275 HD
ENDBRANCH  21  26
ENDBRANCH  19  21
ENDBRANCH   1  17
TORSDOF 11
ENDMDL
MODEL 8
REMARK VINA RESULT:      -5.4     13.812     15.614
REMARK  11 active torsions:
REMARK  status: ('A' for Active; 'I' for Inactive)
REMARK    1  A    between atoms: C_2  and  C_13 
REMARK    2  A    between atoms: C_2  and  C_18 
REMARK    3  A    between atoms: C_2  and  N_7 
REMARK       I    between atoms: N_5  and  C_15 
REMARK    4  A    between atoms: C_6  and  C_18 
REMARK    5  A    between atoms: C_6  and  S_19 
REMARK    6  A    between atoms: C_8  and  C_9 
REMARK    7  A    between atoms: C_8  and  C_17 
REMARK    8  A    between atoms: C_8  and  N_11 
REMARK    9  A    between atoms: C_9  and  C_14 
REMARK       I    between atoms: N_11  and  C_13 
REMARK   10  A    between atoms: C_14  and  C_26 
REMARK       I    between atoms: C_15  and  N_24 
REMARK   11  A    between atoms: N_24  and  C_26 
ROOT
HETATM    1  C           1     -21.574  -7.434  -3.991  0.00  0.00     0.185 C 
ENDROOT
BRANCH   1   2
HETATM    2  C           1     -20.788  -8.738  -4.022  0.00  0.00     0.038 C 
BRANCH   2   3
HETATM    3  C           1     -21.754  -9.915  -4.024  0.00  0.00     0.023 C 
BRANCH   3   4
HETATM    4  C           1     -21.540 -10.750  -2.768  0.00  0.00     0.138 C 
BRANCH   4   5
HETATM    5  N           1     -22.772 -10.755  -1.965  0.00  0.00    -0.227 N 
HETATM    6  H           1     -23.662 -11.135  -2.372  0.00  0.00     0.177 HD
HETATM    7  C           1     -22.759 -10.300  -0.784  0.00  0.00     0.665 C 
HETATM    8  N           1     -23.848 -10.304  -0.074  0.00  0.00    -0.235 N 
HETATM    9  N           1     -21.686  -9.841  -0.293  0.00  0.00    -0.235 N 
HETATM   10  H           1     -24.734 -10.682  -0.479  0.00  0.00     0.174 HD
HETATM   11  H           1     -23.837  -9.928   0.901  0.00  0.00     0.174 HD
HETATM   12  H           1     -21.676  -9.464   0.686  0.00  0.00     0.174 HD
HETATM   13  H           1     -20.806  -9.838  -0.867  0.00  0.00     0.174 HD
ENDBRANCH   4   5
ENDBRANCH   3   4
ENDBRANCH   2   3
ENDBRANCH   1   2
BRANCH   1  14
HETATM   14  C           1     -21.587  -6.886  -2.586  0.00  0.00     0.196 C 
HETATM   15  O           1     -22.365  -5.956  -2.284  0.00  0.00    -0.646 OA
HETATM   16  O           1     -20.819  -7.363  -1.723  0.00  0.00    -0.646 OA
ENDBRANCH   1  14
BRANCH   1  17
HETATM   17  N           1     -20.949  -6.473  -4.879  0.00  0.00    -0.345 N 
HETATM   18  H           1     -19.941  -6.390  -4.906  0.00  0.00     0.163 HD
HETATM   19  C           1     -21.724  -5.677  -5.682  0.00  0.00     0.249 C 
HETATM   20  O           1     -22.926  -5.778  -5.649  0.00  0.00    -0.271 OA
BRANCH  19  21
HETATM   21  C           1     -21.074  -4.677  -6.605  0.00  0.00     0.275 C 
BRANCH  21  22
HETATM   22  C           1     -21.426  -5.012  -8.047  0.00  0.00     0.053 C 
BRANCH  22  23
HETATM   23  C           1     -22.328  -3.925  -8.617  0.00  0.00     0.076 C 
BRANCH  23  24
HETATM   24  S           1     -22.175  -3.897 -10.425  0.00  0.00    -0.173 SA
HETATM   25  C           1     -23.691  -4.835 -10.767  0.00  0.00     0.089 C 
ENDBRANCH  23  24
ENDBRANCH  22  23
ENDBRANCH  21  22
BRANCH  21  26
HETATM   26  N           1     -19.585  -4.729  -6.429  0.00  0.00    -0.066 N 
HETATM   27  H           1     -19.172  -5.370  -7.143  0.00  0.00     0.275 HD
HETATM   28  H           1     -19.186  -3.771  -6.550  0.00  0.00     0.275 HD
HETATM   29  H           1     -19.360  -5.083  -5.472  0.00  0.00     0.275 HD
ENDBRANCH  21  26
ENDBRANCH  19  21
ENDBRANCH   1  17
TORSDOF 11
ENDMDL
MODEL 9
REMARK VINA RESULT:      -5.4     14.710     16.381
REMARK  11 active torsions:
REMARK  status: ('A' for Active; 'I' for Inactive)
REMARK    1  A    between atoms: C_2  and  C_13 
REMARK    2  A    between atoms: C_2  and  C_18 
REMARK    3  A    between atoms: C_2  and  N_7 
REMARK       I    between atoms: N_5  and  C_15 
REMARK    4  A    between atoms: C_6  and  C_18 
REMARK    5  A    between atoms: C_6  and  S_19 
REMARK    6  A    between atoms: C_8  and  C_9 
REMARK    7  A    between atoms: C_8  and  C_17 
REMARK    8  A    between atoms: C_8  and  N_11 
REMARK    9  A    between atoms: C_9  and  C_14 
REMARK       I    between atoms: N_11  and  C_13 
REMARK   10  A    between atoms: C_14  and  C_26 
REMARK       I    between atoms: C_15  and  N_24 
REMARK   11  A    between atoms: N_24  and  C_26 
ROOT
HETATM    1  C           1     -20.163  -9.123  -3.668  0.00  0.00     0.185 C 
ENDROOT
BRANCH   1   2
HETATM    2  C           1     -19.716  -8.758  -2.259  0.00  0.00     0.038 C 
BRANCH   2   3
HETATM    3  C           1     -20.701  -7.768  -1.652  0.00  0.00     0.023 C 
BRANCH   3   4
HETATM    4  C           1     -21.108  -8.241  -0.263  0.00  0.00     0.138 C 
BRANCH   4   5
HETATM    5  N           1     -21.971  -9.425  -0.381  0.00  0.00    -0.227 N 
HETATM    6  H           1     -21.595 -10.310  -0.803  0.00  0.00     0.177 HD
HETATM    7  C           1     -23.169  -9.378   0.028  0.00  0.00     0.665 C 
HETATM    8  N           1     -23.933 -10.425  -0.076  0.00  0.00    -0.235 N 
HETATM    9  N           1     -23.623  -8.312   0.536  0.00  0.00    -0.235 N 
HETATM   10  H           1     -23.557 -11.305  -0.497  0.00  0.00     0.174 HD
HETATM   11  H           1     -24.921 -10.386   0.260  0.00  0.00     0.174 HD
HETATM   12  H           1     -24.616  -8.273   0.875  0.00  0.00     0.174 HD
HETATM   13  H           1     -23.006  -7.466   0.620  0.00  0.00     0.174 HD
ENDBRANCH   4   5
ENDBRANCH   3   4
ENDBRANCH   2   3
ENDBRANCH   1   2
BRANCH   1  14
HETATM   14  C           1     -21.042 -10.348  -3.616  0.00  0.00     0.196 C 
HETATM   15  O           1     -21.858 -10.572  -4.536  0.00  0.00    -0.646 OA
HETATM   16  O           1     -20.955 -11.139  -2.652  0.00  0.00    -0.646 OA
ENDBRANCH   1  14
BRANCH   1  17
HETATM   17  N           1     -20.908  -8.019  -4.240  0.00  0.00    -0.345 N 
HETATM   18  H           1     -21.723  -7.656  -3.762  0.00  0.00     0.163 HD
HETATM   19  C           1     -20.508  -7.464  -5.427  0.00  0.00     0.249 C 
HETATM   20  O           1     -19.535  -7.896  -5.996  0.00  0.00    -0.271 OA
BRANCH  19  21
HETATM   21  C           1     -21.283  -6.314  -6.022  0.00  0.00     0.275 C 
BRANCH  21  22
HETATM   22  C           1     -20.396  -5.079  -6.078  0.00  0.00     0.053 C 
BRANCH  22  23
HETATM   23  C           1     -21.094  -3.987  -6.881  0.00  0.00     0.076 C 
BRANCH  23  24
HETATM   24  S           1     -21.396  -4.579  -8.570  0.00  0.00    -0.173 SA
HETATM   25  C           1     -23.152  -4.125  -8.628  0.00  0.00     0.089 C 
ENDBRANCH  23  24
ENDBRANCH  22  23
ENDBRANCH  21  22
BRANCH  21  26
HETATM   26  N           1     -22.485  -6.029  -5.171  0.00  0.00    -0.066 N 
HETATM   27  H           1     -22.465  -6.640  -4.324  0.00  0.00     0.275 HD
HETATM   28  H           1     -22.474  -5.027  -4.877  0.00  0.00     0.275 HD
HETATM   29  H           1     -23.353  -6.223  -5.719  0.00  0.00     0.275 HD
ENDBRANCH  21  26
ENDBRANCH  19  21
ENDBRANCH   1  17
TORSDOF 11
ENDMDL
