MODEL 1
REMARK VINA RESULT:      -5.1      0.000      0.000
REMARK  6 active torsions:
REMARK  status: ('A' for Active; 'I' for Inactive)
REMARK    1  A    between atoms: N_1  and  C_3 
REMARK    2  A    between atoms: C_3  and  C_11 
REMARK    3  A    between atoms: S_4  and  C_5 
REMARK    4  A    between atoms: C_5  and  C_6 
REMARK    5  A    between atoms: C_6  and  C_7 
REMARK    6  A    between atoms: C_6  and  N_10 
REMARK       I    between atoms: N_10  and  C_11 
ROOT
HETATM    1  N           1     -35.061  -1.194 -12.307  0.00  0.00    -0.344 N 
HETATM    2  C           1     -34.386  -2.383 -12.358  0.00  0.00     0.248 C 
HETATM    3  O           1     -34.476  -3.088 -13.335  0.00  0.00    -0.271 OA
HETATM    4  H           1     -34.985  -0.603 -11.488  0.00  0.00     0.163 HD
ENDROOT
BRANCH   1   5
HETATM    5  C           1     -35.885  -0.779 -13.425  0.00  0.00     0.194 C 
BRANCH   5   6
HETATM    6  C           1     -37.160  -0.131 -12.904  0.00  0.00     0.106 C 
BRANCH   6   7
HETATM    7  S           1     -37.114  -0.073 -11.091  0.00  0.00    -0.180 SA
HETATM    8  H           1     -35.777   0.033 -10.988  0.00  0.00     0.101 HD
ENDBRANCH   6   7
ENDBRANCH   5   6
BRANCH   5   9
HETATM    9  C           1     -35.123   0.215 -14.269  0.00  0.00     0.197 C 
HETATM   10  O           1     -34.768  -0.092 -15.427  0.00  0.00    -0.646 OA
HETATM   11  O           1     -34.848   1.344 -13.808  0.00  0.00    -0.646 OA
ENDBRANCH   5   9
ENDBRANCH   1   5
BRANCH   2  12
HETATM   12  C           1     -33.529  -2.814 -11.193  0.00  0.00     0.270 C 
HETATM   13  C           1     -34.000  -4.173 -10.691  0.00  0.00     0.050 C 
BRANCH  12  14
HETATM   14  N           1     -33.644  -1.807 -10.088  0.00  0.00    -0.067 N 
HETATM   15  H           1     -32.910  -1.072 -10.207  0.00  0.00     0.275 HD
HETATM   16  H           1     -34.590  -1.363 -10.119  0.00  0.00     0.275 HD
HETATM   17  H           1     -33.512  -2.284  -9.167  0.00  0.00     0.275 HD
ENDBRANCH  12  14
ENDBRANCH   2  12
TORSDOF 6
ENDMDL
MODEL 2
REMARK VINA RESULT:      -5.0      2.645      2.983
REMARK  6 active torsions:
REMARK  status: ('A' for Active; 'I' for Inactive)
REMARK    1  A    between atoms: N_1  and  C_3 
REMARK    2  A    between atoms: C_3  and  C_11 
REMARK    3  A    between atoms: S_4  and  C_5 
REMARK    4  A    between atoms: C_5  and  C_6 
REMARK    5  A    between atoms: C_6  and  C_7 
REMARK    6  A    between atoms: C_6  and  N_10 
REMARK       I    between atoms: N_10  and  C_11 
ROOT
HETATM    1  N           1     -35.103  -2.157 -11.772  0.00  0.00    -0.344 N 
HETATM    2  C           1     -34.024  -2.479 -10.994  0.00  0.00     0.248 C 
HETATM    3  O           1     -33.379  -1.605 -10.464  0.00  0.00    -0.271 OA
HETATM    4  H           1     -35.644  -2.889 -12.215  0.00  0.00     0.163 HD
ENDROOT
BRANCH   1   5
HETATM    5  C           1     -35.473  -0.768 -11.961  0.00  0.00     0.194 C 
BRANCH   5   6
HETATM    6  C           1     -35.877  -0.543 -13.411  0.00  0.00     0.106 C 
BRANCH   6   7
HETATM    7  S           1     -34.924   0.842 -14.098  0.00  0.00    -0.180 SA
HETATM    8  H           1     -34.868   1.553 -12.958  0.00  0.00     0.101 HD
ENDBRANCH   6   7
ENDBRANCH   5   6
BRANCH   5   9
HETATM    9  C           1     -36.633  -0.429 -11.056  0.00  0.00     0.197 C 
HETATM   10  O           1     -37.694  -1.084 -11.129  0.00  0.00    -0.646 OA
HETATM   11  O           1     -36.531   0.508 -10.235  0.00  0.00    -0.646 OA
ENDBRANCH   5   9
ENDBRANCH   1   5
BRANCH   2  12
HETATM   12  C           1     -33.640  -3.925 -10.798  0.00  0.00     0.270 C 
HETATM   13  C           1     -32.703  -4.358 -11.917  0.00  0.00     0.050 C 
BRANCH  12  14
HETATM   14  N           1     -34.874  -4.778 -10.823  0.00  0.00    -0.067 N 
HETATM   15  H           1     -35.353  -4.725  -9.896  0.00  0.00     0.275 HD
HETATM   16  H           1     -35.520  -4.433 -11.570  0.00  0.00     0.275 HD
HETATM   17  H           1     -34.608  -5.769 -11.022  0.00  0.00     0.275 HD
ENDBRANCH  12  14
ENDBRANCH   2  12
TORSDOF 6
ENDMDL
MODEL 3
REMARK VINA RESULT:      -5.0     12.773     14.071
REMARK  6 active torsions:
REMARK  status: ('A' for Active; 'I' for Inactive)
REMARK    1  A    between atoms: N_1  and  C_3 
REMARK    2  A    between atoms: C_3  and  C_11 
REMARK    3  A    between atoms: S_4  and  C_5 
REMARK    4  A    between atoms: C_5  and  C_6 
REMARK    5  A    between atoms: C_6  and  C_7 
REMARK    6  A    between atoms: C_6  and  N_10 
REMARK       I    between atoms: N_10  and  C_11 
ROOT
HETATM    1  N           1     -22.217  -4.647  -8.722  0.00  0.00    -0.344 N 
HETATM    2  C           1     -21.619  -4.356  -7.525  0.00  0.00     0.248 C 
HETATM    3  O           1     -21.551  -3.210  -7.147  0.00  0.00    -0.271 OA
HETATM    4  H           1     -22.274  -5.607  -9.038  0.00  0.00     0.163 HD
ENDROOT
BRANCH   1   5
HETATM    5  C           1     -22.767  -3.581  -9.536  0.00  0.00     0.194 C 
BRANCH   5   6
HETATM    6  C           1     -22.114  -3.603 -10.911  0.00  0.00     0.106 C 
BRANCH   6   7
HETATM    7  S           1     -20.443  -4.300 -10.778  0.00  0.00    -0.180 SA
HETATM    8  H           1     -20.460  -4.932 -11.965  0.00  0.00     0.101 HD
ENDBRANCH   6   7
ENDBRANCH   5   6
BRANCH   5   9
HETATM    9  C           1     -24.257  -3.779  -9.683  0.00  0.00     0.197 C 
HETATM   10  O           1     -25.032  -2.809  -9.548  0.00  0.00    -0.646 OA
HETATM   11  O           1     -24.714  -4.914  -9.938  0.00  0.00    -0.646 OA
ENDBRANCH   5   9
ENDBRANCH   1   5
BRANCH   2  12
HETATM   12  C           1     -21.046  -5.466  -6.678  0.00  0.00     0.270 C 
HETATM   13  C           1     -20.355  -4.870  -5.459  0.00  0.00     0.050 C 
BRANCH  12  14
HETATM   14  N           1     -20.050  -6.246  -7.484  0.00  0.00    -0.067 N 
HETATM   15  H           1     -20.360  -7.242  -7.552  0.00  0.00     0.275 HD
HETATM   16  H           1     -19.981  -5.836  -8.443  0.00  0.00     0.275 HD
HETATM   17  H           1     -19.116  -6.203  -7.018  0.00  0.00     0.275 HD
ENDBRANCH  12  14
ENDBRANCH   2  12
TORSDOF 6
ENDMDL
MODEL 4
REMARK VINA RESULT:      -4.6     12.908     14.139
REMARK  6 active torsions:
REMARK  status: ('A' for Active; 'I' for Inactive)
REMARK    1  A    between atoms: N_1  and  C_3 
REMARK    2  A    between atoms: C_3  and  C_11 
REMARK    3  A    between atoms: S_4  and  C_5 
REMARK    4  A    between atoms: C_5  and  C_6 
REMARK    5  A    between atoms: C_6  and  C_7 
REMARK    6  A    between atoms: C_6  and  N_10 
REMARK       I    between atoms: N_10  and  C_11 
ROOT
HETATM    1  N           1     -22.188  -4.262  -8.861  0.00  0.00    -0.344 N 
HETATM    2  C           1     -21.387  -4.955  -7.994  0.00  0.00     0.248 C 
HETATM    3  O           1     -20.702  -5.864  -8.399  0.00  0.00    -0.271 OA
HETATM    4  H           1     -22.761  -3.500  -8.523  0.00  0.00     0.163 HD
ENDROOT
BRANCH   1   5
HETATM    5  C           1     -22.214  -4.619 -10.267  0.00  0.00     0.194 C 
BRANCH   5   6
HETATM    6  C           1     -23.643  -4.532 -10.786  0.00  0.00     0.106 C 
BRANCH   6   7
HETATM    7  S           1     -24.627  -3.480  -9.681  0.00  0.00    -0.180 SA
HETATM    8  H           1     -23.589  -2.773  -9.201  0.00  0.00     0.101 HD
ENDBRANCH   6   7
ENDBRANCH   5   6
BRANCH   5   9
HETATM    9  C           1     -21.337  -3.668 -11.044  0.00  0.00     0.197 C 
HETATM   10  O           1     -20.120  -3.914 -11.185  0.00  0.00    -0.646 OA
HETATM   11  O           1     -21.828  -2.633 -11.545  0.00  0.00    -0.646 OA
ENDBRANCH   5   9
ENDBRANCH   1   5
BRANCH   2  12
HETATM   12  C           1     -21.360  -4.582  -6.532  0.00  0.00     0.270 C 
HETATM   13  C           1     -19.938  -4.707  -6.002  0.00  0.00     0.050 C 
BRANCH  12  14
HETATM   14  N           1     -22.261  -5.504  -5.765  0.00  0.00    -0.067 N 
HETATM   15  H           1     -21.714  -5.980  -5.012  0.00  0.00     0.275 HD
HETATM   16  H           1     -23.039  -4.952  -5.335  0.00  0.00     0.275 HD
HETATM   17  H           1     -22.659  -6.221  -6.413  0.00  0.00     0.275 HD
ENDBRANCH  12  14
ENDBRANCH   2  12
TORSDOF 6
ENDMDL
MODEL 5
REMARK VINA RESULT:      -4.5      1.994      2.067
REMARK  6 active torsions:
REMARK  status: ('A' for Active; 'I' for Inactive)
REMARK    1  A    between atoms: N_1  and  C_3 
REMARK    2  A    between atoms: C_3  and  C_11 
REMARK    3  A    between atoms: S_4  and  C_5 
REMARK    4  A    between atoms: C_5  and  C_6 
REMARK    5  A    between atoms: C_6  and  C_7 
REMARK    6  A    between atoms: C_6  and  N_10 
REMARK       I    between atoms: N_10  and  C_11 
ROOT
HETATM    1  N           1     -34.778  -1.480 -13.708  0.00  0.00    -0.344 N 
HETATM    2  C           1     -34.956  -2.062 -12.482  0.00  0.00     0.248 C 
HETATM    3  O           1     -36.070  -2.204 -12.036  0.00  0.00    -0.271 OA
HETATM    4  H           1     -33.845  -1.362 -14.082  0.00  0.00     0.163 HD
ENDROOT
BRANCH   1   5
HETATM    5  C           1     -35.926  -1.032 -14.471  0.00  0.00     0.194 C 
BRANCH   5   6
HETATM    6  C           1     -36.238   0.416 -14.118  0.00  0.00     0.106 C 
BRANCH   6   7
HETATM    7  S           1     -34.687   1.329 -13.879  0.00  0.00    -0.180 SA
HETATM    8  H           1     -34.545   1.024 -12.576  0.00  0.00     0.101 HD
ENDBRANCH   6   7
ENDBRANCH   5   6
BRANCH   5   9
HETATM    9  C           1     -35.621  -1.137 -15.946  0.00  0.00     0.197 C 
HETATM   10  O           1     -34.658  -1.830 -16.337  0.00  0.00    -0.646 OA
HETATM   11  O           1     -36.333  -0.529 -16.776  0.00  0.00    -0.646 OA
ENDBRANCH   5   9
ENDBRANCH   1   5
BRANCH   2  12
HETATM   12  C           1     -33.761  -2.528 -11.688  0.00  0.00     0.270 C 
HETATM   13  C           1     -33.886  -4.020 -11.410  0.00  0.00     0.050 C 
BRANCH  12  14
HETATM   14  N           1     -33.702  -1.782 -10.388  0.00  0.00    -0.067 N 
HETATM   15  H           1     -34.523  -1.140 -10.317  0.00  0.00     0.275 HD
HETATM   16  H           1     -33.721  -2.463  -9.595  0.00  0.00     0.275 HD
HETATM   17  H           1     -32.819  -1.224 -10.348  0.00  0.00     0.275 HD
ENDBRANCH  12  14
ENDBRANCH   2  12
TORSDOF 6
ENDMDL
MODEL 6
REMARK VINA RESULT:      -4.3      1.757      4.367
REMARK  6 active torsions:
REMARK  status: ('A' for Active; 'I' for Inactive)
REMARK    1  A    between atoms: N_1  and  C_3 
REMARK    2  A    between atoms: C_3  and  C_11 
REMARK    3  A    between atoms: S_4  and  C_5 
REMARK    4  A    between atoms: C_5  and  C_6 
REMARK    5  A    between atoms: C_6  and  C_7 
REMARK    6  A    between atoms: C_6  and  N_10 
REMARK       I    between atoms: N_10  and  C_11 
ROOT
HETATM    1  N           1     -35.865  -1.056 -13.067  0.00  0.00    -0.344 N 
HETATM    2  C           1     -35.465  -0.086 -13.946  0.00  0.00     0.248 C 
HETATM    3  O           1     -34.411   0.481 -13.782  0.00  0.00    -0.271 OA
HETATM    4  H           1     -36.747  -1.532 -13.205  0.00  0.00     0.163 HD
ENDROOT
BRANCH   1   5
HETATM    5  C           1     -35.023  -1.403 -11.939  0.00  0.00     0.194 C 
BRANCH   5   6
HETATM    6  C           1     -35.888  -1.605 -10.702  0.00  0.00     0.106 C 
BRANCH   6   7
HETATM    7  S           1     -37.039  -0.212 -10.533  0.00  0.00    -0.180 SA
HETATM    8  H           1     -36.103   0.706 -10.229  0.00  0.00     0.101 HD
ENDBRANCH   6   7
ENDBRANCH   5   6
BRANCH   5   9
HETATM    9  C           1     -34.274  -2.679 -12.243  0.00  0.00     0.197 C 
HETATM   10  O           1     -34.651  -3.416 -13.179  0.00  0.00    -0.646 OA
HETATM   11  O           1     -33.278  -2.997 -11.559  0.00  0.00    -0.646 OA
ENDBRANCH   5   9
ENDBRANCH   1   5
BRANCH   2  12
HETATM   12  C           1     -36.342   0.275 -15.120  0.00  0.00     0.270 C 
HETATM   13  C           1     -35.880   1.601 -15.710  0.00  0.00     0.050 C 
BRANCH  12  14
HETATM   14  N           1     -37.764   0.402 -14.661  0.00  0.00    -0.067 N 
HETATM   15  H           1     -38.359  -0.287 -15.175  0.00  0.00     0.275 HD
HETATM   16  H           1     -37.817   0.211 -13.635  0.00  0.00     0.275 HD
HETATM   17  H           1     -38.107   1.371 -14.854  0.00  0.00     0.275 HD
ENDBRANCH  12  14
ENDBRANCH   2  12
TORSDOF 6
ENDMDL
MODEL 7
REMARK VINA RESULT:      -4.1     15.775     17.340
REMARK  6 active torsions:
REMARK  status: ('A' for Active; 'I' for Inactive)
REMARK    1  A    between atoms: N_1  and  C_3 
REMARK    2  A    between atoms: C_3  and  C_11 
REMARK    3  A    between atoms: S_4  and  C_5 
REMARK    4  A    between atoms: C_5  and  C_6 
REMARK    5  A    between atoms: C_6  and  C_7 
REMARK    6  A    between atoms: C_6  and  N_10 
REMARK       I    between atoms: N_10  and  C_11 
ROOT
HETATM    1  N           1     -20.853  -6.660  -4.878  0.00  0.00    -0.344 N 
HETATM    2  C           1     -21.413  -5.738  -5.720  0.00  0.00     0.248 C 
HETATM    3  O           1     -22.610  -5.575  -5.727  0.00  0.00    -0.271 OA
HETATM    4  H           1     -19.850  -6.796  -4.872  0.00  0.00     0.163 HD
ENDROOT
BRANCH   1   5
HETATM    5  C           1     -21.696  -7.442  -3.995  0.00  0.00     0.194 C 
BRANCH   5   6
HETATM    6  C           1     -21.220  -8.889  -3.988  0.00  0.00     0.106 C 
BRANCH   6   7
HETATM    7  S           1     -19.593  -8.996  -4.784  0.00  0.00    -0.180 SA
HETATM    8  H           1     -20.025  -9.601  -5.906  0.00  0.00     0.101 HD
ENDBRANCH   6   7
ENDBRANCH   5   6
BRANCH   5   9
HETATM    9  C           1     -21.617  -6.879  -2.596  0.00  0.00     0.197 C 
HETATM   10  O           1     -22.325  -5.901  -2.276  0.00  0.00    -0.646 OA
HETATM   11  O           1     -20.842  -7.392  -1.760  0.00  0.00    -0.646 OA
ENDBRANCH   5   9
ENDBRANCH   1   5
BRANCH   2  12
HETATM   12  C           1     -20.535  -4.924  -6.639  0.00  0.00     0.270 C 
HETATM   13  C           1     -21.347  -3.785  -7.240  0.00  0.00     0.050 C 
BRANCH  12  14
HETATM   14  N           1     -20.015  -5.801  -7.740  0.00  0.00    -0.067 N 
HETATM   15  H           1     -19.847  -6.764  -7.369  0.00  0.00     0.275 HD
HETATM   16  H           1     -20.718  -5.843  -8.512  0.00  0.00     0.275 HD
HETATM   17  H           1     -19.118  -5.407  -8.104  0.00  0.00     0.275 HD
ENDBRANCH  12  14
ENDBRANCH   2  12
TORSDOF 6
ENDMDL
MODEL 8
REMARK VINA RESULT:      -4.0     14.343     15.522
REMARK  6 active torsions:
REMARK  status: ('A' for Active; 'I' for Inactive)
REMARK    1  A    between atoms: N_1  and  C_3 
REMARK    2  A    between atoms: C_3  and  C_11 
REMARK    3  A    between atoms: S_4  and  C_5 
REMARK    4  A    between atoms: C_5  and  C_6 
REMARK    5  A    between atoms: C_6  and  C_7 
REMARK    6  A    between atoms: C_6  and  N_10 
REMARK       I    between atoms: N_10  and  C_11 
ROOT
HETATM    1  N           1     -21.386  -5.082  -6.648  0.00  0.00    -0.344 N 
HETATM    2  C           1     -21.181  -6.301  -6.058  0.00  0.00     0.248 C 
HETATM    3  O           1     -21.121  -7.298  -6.737  0.00  0.00    -0.271 OA
HETATM    4  H           1     -21.435  -4.246  -6.080  0.00  0.00     0.163 HD
ENDROOT
BRANCH   1   5
HETATM    5  C           1     -21.532  -4.989  -8.088  0.00  0.00     0.194 C 
BRANCH   5   6
HETATM    6  C           1     -22.602  -3.960  -8.424  0.00  0.00     0.106 C 
BRANCH   6   7
HETATM    7  S           1     -23.544  -4.515  -9.873  0.00  0.00    -0.180 SA
HETATM    8  H           1     -23.826  -3.284 -10.337  0.00  0.00     0.101 HD
ENDBRANCH   6   7
ENDBRANCH   5   6
BRANCH   5   9
HETATM    9  C           1     -20.217  -4.569  -8.700  0.00  0.00     0.197 C 
HETATM   10  O           1     -19.988  -4.801  -9.906  0.00  0.00    -0.646 OA
HETATM   11  O           1     -19.359  -3.990  -8.000  0.00  0.00    -0.646 OA
ENDBRANCH   5   9
ENDBRANCH   1   5
BRANCH   2  12
HETATM   12  C           1     -21.029  -6.396  -4.560  0.00  0.00     0.270 C 
HETATM   13  C           1     -20.526  -7.785  -4.188  0.00  0.00     0.050 C 
BRANCH  12  14
HETATM   14  N           1     -22.358  -6.156  -3.907  0.00  0.00    -0.067 N 
HETATM   15  H           1     -22.854  -5.379  -4.399  0.00  0.00     0.275 HD
HETATM   16  H           1     -22.934  -7.027  -3.960  0.00  0.00     0.275 HD
HETATM   17  H           1     -22.211  -5.896  -2.905  0.00  0.00     0.275 HD
ENDBRANCH  12  14
ENDBRANCH   2  12
TORSDOF 6
ENDMDL
MODEL 9
REMARK VINA RESULT:      -4.0     15.215     16.771
REMARK  6 active torsions:
REMARK  status: ('A' for Active; 'I' for Inactive)
REMARK    1  A    between atoms: N_1  and  C_3 
REMARK    2  A    between atoms: C_3  and  C_11 
REMARK    3  A    between atoms: S_4  and  C_5 
REMARK    4  A    between atoms: C_5  and  C_6 
REMARK    5  A    between atoms: C_6  and  C_7 
REMARK    6  A    between atoms: C_6  and  N_10 
REMARK       I    between atoms: N_10  and  C_11 
ROOT
HETATM    1  N           1     -21.207  -6.462  -6.622  0.00  0.00    -0.344 N 
HETATM    2  C           1     -21.115  -5.154  -7.016  0.00  0.00     0.248 C 
HETATM    3  O           1     -20.733  -4.314  -6.236  0.00  0.00    -0.271 OA
HETATM    4  H           1     -21.526  -7.166  -7.276  0.00  0.00     0.163 HD
ENDROOT
BRANCH   1   5
HETATM    5  C           1     -20.848  -6.839  -5.269  0.00  0.00     0.194 C 
BRANCH   5   6
HETATM    6  C           1     -22.074  -6.744  -4.372  0.00  0.00     0.106 C 
BRANCH   6   7
HETATM    7  S           1     -21.560  -6.318  -2.685  0.00  0.00    -0.180 SA
HETATM    8  H           1     -22.316  -5.210  -2.584  0.00  0.00     0.101 HD
ENDBRANCH   6   7
ENDBRANCH   5   6
BRANCH   5   9
HETATM    9  C           1     -20.328  -8.257  -5.264  0.00  0.00     0.197 C 
HETATM   10  O           1     -19.253  -8.526  -4.687  0.00  0.00    -0.646 OA
HETATM   11  O           1     -20.973  -9.160  -5.839  0.00  0.00    -0.646 OA
ENDBRANCH   5   9
ENDBRANCH   1   5
BRANCH   2  12
HETATM   12  C           1     -21.490  -4.762  -8.424  0.00  0.00     0.270 C 
HETATM   13  C           1     -20.236  -4.359  -9.189  0.00  0.00     0.050 C 
BRANCH  12  14
HETATM   14  N           1     -22.444  -3.605  -8.384  0.00  0.00    -0.067 N 
HETATM   15  H           1     -21.952  -2.760  -8.016  0.00  0.00     0.275 HD
HETATM   16  H           1     -22.796  -3.412  -9.349  0.00  0.00     0.275 HD
HETATM   17  H           1     -23.248  -3.840  -7.759  0.00  0.00     0.275 HD
ENDBRANCH  12  14
ENDBRANCH   2  12
TORSDOF 6
ENDMDL
