MODEL 1
REMARK VINA RESULT:      -5.9      0.000      0.000
REMARK  9 active torsions:
REMARK  status: ('A' for Active; 'I' for Inactive)
REMARK    1  A    between atoms: C_1  and  C_2 
REMARK    2  A    between atoms: C_2  and  C_4 
REMARK    3  A    between atoms: C_2  and  N_17 
REMARK    4  A    between atoms: C_4  and  C_5 
REMARK    5  A    between atoms: C_7  and  C_11 
REMARK    6  A    between atoms: C_7  and  C_8 
REMARK    7  A    between atoms: C_7  and  N_21 
REMARK    8  A    between atoms: C_8  and  C_9 
REMARK    9  A    between atoms: C_9  and  Se_10 
REMARK       I    between atoms: C_11  and  N_17 
ROOT
HETATM    1  C           1     -34.332  -2.379 -11.971  0.00  0.00     0.249 C 
HETATM    2  H           1     -35.955  -2.097 -13.226  0.00  0.00     0.163 HD
HETATM    3  O           1     -33.614  -1.860 -11.150  0.00  0.00    -0.271 OA
HETATM    4  N           1     -35.352  -1.663 -12.537  0.00  0.00    -0.344 N 
ENDROOT
BRANCH   1   5
HETATM    5  C           1     -34.105  -3.815 -12.373  0.00  0.00     0.274 C 
BRANCH   5   6
HETATM    6  C           1     -32.835  -4.334 -11.710  0.00  0.00     0.042 C 
BRANCH   6   7
HETATM    7  C           1     -33.049  -5.773 -11.261  0.00  0.00     0.003 C 
BRANCH   7   8
HETATM    8 Se           1     -34.739  -5.909 -10.298  0.00  0.00     0.000 Se
HETATM    9  C           1     -34.663  -7.847 -10.109  0.00  0.00     0.000 C 
ENDBRANCH   7   8
ENDBRANCH   6   7
ENDBRANCH   5   6
BRANCH   5  10
HETATM   10  N           1     -33.960  -3.900 -13.864  0.00  0.00    -0.067 N 
HETATM   11  H           1     -33.910  -4.903 -14.151  0.00  0.00     0.275 HD
HETATM   12  H           1     -33.085  -3.408 -14.156  0.00  0.00     0.275 HD
HETATM   13  H           1     -34.783  -3.447 -14.321  0.00  0.00     0.275 HD
ENDBRANCH   5  10
ENDBRANCH   1   5
BRANCH   4  14
HETATM   14  C           1     -35.572  -0.282 -12.151  0.00  0.00     0.189 C 
BRANCH  14  15
HETATM   15  C           1     -36.723  -0.210 -11.178  0.00  0.00     0.197 C 
HETATM   16  O           1     -37.698  -0.981 -11.306  0.00  0.00    -0.646 OA
HETATM   17  O           1     -36.700   0.620 -10.244  0.00  0.00    -0.646 OA
ENDBRANCH  14  15
BRANCH  14  18
HETATM   18  C           1     -35.899   0.544 -13.388  0.00  0.00     0.014 C 
HETATM   19  C           1     -34.622   1.176 -13.928  0.00  0.00     0.012 C 
BRANCH  18  20
HETATM   20  C           1     -36.510  -0.357 -14.453  0.00  0.00     0.002 C 
HETATM   21  C           1     -36.020   0.077 -15.828  0.00  0.00     0.005 C 
ENDBRANCH  18  20
ENDBRANCH  14  18
ENDBRANCH   4  14
TORSDOF 9
ENDMDL
MODEL 2
REMARK VINA RESULT:      -5.8     10.739     12.430
REMARK  9 active torsions:
REMARK  status: ('A' for Active; 'I' for Inactive)
REMARK    1  A    between atoms: C_1  and  C_2 
REMARK    2  A    between atoms: C_2  and  C_4 
REMARK    3  A    between atoms: C_2  and  N_17 
REMARK    4  A    between atoms: C_4  and  C_5 
REMARK    5  A    between atoms: C_7  and  C_11 
REMARK    6  A    between atoms: C_7  and  C_8 
REMARK    7  A    between atoms: C_7  and  N_21 
REMARK    8  A    between atoms: C_8  and  C_9 
REMARK    9  A    between atoms: C_9  and  Se_10 
REMARK       I    between atoms: C_11  and  N_17 
ROOT
HETATM    1  C           1     -25.749  -6.787 -18.828  0.00  0.00     0.249 C 
HETATM    2  H           1     -27.793  -7.049 -18.629  0.00  0.00     0.163 HD
HETATM    3  O           1     -24.757  -6.325 -18.319  0.00  0.00    -0.271 OA
HETATM    4  N           1     -26.961  -6.662 -18.203  0.00  0.00    -0.344 N 
ENDROOT
BRANCH   1   5
HETATM    5  C           1     -25.655  -7.500 -20.154  0.00  0.00     0.274 C 
BRANCH   5   6
HETATM    6  C           1     -24.990  -6.588 -21.177  0.00  0.00     0.042 C 
BRANCH   6   7
HETATM    7  C           1     -24.241  -7.433 -22.199  0.00  0.00     0.003 C 
BRANCH   7   8
HETATM    8 Se           1     -22.962  -8.583 -21.280  0.00  0.00     0.000 Se
HETATM    9  C           1     -22.000  -9.083 -22.899  0.00  0.00     0.000 C 
ENDBRANCH   7   8
ENDBRANCH   6   7
ENDBRANCH   5   6
BRANCH   5  10
HETATM   10  N           1     -27.033  -7.860 -20.628  0.00  0.00    -0.067 N 
HETATM   11  H           1     -27.144  -7.568 -21.625  0.00  0.00     0.275 HD
HETATM   12  H           1     -27.742  -7.368 -20.038  0.00  0.00     0.275 HD
HETATM   13  H           1     -27.170  -8.893 -20.549  0.00  0.00     0.275 HD
ENDBRANCH   5  10
ENDBRANCH   1   5
BRANCH   4  14
HETATM   14  C           1     -27.052  -5.976 -16.929  0.00  0.00     0.189 C 
BRANCH  14  15
HETATM   15  C           1     -26.882  -6.973 -15.808  0.00  0.00     0.197 C 
HETATM   16  O           1     -25.744  -7.405 -15.525  0.00  0.00    -0.646 OA
HETATM   17  O           1     -27.878  -7.366 -15.164  0.00  0.00    -0.646 OA
ENDBRANCH  14  15
BRANCH  14  18
HETATM   18  C           1     -28.415  -5.306 -16.810  0.00  0.00     0.014 C 
HETATM   19  C           1     -28.243  -3.793 -16.866  0.00  0.00     0.012 C 
BRANCH  18  20
HETATM   20  C           1     -29.304  -5.759 -17.959  0.00  0.00     0.002 C 
HETATM   21  C           1     -30.484  -6.549 -17.408  0.00  0.00     0.005 C 
ENDBRANCH  18  20
ENDBRANCH  14  18
ENDBRANCH   4  14
TORSDOF 9
ENDMDL
MODEL 3
REMARK VINA RESULT:      -5.8      4.120      5.717
REMARK  9 active torsions:
REMARK  status: ('A' for Active; 'I' for Inactive)
REMARK    1  A    between atoms: C_1  and  C_2 
REMARK    2  A    between atoms: C_2  and  C_4 
REMARK    3  A    between atoms: C_2  and  N_17 
REMARK    4  A    between atoms: C_4  and  C_5 
REMARK    5  A    between atoms: C_7  and  C_11 
REMARK    6  A    between atoms: C_7  and  C_8 
REMARK    7  A    between atoms: C_7  and  N_21 
REMARK    8  A    between atoms: C_8  and  C_9 
REMARK    9  A    between atoms: C_9  and  Se_10 
REMARK       I    between atoms: C_11  and  N_17 
ROOT
HETATM    1  C           1     -34.004  -4.513 -15.455  0.00  0.00     0.249 C 
HETATM    2  H           1     -32.638  -3.498 -14.276  0.00  0.00     0.163 HD
HETATM    3  O           1     -35.080  -5.061 -15.473  0.00  0.00    -0.271 OA
HETATM    4  N           1     -33.540  -3.958 -14.293  0.00  0.00    -0.344 N 
ENDROOT
BRANCH   1   5
HETATM    5  C           1     -33.172  -4.443 -16.710  0.00  0.00     0.274 C 
BRANCH   5   6
HETATM    6  C           1     -31.705  -4.664 -16.362  0.00  0.00     0.042 C 
BRANCH   6   7
HETATM    7  C           1     -30.828  -3.946 -17.379  0.00  0.00     0.003 C 
BRANCH   7   8
HETATM    8 Se           1     -29.410  -5.145 -17.975  0.00  0.00     0.000 Se
HETATM    9  C           1     -30.421  -6.775 -17.630  0.00  0.00     0.000 C 
ENDBRANCH   7   8
ENDBRANCH   6   7
ENDBRANCH   5   6
BRANCH   5  10
HETATM   10  N           1     -33.336  -3.092 -17.344  0.00  0.00    -0.067 N 
HETATM   11  H           1     -33.039  -3.139 -18.345  0.00  0.00     0.275 HD
HETATM   12  H           1     -32.744  -2.396 -16.836  0.00  0.00     0.275 HD
HETATM   13  H           1     -34.338  -2.802 -17.290  0.00  0.00     0.275 HD
ENDBRANCH   5  10
ENDBRANCH   1   5
BRANCH   4  14
HETATM   14  C           1     -34.340  -4.025 -13.085  0.00  0.00     0.189 C 
BRANCH  14  15
HETATM   15  C           1     -34.999  -2.689 -12.844  0.00  0.00     0.197 C 
HETATM   16  O           1     -34.749  -1.724 -13.598  0.00  0.00    -0.646 OA
HETATM   17  O           1     -35.795  -2.548 -11.891  0.00  0.00    -0.646 OA
ENDBRANCH  14  15
BRANCH  14  18
HETATM   18  C           1     -33.445  -4.372 -11.903  0.00  0.00     0.014 C 
HETATM   19  C           1     -32.805  -3.100 -11.361  0.00  0.00     0.012 C 
BRANCH  18  20
HETATM   20  C           1     -34.279  -5.026 -10.810  0.00  0.00     0.002 C 
HETATM   21  C           1     -33.955  -6.513 -10.745  0.00  0.00     0.005 C 
ENDBRANCH  18  20
ENDBRANCH  14  18
ENDBRANCH   4  14
TORSDOF 9
ENDMDL
MODEL 4
REMARK VINA RESULT:      -5.7      9.588     11.275
REMARK  9 active torsions:
REMARK  status: ('A' for Active; 'I' for Inactive)
REMARK    1  A    between atoms: C_1  and  C_2 
REMARK    2  A    between atoms: C_2  and  C_4 
REMARK    3  A    between atoms: C_2  and  N_17 
REMARK    4  A    between atoms: C_4  and  C_5 
REMARK    5  A    between atoms: C_7  and  C_11 
REMARK    6  A    between atoms: C_7  and  C_8 
REMARK    7  A    between atoms: C_7  and  N_21 
REMARK    8  A    between atoms: C_8  and  C_9 
REMARK    9  A    between atoms: C_9  and  Se_10 
REMARK       I    between atoms: C_11  and  N_17 
ROOT
HETATM    1  C           1     -26.515  -6.966 -16.508  0.00  0.00     0.249 C 
HETATM    2  H           1     -27.615  -6.303 -18.131  0.00  0.00     0.163 HD
HETATM    3  O           1     -26.575  -7.419 -15.390  0.00  0.00    -0.271 OA
HETATM    4  N           1     -27.665  -6.683 -17.194  0.00  0.00    -0.344 N 
ENDROOT
BRANCH   1   5
HETATM    5  C           1     -25.173  -6.711 -17.148  0.00  0.00     0.274 C 
BRANCH   5   6
HETATM    6  C           1     -25.320  -6.726 -18.664  0.00  0.00     0.042 C 
BRANCH   6   7
HETATM    7  C           1     -24.058  -7.302 -19.291  0.00  0.00     0.003 C 
BRANCH   7   8
HETATM    8 Se           1     -24.455  -7.923 -21.097  0.00  0.00     0.000 Se
HETATM    9  C           1     -22.639  -8.531 -21.462  0.00  0.00     0.000 C 
ENDBRANCH   7   8
ENDBRANCH   6   7
ENDBRANCH   5   6
BRANCH   5  10
HETATM   10  N           1     -24.208  -7.782 -16.730  0.00  0.00    -0.067 N 
HETATM   11  H           1     -24.454  -8.117 -15.771  0.00  0.00     0.275 HD
HETATM   12  H           1     -23.238  -7.394 -16.727  0.00  0.00     0.275 HD
HETATM   13  H           1     -24.262  -8.581 -17.402  0.00  0.00     0.275 HD
ENDBRANCH   5  10
ENDBRANCH   1   5
BRANCH   4  14
HETATM   14  C           1     -28.955  -6.928 -16.580  0.00  0.00     0.189 C 
BRANCH  14  15
HETATM   15  C           1     -29.897  -7.513 -17.604  0.00  0.00     0.197 C 
HETATM   16  O           1     -29.520  -8.458 -18.330  0.00  0.00    -0.646 OA
HETATM   17  O           1     -31.052  -7.052 -17.726  0.00  0.00    -0.646 OA
ENDBRANCH  14  15
BRANCH  14  18
HETATM   18  C           1     -29.525  -5.616 -16.056  0.00  0.00     0.014 C 
HETATM   19  C           1     -29.379  -5.569 -14.540  0.00  0.00     0.012 C 
BRANCH  18  20
HETATM   20  C           1     -28.766  -4.451 -16.676  0.00  0.00     0.002 C 
HETATM   21  C           1     -29.689  -3.687 -17.617  0.00  0.00     0.005 C 
ENDBRANCH  18  20
ENDBRANCH  14  18
ENDBRANCH   4  14
TORSDOF 9
ENDMDL
MODEL 5
REMARK VINA RESULT:      -5.4     13.793     16.698
REMARK  9 active torsions:
REMARK  status: ('A' for Active; 'I' for Inactive)
REMARK    1  A    between atoms: C_1  and  C_2 
REMARK    2  A    between atoms: C_2  and  C_4 
REMARK    3  A    between atoms: C_2  and  N_17 
REMARK    4  A    between atoms: C_4  and  C_5 
REMARK    5  A    between atoms: C_7  and  C_11 
REMARK    6  A    between atoms: C_7  and  C_8 
REMARK    7  A    between atoms: C_7  and  N_21 
REMARK    8  A    between atoms: C_8  and  C_9 
REMARK    9  A    between atoms: C_9  and  Se_10 
REMARK       I    between atoms: C_11  and  N_17 
ROOT
HETATM    1  C           1     -20.880  -5.410  -6.384  0.00  0.00     0.249 C 
HETATM    2  H           1     -22.307  -6.842  -5.935  0.00  0.00     0.163 HD
HETATM    3  O           1     -19.753  -5.034  -6.166  0.00  0.00    -0.271 OA
HETATM    4  N           1     -21.363  -6.525  -5.753  0.00  0.00    -0.344 N 
ENDROOT
BRANCH   1   5
HETATM    5  C           1     -21.755  -4.652  -7.350  0.00  0.00     0.274 C 
BRANCH   5   6
HETATM    6  C           1     -21.323  -4.958  -8.778  0.00  0.00     0.042 C 
BRANCH   6   7
HETATM    7  C           1     -21.957  -3.951  -9.728  0.00  0.00     0.003 C 
BRANCH   7   8
HETATM    8 Se           1     -23.600  -4.699 -10.466  0.00  0.00     0.000 Se
HETATM    9  C           1     -24.758  -3.329  -9.705  0.00  0.00     0.000 C 
ENDBRANCH   7   8
ENDBRANCH   6   7
ENDBRANCH   5   6
BRANCH   5  10
HETATM   10  N           1     -21.623  -3.179  -7.094  0.00  0.00    -0.067 N 
HETATM   11  H           1     -21.156  -3.027  -6.171  0.00  0.00     0.275 HD
HETATM   12  H           1     -22.572  -2.742  -7.082  0.00  0.00     0.275 HD
HETATM   13  H           1     -21.048  -2.744  -7.850  0.00  0.00     0.275 HD
ENDBRANCH   5  10
ENDBRANCH   1   5
BRANCH   4  14
HETATM   14  C           1     -20.521  -7.255  -4.825  0.00  0.00     0.189 C 
BRANCH  14  15
HETATM   15  C           1     -20.121  -8.574  -5.439  0.00  0.00     0.197 C 
HETATM   16  O           1     -20.993  -9.429  -5.706  0.00  0.00    -0.646 OA
HETATM   17  O           1     -18.918  -8.812  -5.683  0.00  0.00    -0.646 OA
ENDBRANCH  14  15
BRANCH  14  18
HETATM   18  C           1     -21.290  -7.508  -3.535  0.00  0.00     0.014 C 
HETATM   19  C           1     -20.416  -8.300  -2.570  0.00  0.00     0.012 C 
BRANCH  18  20
HETATM   20  C           1     -21.668  -6.176  -2.901  0.00  0.00     0.002 C 
HETATM   21  C           1     -22.265  -6.422  -1.521  0.00  0.00     0.005 C 
ENDBRANCH  18  20
ENDBRANCH  14  18
ENDBRANCH   4  14
TORSDOF 9
ENDMDL
MODEL 6
REMARK VINA RESULT:      -5.4     12.203     14.214
REMARK  9 active torsions:
REMARK  status: ('A' for Active; 'I' for Inactive)
REMARK    1  A    between atoms: C_1  and  C_2 
REMARK    2  A    between atoms: C_2  and  C_4 
REMARK    3  A    between atoms: C_2  and  N_17 
REMARK    4  A    between atoms: C_4  and  C_5 
REMARK    5  A    between atoms: C_7  and  C_11 
REMARK    6  A    between atoms: C_7  and  C_8 
REMARK    7  A    between atoms: C_7  and  N_21 
REMARK    8  A    between atoms: C_8  and  C_9 
REMARK    9  A    between atoms: C_9  and  Se_10 
REMARK       I    between atoms: C_11  and  N_17 
ROOT
HETATM    1  C           1     -21.807  -4.678  -7.836  0.00  0.00     0.249 C 
HETATM    2  H           1     -22.395  -5.819  -9.460  0.00  0.00     0.163 HD
HETATM    3  O           1     -21.735  -3.559  -7.386  0.00  0.00    -0.271 OA
HETATM    4  N           1     -22.335  -4.882  -9.082  0.00  0.00    -0.344 N 
ENDROOT
BRANCH   1   5
HETATM    5  C           1     -21.314  -5.850  -7.025  0.00  0.00     0.274 C 
BRANCH   5   6
HETATM    6  C           1     -21.376  -5.506  -5.543  0.00  0.00     0.042 C 
BRANCH   6   7
HETATM    7  C           1     -22.218  -6.547  -4.815  0.00  0.00     0.003 C 
BRANCH   7   8
HETATM    8 Se           1     -21.208  -7.260  -3.307  0.00  0.00     0.000 Se
HETATM    9  C           1     -22.194  -6.254  -1.961  0.00  0.00     0.000 C 
ENDBRANCH   7   8
ENDBRANCH   6   7
ENDBRANCH   5   6
BRANCH   5  10
HETATM   10  N           1     -19.895  -6.159  -7.406  0.00  0.00    -0.067 N 
HETATM   11  H           1     -19.289  -5.338  -7.182  0.00  0.00     0.275 HD
HETATM   12  H           1     -19.846  -6.362  -8.430  0.00  0.00     0.275 HD
HETATM   13  H           1     -19.564  -6.993  -6.869  0.00  0.00     0.275 HD
ENDBRANCH   5  10
ENDBRANCH   1   5
BRANCH   4  14
HETATM   14  C           1     -22.810  -3.755  -9.862  0.00  0.00     0.189 C 
BRANCH  14  15
HETATM   15  C           1     -24.288  -3.914 -10.126  0.00  0.00     0.197 C 
HETATM   16  O           1     -24.898  -4.908  -9.679  0.00  0.00    -0.646 OA
HETATM   17  O           1     -24.900  -3.050 -10.790  0.00  0.00    -0.646 OA
ENDBRANCH  14  15
BRANCH  14  18
HETATM   18  C           1     -22.060  -3.704 -11.187  0.00  0.00     0.014 C 
HETATM   19  C           1     -21.291  -2.392 -11.283  0.00  0.00     0.012 C 
BRANCH  18  20
HETATM   20  C           1     -21.087  -4.871 -11.264  0.00  0.00     0.002 C 
HETATM   21  C           1     -19.705  -4.411 -10.818  0.00  0.00     0.005 C 
ENDBRANCH  18  20
ENDBRANCH  14  18
ENDBRANCH   4  14
TORSDOF 9
ENDMDL
MODEL 7
REMARK VINA RESULT:      -5.1     13.851     16.794
REMARK  9 active torsions:
REMARK  status: ('A' for Active; 'I' for Inactive)
REMARK    1  A    between atoms: C_1  and  C_2 
REMARK    2  A    between atoms: C_2  and  C_4 
REMARK    3  A    between atoms: C_2  and  N_17 
REMARK    4  A    between atoms: C_4  and  C_5 
REMARK    5  A    between atoms: C_7  and  C_11 
REMARK    6  A    between atoms: C_7  and  C_8 
REMARK    7  A    between atoms: C_7  and  N_21 
REMARK    8  A    between atoms: C_8  and  C_9 
REMARK    9  A    between atoms: C_9  and  Se_10 
REMARK       I    between atoms: C_11  and  N_17 
ROOT
HETATM    1  C           1     -21.875  -5.952  -5.554  0.00  0.00     0.249 C 
HETATM    2  H           1     -20.069  -6.723  -4.898  0.00  0.00     0.163 HD
HETATM    3  O           1     -23.072  -5.968  -5.399  0.00  0.00    -0.271 OA
HETATM    4  N           1     -21.072  -6.735  -4.768  0.00  0.00    -0.344 N 
ENDROOT
BRANCH   1   5
HETATM    5  C           1     -21.263  -5.071  -6.614  0.00  0.00     0.274 C 
BRANCH   5   6
HETATM    6  C           1     -22.368  -4.386  -7.407  0.00  0.00     0.042 C 
BRANCH   6   7
HETATM    7  C           1     -21.864  -4.065  -8.808  0.00  0.00     0.003 C 
BRANCH   7   8
HETATM    8 Se           1     -23.173  -4.666 -10.123  0.00  0.00     0.000 Se
HETATM    9  C           1     -24.531  -3.369  -9.605  0.00  0.00     0.000 C 
ENDBRANCH   7   8
ENDBRANCH   6   7
ENDBRANCH   5   6
BRANCH   5  10
HETATM   10  N           1     -20.429  -5.907  -7.540  0.00  0.00    -0.067 N 
HETATM   11  H           1     -20.093  -5.317  -8.334  0.00  0.00     0.275 HD
HETATM   12  H           1     -21.007  -6.696  -7.910  0.00  0.00     0.275 HD
HETATM   13  H           1     -19.608  -6.290  -7.019  0.00  0.00     0.275 HD
ENDBRANCH   5  10
ENDBRANCH   1   5
BRANCH   4  14
HETATM   14  C           1     -21.660  -7.583  -3.749  0.00  0.00     0.189 C 
BRANCH  14  15
HETATM   15  C           1     -21.574  -6.892  -2.410  0.00  0.00     0.197 C 
HETATM   16  O           1     -20.774  -7.306  -1.544  0.00  0.00    -0.646 OA
HETATM   17  O           1     -22.303  -5.905  -2.168  0.00  0.00    -0.646 OA
ENDBRANCH  14  15
BRANCH  14  18
HETATM   18  C           1     -20.903  -8.903  -3.689  0.00  0.00     0.014 C 
HETATM   19  C           1     -21.839 -10.042  -4.073  0.00  0.00     0.012 C 
BRANCH  18  20
HETATM   20  C           1     -19.731  -8.860  -4.659  0.00  0.00     0.002 C 
HETATM   21  C           1     -18.464  -9.312  -3.945  0.00  0.00     0.005 C 
ENDBRANCH  18  20
ENDBRANCH  14  18
ENDBRANCH   4  14
TORSDOF 9
ENDMDL
MODEL 8
REMARK VINA RESULT:      -5.0     12.796     14.936
REMARK  9 active torsions:
REMARK  status: ('A' for Active; 'I' for Inactive)
REMARK    1  A    between atoms: C_1  and  C_2 
REMARK    2  A    between atoms: C_2  and  C_4 
REMARK    3  A    between atoms: C_2  and  N_17 
REMARK    4  A    between atoms: C_4  and  C_5 
REMARK    5  A    between atoms: C_7  and  C_11 
REMARK    6  A    between atoms: C_7  and  C_8 
REMARK    7  A    between atoms: C_7  and  N_21 
REMARK    8  A    between atoms: C_8  and  C_9 
REMARK    9  A    between atoms: C_9  and  Se_10 
REMARK       I    between atoms: C_11  and  N_17 
ROOT
HETATM    1  C           1     -21.388  -5.733  -6.948  0.00  0.00     0.249 C 
HETATM    2  H           1     -22.431  -3.991  -7.353  0.00  0.00     0.163 HD
HETATM    3  O           1     -20.750  -6.639  -7.428  0.00  0.00    -0.271 OA
HETATM    4  N           1     -21.896  -4.751  -7.755  0.00  0.00    -0.344 N 
ENDROOT
BRANCH   1   5
HETATM    5  C           1     -21.628  -5.685  -5.459  0.00  0.00     0.274 C 
BRANCH   5   6
HETATM    6  C           1     -20.693  -6.664  -4.761  0.00  0.00     0.042 C 
BRANCH   6   7
HETATM    7  C           1     -21.514  -7.744  -4.069  0.00  0.00     0.003 C 
BRANCH   7   8
HETATM    8 Se           1     -21.038  -7.810  -2.179  0.00  0.00     0.000 Se
HETATM    9  C           1     -22.234  -6.362  -1.660  0.00  0.00     0.000 C 
ENDBRANCH   7   8
ENDBRANCH   6   7
ENDBRANCH   5   6
BRANCH   5  10
HETATM   10  N           1     -23.052  -6.062  -5.170  0.00  0.00    -0.067 N 
HETATM   11  H           1     -23.109  -6.501  -4.223  0.00  0.00     0.275 HD
HETATM   12  H           1     -23.384  -6.742  -5.891  0.00  0.00     0.275 HD
HETATM   13  H           1     -23.651  -5.207  -5.194  0.00  0.00     0.275 HD
ENDBRANCH   5  10
ENDBRANCH   1   5
BRANCH   4  14
HETATM   14  C           1     -21.666  -4.796  -9.186  0.00  0.00     0.189 C 
BRANCH  14  15
HETATM   15  C           1     -20.397  -4.048  -9.514  0.00  0.00     0.197 C 
HETATM   16  O           1     -19.591  -3.757  -8.605  0.00  0.00    -0.646 OA
HETATM   17  O           1     -20.152  -3.721 -10.696  0.00  0.00    -0.646 OA
ENDBRANCH  14  15
BRANCH  14  18
HETATM   18  C           1     -22.839  -4.149  -9.909  0.00  0.00     0.014 C 
HETATM   19  C           1     -23.552  -5.195 -10.757  0.00  0.00     0.012 C 
BRANCH  18  20
HETATM   20  C           1     -23.810  -3.575  -8.887  0.00  0.00     0.002 C 
HETATM   21  C           1     -25.130  -3.242  -9.570  0.00  0.00     0.005 C 
ENDBRANCH  18  20
ENDBRANCH  14  18
ENDBRANCH   4  14
TORSDOF 9
ENDMDL
MODEL 9
REMARK VINA RESULT:      -5.0     10.736     12.228
REMARK  9 active torsions:
REMARK  status: ('A' for Active; 'I' for Inactive)
REMARK    1  A    between atoms: C_1  and  C_2 
REMARK    2  A    between atoms: C_2  and  C_4 
REMARK    3  A    between atoms: C_2  and  N_17 
REMARK    4  A    between atoms: C_4  and  C_5 
REMARK    5  A    between atoms: C_7  and  C_11 
REMARK    6  A    between atoms: C_7  and  C_8 
REMARK    7  A    between atoms: C_7  and  N_21 
REMARK    8  A    between atoms: C_8  and  C_9 
REMARK    9  A    between atoms: C_9  and  Se_10 
REMARK       I    between atoms: C_11  and  N_17 
ROOT
HETATM    1  C           1     -26.829  -6.557 -19.528  0.00  0.00     0.249 C 
HETATM    2  H           1     -28.732  -6.853 -20.287  0.00  0.00     0.163 HD
HETATM    3  O           1     -26.182  -6.361 -18.527  0.00  0.00    -0.271 OA
HETATM    4  N           1     -28.189  -6.688 -19.449  0.00  0.00    -0.344 N 
ENDROOT
BRANCH   1   5
HETATM    5  C           1     -26.138  -6.655 -20.865  0.00  0.00     0.274 C 
BRANCH   5   6
HETATM    6  C           1     -25.541  -8.047 -21.028  0.00  0.00     0.042 C 
BRANCH   6   7
HETATM    7  C           1     -24.022  -7.959 -20.953  0.00  0.00     0.003 C 
BRANCH   7   8
HETATM    8 Se           1     -23.267  -8.224 -22.731  0.00  0.00     0.000 Se
HETATM    9  C           1     -21.714  -9.219 -22.102  0.00  0.00     0.000 C 
ENDBRANCH   7   8
ENDBRANCH   6   7
ENDBRANCH   5   6
BRANCH   5  10
HETATM   10  N           1     -25.044  -5.631 -20.940  0.00  0.00    -0.067 N 
HETATM   11  H           1     -24.741  -5.518 -21.934  0.00  0.00     0.275 HD
HETATM   12  H           1     -24.234  -5.946 -20.360  0.00  0.00     0.275 HD
HETATM   13  H           1     -25.398  -4.717 -20.578  0.00  0.00     0.275 HD
ENDBRANCH   5  10
ENDBRANCH   1   5
BRANCH   4  14
HETATM   14  C           1     -28.854  -6.593 -18.163  0.00  0.00     0.189 C 
BRANCH  14  15
HETATM   15  C           1     -29.645  -7.854 -17.913  0.00  0.00     0.197 C 
HETATM   16  O           1     -30.408  -8.299 -18.797  0.00  0.00    -0.646 OA
HETATM   17  O           1     -29.536  -8.454 -16.821  0.00  0.00    -0.646 OA
ENDBRANCH  14  15
BRANCH  14  18
HETATM   18  C           1     -29.794  -5.396 -18.166  0.00  0.00     0.014 C 
HETATM   19  C           1     -30.783  -5.525 -17.014  0.00  0.00     0.012 C 
BRANCH  18  20
HETATM   20  C           1     -28.986  -4.116 -18.001  0.00  0.00     0.002 C 
HETATM   21  C           1     -28.247  -4.150 -16.670  0.00  0.00     0.005 C 
ENDBRANCH  18  20
ENDBRANCH  14  18
ENDBRANCH   4  14
TORSDOF 9
ENDMDL
