MODEL 1
REMARK VINA RESULT:      -7.4      0.000      0.000
REMARK  12 active torsions:
REMARK  status: ('A' for Active; 'I' for Inactive)
REMARK       I    between atoms: N_1  and  C_2 
REMARK       I    between atoms: C_2  and  N_3 
REMARK    1  A    between atoms: N_4  and  C_5 
REMARK    2  A    between atoms: C_5  and  C_6 
REMARK    3  A    between atoms: C_6  and  C_7 
REMARK    4  A    between atoms: C_7  and  C_8 
REMARK    5  A    between atoms: C_8  and  C_9 
REMARK    6  A    between atoms: C_8  and  N_12 
REMARK       I    between atoms: N_12  and  C_13 
REMARK    7  A    between atoms: C_13  and  C_14 
REMARK    8  A    between atoms: C_14  and  C_15 
REMARK    9  A    between atoms: C_14  and  N_21 
REMARK   10  A    between atoms: C_15  and  O_16 
REMARK   11  A    between atoms: O_16  and  P_17 
REMARK   12  A    between atoms: P_17  and  O_18 
ROOT
HETATM    1  C           1     -34.149  -3.823 -12.962  0.00  0.00     0.185 C 
ENDROOT
BRANCH   1   2
HETATM    2  C           1     -33.206  -3.833 -11.767  0.00  0.00     0.038 C 
BRANCH   2   3
HETATM    3  C           1     -33.853  -4.589 -10.613  0.00  0.00     0.023 C 
BRANCH   3   4
HETATM    4  C           1     -34.645  -5.769 -11.160  0.00  0.00     0.138 C 
BRANCH   4   5
HETATM    5  N           1     -33.840  -6.994 -11.048  0.00  0.00    -0.227 N 
HETATM    6  C           1     -34.182  -7.905 -10.238  0.00  0.00     0.665 C 
HETATM    7  N           1     -33.470  -8.988 -10.139  0.00  0.00    -0.235 N 
HETATM    8  N           1     -35.219  -7.761  -9.524  0.00  0.00    -0.235 N 
HETATM    9  H           1     -32.615  -9.107 -10.728  0.00  0.00     0.174 HD
HETATM   10  H           1     -33.753  -9.740  -9.470  0.00  0.00     0.174 HD
HETATM   11  H           1     -35.794  -6.886  -9.604  0.00  0.00     0.174 HD
HETATM   12  H           1     -35.502  -8.516  -8.853  0.00  0.00     0.174 HD
HETATM   13  H           1     -32.981  -7.114 -11.639  0.00  0.00     0.177 HD
ENDBRANCH   4   5
ENDBRANCH   3   4
ENDBRANCH   2   3
ENDBRANCH   1   2
BRANCH   1  14
HETATM   14  C           1     -34.965  -2.555 -12.949  0.00  0.00     0.196 C 
HETATM   15  O           1     -34.792  -1.690 -13.836  0.00  0.00    -0.646 OA
HETATM   16  O           1     -35.816  -2.368 -12.053  0.00  0.00    -0.646 OA
ENDBRANCH   1  14
BRANCH   1  17
HETATM   17  N           1     -33.376  -3.886 -14.187  0.00  0.00    -0.345 N 
HETATM   18  C           1     -33.889  -4.517 -15.289  0.00  0.00     0.251 C 
HETATM   19  O           1     -34.986  -5.021 -15.240  0.00  0.00    -0.271 OA
HETATM   20  H           1     -32.457  -3.465 -14.228  0.00  0.00     0.163 HD
BRANCH  18  21
HETATM   21  C           1     -33.085  -4.583 -16.563  0.00  0.00     0.298 C 
BRANCH  21  22
HETATM   22  C           1     -31.624  -4.858 -16.229  0.00  0.00     0.224 C 
BRANCH  22  23
HETATM   23  O           1     -30.920  -5.144 -17.408  0.00  0.00    -0.287 OA
BRANCH  23  24
HETATM   24  P           1     -29.604  -4.248 -17.680  0.00  0.00     0.406 P 
HETATM   25  O           1     -28.993  -4.650 -18.968  0.00  0.00    -0.624 OA
HETATM   26  O           1     -28.631  -4.457 -16.585  0.00  0.00    -0.624 OA
BRANCH  24  27
HETATM   27  O           1     -30.017  -2.688 -17.745  0.00  0.00    -0.300 OA
HETATM   28  H           1     -29.248  -2.246 -18.060  0.00  0.00     0.223 HD
ENDBRANCH  24  27
ENDBRANCH  23  24
ENDBRANCH  22  23
ENDBRANCH  21  22
BRANCH  21  29
HETATM   29  N           1     -33.192  -3.274 -17.290  0.00  0.00    -0.064 N 
HETATM   30  H           1     -32.242  -2.849 -17.385  0.00  0.00     0.275 HD
HETATM   31  H           1     -33.597  -3.436 -18.240  0.00  0.00     0.275 HD
HETATM   32  H           1     -33.811  -2.627 -16.752  0.00  0.00     0.275 HD
ENDBRANCH  21  29
ENDBRANCH  18  21
ENDBRANCH   1  17
TORSDOF 12
ENDMDL
MODEL 2
REMARK VINA RESULT:      -7.2      3.266      6.423
REMARK  12 active torsions:
REMARK  status: ('A' for Active; 'I' for Inactive)
REMARK       I    between atoms: N_1  and  C_2 
REMARK       I    between atoms: C_2  and  N_3 
REMARK    1  A    between atoms: N_4  and  C_5 
REMARK    2  A    between atoms: C_5  and  C_6 
REMARK    3  A    between atoms: C_6  and  C_7 
REMARK    4  A    between atoms: C_7  and  C_8 
REMARK    5  A    between atoms: C_8  and  C_9 
REMARK    6  A    between atoms: C_8  and  N_12 
REMARK       I    between atoms: N_12  and  C_13 
REMARK    7  A    between atoms: C_13  and  C_14 
REMARK    8  A    between atoms: C_14  and  C_15 
REMARK    9  A    between atoms: C_14  and  N_21 
REMARK   10  A    between atoms: C_15  and  O_16 
REMARK   11  A    between atoms: O_16  and  P_17 
REMARK   12  A    between atoms: P_17  and  O_18 
ROOT
HETATM    1  C           1     -35.705  -0.858 -11.305  0.00  0.00     0.185 C 
ENDROOT
BRANCH   1   2
HETATM    2  C           1     -35.950  -0.116 -12.612  0.00  0.00     0.038 C 
BRANCH   2   3
HETATM    3  C           1     -34.673   0.595 -13.041  0.00  0.00     0.023 C 
BRANCH   3   4
HETATM    4  C           1     -34.860   1.179 -14.435  0.00  0.00     0.138 C 
BRANCH   4   5
HETATM    5  N           1     -35.204   0.103 -15.375  0.00  0.00    -0.227 N 
HETATM    6  C           1     -36.275   0.167 -16.047  0.00  0.00     0.665 C 
HETATM    7  N           1     -36.580  -0.784 -16.878  0.00  0.00    -0.235 N 
HETATM    8  N           1     -37.051   1.159 -15.908  0.00  0.00    -0.235 N 
HETATM    9  H           1     -35.940  -1.603 -16.993  0.00  0.00     0.174 HD
HETATM   10  H           1     -37.464  -0.731 -17.433  0.00  0.00     0.174 HD
HETATM   11  H           1     -36.805   1.928 -15.236  0.00  0.00     0.174 HD
HETATM   12  H           1     -37.939   1.213 -16.465  0.00  0.00     0.174 HD
HETATM   13  H           1     -34.562  -0.720 -15.490  0.00  0.00     0.177 HD
ENDBRANCH   4   5
ENDBRANCH   3   4
ENDBRANCH   2   3
ENDBRANCH   1   2
BRANCH   1  14
HETATM   14  C           1     -36.971  -0.868 -10.485  0.00  0.00     0.196 C 
HETATM   15  O           1     -36.918  -0.689  -9.249  0.00  0.00    -0.646 OA
HETATM   16  O           1     -38.075  -1.054 -11.043  0.00  0.00    -0.646 OA
ENDBRANCH   1  14
BRANCH   1  17
HETATM   17  N           1     -35.306  -2.223 -11.593  0.00  0.00    -0.345 N 
HETATM   18  C           1     -34.026  -2.632 -11.329  0.00  0.00     0.251 C 
HETATM   19  O           1     -33.229  -1.856 -10.857  0.00  0.00    -0.271 OA
HETATM   20  H           1     -35.973  -2.872 -11.989  0.00  0.00     0.163 HD
BRANCH  18  21
HETATM   21  C           1     -33.611  -4.051 -11.629  0.00  0.00     0.298 C 
BRANCH  21  22
HETATM   22  C           1     -34.305  -4.526 -12.899  0.00  0.00     0.224 C 
BRANCH  22  23
HETATM   23  O           1     -34.274  -3.505 -13.859  0.00  0.00    -0.287 OA
BRANCH  23  24
HETATM   24  P           1     -34.172  -3.984 -15.398  0.00  0.00     0.406 P 
HETATM   25  O           1     -32.753  -4.220 -15.747  0.00  0.00    -0.624 OA
HETATM   26  O           1     -34.729  -2.933 -16.279  0.00  0.00    -0.624 OA
BRANCH  24  27
HETATM   27  O           1     -35.008  -5.351 -15.594  0.00  0.00    -0.300 OA
HETATM   28  H           1     -35.621  -5.366 -14.880  0.00  0.00     0.223 HD
ENDBRANCH  24  27
ENDBRANCH  23  24
ENDBRANCH  22  23
ENDBRANCH  21  22
BRANCH  21  29
HETATM   29  N           1     -34.004  -4.938 -10.484  0.00  0.00    -0.064 N 
HETATM   30  H           1     -34.547  -5.755 -10.846  0.00  0.00     0.275 HD
HETATM   31  H           1     -33.143  -5.280  -9.999  0.00  0.00     0.275 HD
HETATM   32  H           1     -34.593  -4.399  -9.811  0.00  0.00     0.275 HD
ENDBRANCH  21  29
ENDBRANCH  18  21
ENDBRANCH   1  17
TORSDOF 12
ENDMDL
MODEL 3
REMARK VINA RESULT:      -6.9      4.424      6.412
REMARK  12 active torsions:
REMARK  status: ('A' for Active; 'I' for Inactive)
REMARK       I    between atoms: N_1  and  C_2 
REMARK       I    between atoms: C_2  and  N_3 
REMARK    1  A    between atoms: N_4  and  C_5 
REMARK    2  A    between atoms: C_5  and  C_6 
REMARK    3  A    between atoms: C_6  and  C_7 
REMARK    4  A    between atoms: C_7  and  C_8 
REMARK    5  A    between atoms: C_8  and  C_9 
REMARK    6  A    between atoms: C_8  and  N_12 
REMARK       I    between atoms: N_12  and  C_13 
REMARK    7  A    between atoms: C_13  and  C_14 
REMARK    8  A    between atoms: C_14  and  C_15 
REMARK    9  A    between atoms: C_14  and  N_21 
REMARK   10  A    between atoms: C_15  and  O_16 
REMARK   11  A    between atoms: O_16  and  P_17 
REMARK   12  A    between atoms: P_17  and  O_18 
ROOT
HETATM    1  C           1     -34.883  -3.572 -11.945  0.00  0.00     0.185 C 
ENDROOT
BRANCH   1   2
HETATM    2  C           1     -34.536  -4.492 -13.107  0.00  0.00     0.038 C 
BRANCH   2   3
HETATM    3  C           1     -34.233  -3.657 -14.345  0.00  0.00     0.023 C 
BRANCH   3   4
HETATM    4  C           1     -34.063  -4.574 -15.548  0.00  0.00     0.138 C 
BRANCH   4   5
HETATM    5  N           1     -32.747  -4.342 -16.160  0.00  0.00    -0.227 N 
HETATM    6  C           1     -32.632  -3.531 -17.125  0.00  0.00     0.665 C 
HETATM    7  N           1     -31.468  -3.325 -17.667  0.00  0.00    -0.235 N 
HETATM    8  N           1     -33.651  -2.920 -17.564  0.00  0.00    -0.235 N 
HETATM    9  H           1     -30.627  -3.829 -17.305  0.00  0.00     0.174 HD
HETATM   10  H           1     -31.373  -2.656 -18.464  0.00  0.00     0.174 HD
HETATM   11  H           1     -34.591  -3.086 -17.126  0.00  0.00     0.174 HD
HETATM   12  H           1     -33.556  -2.248 -18.364  0.00  0.00     0.174 HD
HETATM   13  H           1     -31.902  -4.848 -15.797  0.00  0.00     0.177 HD
ENDBRANCH   4   5
ENDBRANCH   3   4
ENDBRANCH   2   3
ENDBRANCH   1   2
BRANCH   1  14
HETATM   14  C           1     -33.765  -3.596 -10.932  0.00  0.00     0.196 C 
HETATM   15  O           1     -33.704  -4.517 -10.089  0.00  0.00    -0.646 OA
HETATM   16  O           1     -32.897  -2.696 -10.937  0.00  0.00    -0.646 OA
ENDBRANCH   1  14
BRANCH   1  17
HETATM   17  N           1     -35.058  -2.219 -12.437  0.00  0.00    -0.345 N 
HETATM   18  C           1     -36.006  -1.405 -11.877  0.00  0.00     0.251 C 
HETATM   19  O           1     -36.696  -1.813 -10.973  0.00  0.00    -0.271 OA
HETATM   20  H           1     -34.481  -1.877 -13.194  0.00  0.00     0.163 HD
BRANCH  18  21
HETATM   21  C           1     -36.189   0.003 -12.389  0.00  0.00     0.298 C 
BRANCH  21  22
HETATM   22  C           1     -37.254   0.013 -13.478  0.00  0.00     0.224 C 
BRANCH  22  23
HETATM   23  O           1     -36.910  -0.908 -14.478  0.00  0.00    -0.287 OA
BRANCH  23  24
HETATM   24  P           1     -36.286  -0.284 -15.831  0.00  0.00     0.406 P 
HETATM   25  O           1     -37.038  -0.794 -17.000  0.00  0.00    -0.624 OA
HETATM   26  O           1     -34.865  -0.680 -15.947  0.00  0.00    -0.624 OA
BRANCH  24  27
HETATM   27  O           1     -36.395   1.326 -15.783  0.00  0.00    -0.300 OA
HETATM   28  H           1     -37.237   1.501 -15.399  0.00  0.00     0.223 HD
ENDBRANCH  24  27
ENDBRANCH  23  24
ENDBRANCH  22  23
ENDBRANCH  21  22
BRANCH  21  29
HETATM   29  N           1     -34.892   0.501 -12.954  0.00  0.00    -0.064 N 
HETATM   30  H           1     -35.083   1.242 -13.666  0.00  0.00     0.275 HD
HETATM   31  H           1     -34.308   0.901 -12.185  0.00  0.00     0.275 HD
HETATM   32  H           1     -34.381  -0.291 -13.404  0.00  0.00     0.275 HD
ENDBRANCH  21  29
ENDBRANCH  18  21
ENDBRANCH   1  17
TORSDOF 12
ENDMDL
MODEL 4
REMARK VINA RESULT:      -6.5     13.118     14.606
REMARK  12 active torsions:
REMARK  status: ('A' for Active; 'I' for Inactive)
REMARK       I    between atoms: N_1  and  C_2 
REMARK       I    between atoms: C_2  and  N_3 
REMARK    1  A    between atoms: N_4  and  C_5 
REMARK    2  A    between atoms: C_5  and  C_6 
REMARK    3  A    between atoms: C_6  and  C_7 
REMARK    4  A    between atoms: C_7  and  C_8 
REMARK    5  A    between atoms: C_8  and  C_9 
REMARK    6  A    between atoms: C_8  and  N_12 
REMARK       I    between atoms: N_12  and  C_13 
REMARK    7  A    between atoms: C_13  and  C_14 
REMARK    8  A    between atoms: C_14  and  C_15 
REMARK    9  A    between atoms: C_14  and  N_21 
REMARK   10  A    between atoms: C_15  and  O_16 
REMARK   11  A    between atoms: O_16  and  P_17 
REMARK   12  A    between atoms: P_17  and  O_18 
ROOT
HETATM    1  C           1     -21.054  -6.918  -4.688  0.00  0.00     0.185 C 
ENDROOT
BRANCH   1   2
HETATM    2  C           1     -22.158  -6.500  -3.726  0.00  0.00     0.038 C 
BRANCH   2   3
HETATM    3  C           1     -21.540  -6.035  -2.414  0.00  0.00     0.023 C 
BRANCH   3   4
HETATM    4  C           1     -22.340  -6.600  -1.247  0.00  0.00     0.138 C 
BRANCH   4   5
HETATM    5  N           1     -22.093  -8.045  -1.138  0.00  0.00    -0.227 N 
HETATM    6  C           1     -22.677  -8.721  -0.242  0.00  0.00     0.665 C 
HETATM    7  N           1     -22.458  -9.999  -0.145  0.00  0.00    -0.235 N 
HETATM    8  N           1     -23.474  -8.153   0.562  0.00  0.00    -0.235 N 
HETATM    9  H           1     -21.801 -10.469  -0.808  0.00  0.00     0.174 HD
HETATM   10  H           1     -22.941 -10.558   0.595  0.00  0.00     0.174 HD
HETATM   11  H           1     -23.651  -7.121   0.484  0.00  0.00     0.174 HD
HETATM   12  H           1     -23.959  -8.714   1.305  0.00  0.00     0.174 HD
HETATM   13  H           1     -21.432  -8.517  -1.804  0.00  0.00     0.177 HD
ENDBRANCH   4   5
ENDBRANCH   3   4
ENDBRANCH   2   3
ENDBRANCH   1   2
BRANCH   1  14
HETATM   14  C           1     -21.083  -8.416  -4.868  0.00  0.00     0.196 C 
HETATM   15  O           1     -21.148  -8.907  -6.016  0.00  0.00    -0.646 OA
HETATM   16  O           1     -21.040  -9.166  -3.869  0.00  0.00    -0.646 OA
ENDBRANCH   1  14
BRANCH   1  17
HETATM   17  N           1     -21.263  -6.274  -5.971  0.00  0.00    -0.345 N 
HETATM   18  C           1     -20.726  -5.038  -6.212  0.00  0.00     0.251 C 
HETATM   19  O           1     -20.078  -4.484  -5.356  0.00  0.00    -0.271 OA
HETATM   20  H           1     -21.806  -6.738  -6.688  0.00  0.00     0.163 HD
BRANCH  18  21
HETATM   21  C           1     -20.943  -4.369  -7.546  0.00  0.00     0.298 C 
BRANCH  21  22
HETATM   22  C           1     -22.415  -4.461  -7.928  0.00  0.00     0.224 C 
BRANCH  22  23
HETATM   23  O           1     -22.749  -3.390  -8.769  0.00  0.00    -0.287 OA
BRANCH  23  24
HETATM   24  P           1     -23.332  -3.786 -10.222  0.00  0.00     0.406 P 
HETATM   25  O           1     -23.571  -5.245 -10.276  0.00  0.00    -0.624 OA
HETATM   26  O           1     -22.354  -3.406 -11.266  0.00  0.00    -0.624 OA
BRANCH  24  27
HETATM   27  O           1     -24.722  -3.003 -10.476  0.00  0.00    -0.300 OA
HETATM   28  H           1     -24.999  -2.717  -9.623  0.00  0.00     0.223 HD
ENDBRANCH  24  27
ENDBRANCH  23  24
ENDBRANCH  22  23
ENDBRANCH  21  22
BRANCH  21  29
HETATM   29  N           1     -20.112  -5.055  -8.590  0.00  0.00    -0.064 N 
HETATM   30  H           1     -20.714  -5.707  -9.142  0.00  0.00     0.275 HD
HETATM   31  H           1     -19.697  -4.339  -9.230  0.00  0.00     0.275 HD
HETATM   32  H           1     -19.347  -5.595  -8.127  0.00  0.00     0.275 HD
ENDBRANCH  21  29
ENDBRANCH  18  21
ENDBRANCH   1  17
TORSDOF 12
ENDMDL
MODEL 5
REMARK VINA RESULT:      -5.9     14.676     16.446
REMARK  12 active torsions:
REMARK  status: ('A' for Active; 'I' for Inactive)
REMARK       I    between atoms: N_1  and  C_2 
REMARK       I    between atoms: C_2  and  N_3 
REMARK    1  A    between atoms: N_4  and  C_5 
REMARK    2  A    between atoms: C_5  and  C_6 
REMARK    3  A    between atoms: C_6  and  C_7 
REMARK    4  A    between atoms: C_7  and  C_8 
REMARK    5  A    between atoms: C_8  and  C_9 
REMARK    6  A    between atoms: C_8  and  N_12 
REMARK       I    between atoms: N_12  and  C_13 
REMARK    7  A    between atoms: C_13  and  C_14 
REMARK    8  A    between atoms: C_14  and  C_15 
REMARK    9  A    between atoms: C_14  and  N_21 
REMARK   10  A    between atoms: C_15  and  O_16 
REMARK   11  A    between atoms: O_16  and  P_17 
REMARK   12  A    between atoms: P_17  and  O_18 
ROOT
HETATM    1  C           1     -20.788  -6.834  -5.398  0.00  0.00     0.185 C 
ENDROOT
BRANCH   1   2
HETATM    2  C           1     -20.661  -6.137  -6.746  0.00  0.00     0.038 C 
BRANCH   2   3
HETATM    3  C           1     -19.992  -4.781  -6.556  0.00  0.00     0.023 C 
BRANCH   3   4
HETATM    4  C           1     -20.617  -3.768  -7.506  0.00  0.00     0.138 C 
BRANCH   4   5
HETATM    5  N           1     -22.082  -3.856  -7.422  0.00  0.00    -0.227 N 
HETATM    6  C           1     -22.781  -3.807  -8.476  0.00  0.00     0.665 C 
HETATM    7  N           1     -24.076  -3.885  -8.402  0.00  0.00    -0.235 N 
HETATM    8  N           1     -22.218  -3.681  -9.604  0.00  0.00    -0.235 N 
HETATM    9  H           1     -24.542  -3.988  -7.472  0.00  0.00     0.174 HD
HETATM   10  H           1     -24.654  -3.844  -9.273  0.00  0.00     0.174 HD
HETATM   11  H           1     -21.171  -3.618  -9.664  0.00  0.00     0.174 HD
HETATM   12  H           1     -22.797  -3.640 -10.478  0.00  0.00     0.174 HD
HETATM   13  H           1     -22.549  -3.961  -6.488  0.00  0.00     0.177 HD
ENDBRANCH   4   5
ENDBRANCH   3   4
ENDBRANCH   2   3
ENDBRANCH   1   2
BRANCH   1  14
HETATM   14  C           1     -22.011  -6.322  -4.679  0.00  0.00     0.196 C 
HETATM   15  O           1     -22.016  -6.243  -3.431  0.00  0.00    -0.646 OA
HETATM   16  O           1     -23.020  -5.974  -5.330  0.00  0.00    -0.646 OA
ENDBRANCH   1  14
BRANCH   1  17
HETATM   17  N           1     -20.915  -8.264  -5.606  0.00  0.00    -0.345 N 
HETATM   18  C           1     -20.078  -9.128  -4.952  0.00  0.00     0.251 C 
HETATM   19  O           1     -19.234  -8.698  -4.201  0.00  0.00    -0.271 OA
HETATM   20  H           1     -21.621  -8.624  -6.235  0.00  0.00     0.163 HD
BRANCH  18  21
HETATM   21  C           1     -20.210 -10.615  -5.168  0.00  0.00     0.298 C 
BRANCH  21  22
HETATM   22  C           1     -21.028 -11.223  -4.037  0.00  0.00     0.224 C 
BRANCH  22  23
HETATM   23  O           1     -21.921 -10.265  -3.538  0.00  0.00    -0.287 OA
BRANCH  23  24
HETATM   24  P           1     -21.934 -10.076  -1.933  0.00  0.00     0.406 P 
HETATM   25  O           1     -20.739 -10.727  -1.352  0.00  0.00    -0.624 OA
HETATM   26  O           1     -23.156 -10.694  -1.374  0.00  0.00    -0.624 OA
BRANCH  24  27
HETATM   27  O           1     -21.915  -8.501  -1.576  0.00  0.00    -0.300 OA
HETATM   28  H           1     -21.514  -8.087  -2.322  0.00  0.00     0.223 HD
ENDBRANCH  24  27
ENDBRANCH  23  24
ENDBRANCH  22  23
ENDBRANCH  21  22
BRANCH  21  29
HETATM   29  N           1     -18.845 -11.239  -5.189  0.00  0.00    -0.064 N 
HETATM   30  H           1     -18.118 -10.491  -5.124  0.00  0.00     0.275 HD
HETATM   31  H           1     -18.748 -11.890  -4.376  0.00  0.00     0.275 HD
HETATM   32  H           1     -18.719 -11.771  -6.079  0.00  0.00     0.275 HD
ENDBRANCH  21  29
ENDBRANCH  18  21
ENDBRANCH   1  17
TORSDOF 12
ENDMDL
MODEL 6
REMARK VINA RESULT:      -5.9     13.259     14.760
REMARK  12 active torsions:
REMARK  status: ('A' for Active; 'I' for Inactive)
REMARK       I    between atoms: N_1  and  C_2 
REMARK       I    between atoms: C_2  and  N_3 
REMARK    1  A    between atoms: N_4  and  C_5 
REMARK    2  A    between atoms: C_5  and  C_6 
REMARK    3  A    between atoms: C_6  and  C_7 
REMARK    4  A    between atoms: C_7  and  C_8 
REMARK    5  A    between atoms: C_8  and  C_9 
REMARK    6  A    between atoms: C_8  and  N_12 
REMARK       I    between atoms: N_12  and  C_13 
REMARK    7  A    between atoms: C_13  and  C_14 
REMARK    8  A    between atoms: C_14  and  C_15 
REMARK    9  A    between atoms: C_14  and  N_21 
REMARK   10  A    between atoms: C_15  and  O_16 
REMARK   11  A    between atoms: O_16  and  P_17 
REMARK   12  A    between atoms: P_17  and  O_18 
ROOT
HETATM    1  C           1     -21.678  -7.563  -3.906  0.00  0.00     0.185 C 
ENDROOT
BRANCH   1   2
HETATM    2  C           1     -20.845  -8.837  -3.907  0.00  0.00     0.038 C 
BRANCH   2   3
HETATM    3  C           1     -21.755 -10.041  -3.700  0.00  0.00     0.023 C 
BRANCH   3   4
HETATM    4  C           1     -21.623 -10.537  -2.266  0.00  0.00     0.138 C 
BRANCH   4   5
HETATM    5  N           1     -22.683  -9.940  -1.441  0.00  0.00    -0.227 N 
HETATM    6  C           1     -22.415  -9.511  -0.281  0.00  0.00     0.665 C 
HETATM    7  N           1     -23.352  -8.983   0.449  0.00  0.00    -0.235 N 
HETATM    8  N           1     -21.235  -9.597   0.170  0.00  0.00    -0.235 N 
HETATM    9  H           1     -24.327  -8.912   0.078  0.00  0.00     0.174 HD
HETATM   10  H           1     -23.132  -8.629   1.408  0.00  0.00     0.174 HD
HETATM   11  H           1     -20.478 -10.024  -0.420  0.00  0.00     0.174 HD
HETATM   12  H           1     -21.013  -9.242   1.132  0.00  0.00     0.174 HD
HETATM   13  H           1     -23.661  -9.869  -1.814  0.00  0.00     0.177 HD
ENDBRANCH   4   5
ENDBRANCH   3   4
ENDBRANCH   2   3
ENDBRANCH   1   2
BRANCH   1  14
HETATM   14  C           1     -21.514  -6.853  -2.585  0.00  0.00     0.196 C 
HETATM   15  O           1     -22.271  -5.904  -2.286  0.00  0.00    -0.646 OA
HETATM   16  O           1     -20.620  -7.214  -1.789  0.00  0.00    -0.646 OA
ENDBRANCH   1  14
BRANCH   1  17
HETATM   17  N           1     -21.232  -6.694  -4.979  0.00  0.00    -0.345 N 
HETATM   18  C           1     -22.139  -5.936  -5.668  0.00  0.00     0.251 C 
HETATM   19  O           1     -23.312  -5.991  -5.383  0.00  0.00    -0.271 OA
HETATM   20  H           1     -20.250  -6.649  -5.218  0.00  0.00     0.163 HD
BRANCH  18  21
HETATM   21  C           1     -21.675  -5.033  -6.784  0.00  0.00     0.298 C 
BRANCH  21  22
HETATM   22  C           1     -22.885  -4.457  -7.509  0.00  0.00     0.224 C 
BRANCH  22  23
HETATM   23  O           1     -22.455  -3.693  -8.603  0.00  0.00    -0.287 OA
BRANCH  23  24
HETATM   24  P           1     -23.409  -3.723  -9.906  0.00  0.00     0.406 P 
HETATM   25  O           1     -22.695  -3.119 -11.053  0.00  0.00    -0.624 OA
HETATM   26  O           1     -24.643  -2.953  -9.631  0.00  0.00    -0.624 OA
BRANCH  24  27
HETATM   27  O           1     -23.795  -5.251 -10.257  0.00  0.00    -0.300 OA
HETATM   28  H           1     -24.680  -5.354  -9.954  0.00  0.00     0.223 HD
ENDBRANCH  24  27
ENDBRANCH  23  24
ENDBRANCH  22  23
ENDBRANCH  21  22
BRANCH  21  29
HETATM   29  N           1     -20.843  -5.822  -7.752  0.00  0.00    -0.064 N 
HETATM   30  H           1     -20.851  -5.351  -8.685  0.00  0.00     0.275 HD
HETATM   31  H           1     -19.861  -5.879  -7.400  0.00  0.00     0.275 HD
HETATM   32  H           1     -21.237  -6.785  -7.845  0.00  0.00     0.275 HD
ENDBRANCH  21  29
ENDBRANCH  18  21
ENDBRANCH   1  17
TORSDOF 12
ENDMDL
MODEL 7
REMARK VINA RESULT:      -5.8     14.703     16.499
REMARK  12 active torsions:
REMARK  status: ('A' for Active; 'I' for Inactive)
REMARK       I    between atoms: N_1  and  C_2 
REMARK       I    between atoms: C_2  and  N_3 
REMARK    1  A    between atoms: N_4  and  C_5 
REMARK    2  A    between atoms: C_5  and  C_6 
REMARK    3  A    between atoms: C_6  and  C_7 
REMARK    4  A    between atoms: C_7  and  C_8 
REMARK    5  A    between atoms: C_8  and  C_9 
REMARK    6  A    between atoms: C_8  and  N_12 
REMARK       I    between atoms: N_12  and  C_13 
REMARK    7  A    between atoms: C_13  and  C_14 
REMARK    8  A    between atoms: C_14  and  C_15 
REMARK    9  A    between atoms: C_14  and  N_21 
REMARK   10  A    between atoms: C_15  and  O_16 
REMARK   11  A    between atoms: O_16  and  P_17 
REMARK   12  A    between atoms: P_17  and  O_18 
ROOT
HETATM    1  C           1     -20.728  -6.916  -4.632  0.00  0.00     0.185 C 
ENDROOT
BRANCH   1   2
HETATM    2  C           1     -20.373  -6.423  -6.029  0.00  0.00     0.038 C 
BRANCH   2   3
HETATM    3  C           1     -19.955  -4.959  -5.961  0.00  0.00     0.023 C 
BRANCH   3   4
HETATM    4  C           1     -20.485  -4.223  -7.184  0.00  0.00     0.138 C 
BRANCH   4   5
HETATM    5  N           1     -21.954  -4.202  -7.147  0.00  0.00    -0.227 N 
HETATM    6  C           1     -22.613  -4.049  -8.216  0.00  0.00     0.665 C 
HETATM    7  N           1     -23.912  -4.030  -8.183  0.00  0.00    -0.235 N 
HETATM    8  N           1     -22.006  -3.912  -9.320  0.00  0.00    -0.235 N 
HETATM    9  H           1     -24.414  -4.143  -7.273  0.00  0.00     0.174 HD
HETATM   10  H           1     -24.456  -3.903  -9.066  0.00  0.00     0.174 HD
HETATM   11  H           1     -20.957  -3.927  -9.347  0.00  0.00     0.174 HD
HETATM   12  H           1     -22.552  -3.785 -10.207  0.00  0.00     0.174 HD
HETATM   13  H           1     -22.457  -4.315  -6.232  0.00  0.00     0.177 HD
ENDBRANCH   4   5
ENDBRANCH   3   4
ENDBRANCH   2   3
ENDBRANCH   1   2
BRANCH   1  14
HETATM   14  C           1     -22.066  -6.352  -4.223  0.00  0.00     0.196 C 
HETATM   15  O           1     -22.973  -6.216  -5.073  0.00  0.00    -0.646 OA
HETATM   16  O           1     -22.268  -6.021  -3.035  0.00  0.00    -0.646 OA
ENDBRANCH   1  14
BRANCH   1  17
HETATM   17  N           1     -20.796  -8.365  -4.635  0.00  0.00    -0.345 N 
HETATM   18  C           1     -20.469  -9.067  -3.507  0.00  0.00     0.251 C 
HETATM   19  O           1     -20.123  -8.480  -2.508  0.00  0.00    -0.271 OA
HETATM   20  H           1     -21.084  -8.856  -5.471  0.00  0.00     0.163 HD
BRANCH  18  21
HETATM   21  C           1     -20.539 -10.574  -3.509  0.00  0.00     0.298 C 
BRANCH  21  22
HETATM   22  C           1     -19.576 -11.127  -4.552  0.00  0.00     0.224 C 
BRANCH  22  23
HETATM   23  O           1     -18.330 -10.498  -4.417  0.00  0.00    -0.287 OA
BRANCH  23  24
HETATM   24  P           1     -17.538 -10.195  -5.792  0.00  0.00     0.406 P 
HETATM   25  O           1     -18.204  -9.085  -6.510  0.00  0.00    -0.624 OA
HETATM   26  O           1     -17.544 -11.407  -6.642  0.00  0.00    -0.624 OA
BRANCH  24  27
HETATM   27  O           1     -16.014  -9.780  -5.455  0.00  0.00    -0.300 OA
HETATM   28  H           1     -16.033  -9.493  -4.559  0.00  0.00     0.223 HD
ENDBRANCH  24  27
ENDBRANCH  23  24
ENDBRANCH  22  23
ENDBRANCH  21  22
BRANCH  21  29
HETATM   29  N           1     -21.937 -11.008  -3.842  0.00  0.00    -0.064 N 
HETATM   30  H           1     -21.960 -12.045  -3.965  0.00  0.00     0.275 HD
HETATM   31  H           1     -22.580 -10.736  -3.063  0.00  0.00     0.275 HD
HETATM   32  H           1     -22.244 -10.545  -4.726  0.00  0.00     0.275 HD
ENDBRANCH  21  29
ENDBRANCH  18  21
ENDBRANCH   1  17
TORSDOF 12
ENDMDL
MODEL 8
REMARK VINA RESULT:      -5.8      4.259      5.714
REMARK  12 active torsions:
REMARK  status: ('A' for Active; 'I' for Inactive)
REMARK       I    between atoms: N_1  and  C_2 
REMARK       I    between atoms: C_2  and  N_3 
REMARK    1  A    between atoms: N_4  and  C_5 
REMARK    2  A    between atoms: C_5  and  C_6 
REMARK    3  A    between atoms: C_6  and  C_7 
REMARK    4  A    between atoms: C_7  and  C_8 
REMARK    5  A    between atoms: C_8  and  C_9 
REMARK    6  A    between atoms: C_8  and  N_12 
REMARK       I    between atoms: N_12  and  C_13 
REMARK    7  A    between atoms: C_13  and  C_14 
REMARK    8  A    between atoms: C_14  and  C_15 
REMARK    9  A    between atoms: C_14  and  N_21 
REMARK   10  A    between atoms: C_15  and  O_16 
REMARK   11  A    between atoms: O_16  and  P_17 
REMARK   12  A    between atoms: P_17  and  O_18 
ROOT
HETATM    1  C           1     -34.704  -3.492 -12.117  0.00  0.00     0.185 C 
ENDROOT
BRANCH   1   2
HETATM    2  C           1     -33.958  -4.270 -13.193  0.00  0.00     0.038 C 
BRANCH   2   3
HETATM    3  C           1     -34.439  -3.827 -14.568  0.00  0.00     0.023 C 
BRANCH   3   4
HETATM    4  C           1     -34.562  -5.041 -15.479  0.00  0.00     0.138 C 
BRANCH   4   5
HETATM    5  N           1     -35.294  -6.107 -14.780  0.00  0.00    -0.227 N 
HETATM    6  C           1     -35.716  -7.112 -15.423  0.00  0.00     0.665 C 
HETATM    7  N           1     -36.364  -8.055 -14.804  0.00  0.00    -0.235 N 
HETATM    8  N           1     -35.507  -7.200 -16.669  0.00  0.00    -0.235 N 
HETATM    9  H           1     -36.536  -7.983 -13.776  0.00  0.00     0.174 HD
HETATM   10  H           1     -36.712  -8.885 -15.335  0.00  0.00     0.174 HD
HETATM   11  H           1     -34.984  -6.439 -17.168  0.00  0.00     0.174 HD
HETATM   12  H           1     -35.857  -8.034 -17.202  0.00  0.00     0.174 HD
HETATM   13  H           1     -35.468  -6.034 -13.747  0.00  0.00     0.177 HD
ENDBRANCH   4   5
ENDBRANCH   3   4
ENDBRANCH   2   3
ENDBRANCH   1   2
BRANCH   1  14
HETATM   14  C           1     -33.889  -3.478 -10.848  0.00  0.00     0.196 C 
HETATM   15  O           1     -33.339  -2.420 -10.470  0.00  0.00    -0.646 OA
HETATM   16  O           1     -33.763  -4.523 -10.174  0.00  0.00    -0.646 OA
ENDBRANCH   1  14
BRANCH   1  17
HETATM   17  N           1     -34.917  -2.130 -12.569  0.00  0.00    -0.345 N 
HETATM   18  C           1     -35.939  -1.387 -12.042  0.00  0.00     0.251 C 
HETATM   19  O           1     -36.663  -1.866 -11.201  0.00  0.00    -0.271 OA
HETATM   20  H           1     -34.312  -1.730 -13.274  0.00  0.00     0.163 HD
BRANCH  18  21
HETATM   21  C           1     -36.162   0.029 -12.511  0.00  0.00     0.298 C 
BRANCH  21  22
HETATM   22  C           1     -37.123   0.028 -13.693  0.00  0.00     0.224 C 
BRANCH  22  23
HETATM   23  O           1     -36.745  -0.969 -14.602  0.00  0.00    -0.287 OA
BRANCH  23  24
HETATM   24  P           1     -36.211  -0.454 -16.037  0.00  0.00     0.406 P 
HETATM   25  O           1     -37.215  -0.767 -17.078  0.00  0.00    -0.624 OA
HETATM   26  O           1     -34.936  -1.132 -16.360  0.00  0.00    -0.624 OA
BRANCH  24  27
HETATM   27  O           1     -35.973   1.142 -15.982  0.00  0.00    -0.300 OA
HETATM   28  H           1     -35.519   1.293 -15.171  0.00  0.00     0.223 HD
ENDBRANCH  24  27
ENDBRANCH  23  24
ENDBRANCH  22  23
ENDBRANCH  21  22
BRANCH  21  29
HETATM   29  N           1     -34.852   0.627 -12.934  0.00  0.00    -0.064 N 
HETATM   30  H           1     -34.254   0.788 -12.091  0.00  0.00     0.275 HD
HETATM   31  H           1     -34.365  -0.029 -13.585  0.00  0.00     0.275 HD
HETATM   32  H           1     -35.024   1.536 -13.417  0.00  0.00     0.275 HD
ENDBRANCH  21  29
ENDBRANCH  18  21
ENDBRANCH   1  17
TORSDOF 12
ENDMDL
MODEL 9
REMARK VINA RESULT:      -5.7      2.418      4.736
REMARK  12 active torsions:
REMARK  status: ('A' for Active; 'I' for Inactive)
REMARK       I    between atoms: N_1  and  C_2 
REMARK       I    between atoms: C_2  and  N_3 
REMARK    1  A    between atoms: N_4  and  C_5 
REMARK    2  A    between atoms: C_5  and  C_6 
REMARK    3  A    between atoms: C_6  and  C_7 
REMARK    4  A    between atoms: C_7  and  C_8 
REMARK    5  A    between atoms: C_8  and  C_9 
REMARK    6  A    between atoms: C_8  and  N_12 
REMARK       I    between atoms: N_12  and  C_13 
REMARK    7  A    between atoms: C_13  and  C_14 
REMARK    8  A    between atoms: C_14  and  C_15 
REMARK    9  A    between atoms: C_14  and  N_21 
REMARK   10  A    between atoms: C_15  and  O_16 
REMARK   11  A    between atoms: O_16  and  P_17 
REMARK   12  A    between atoms: P_17  and  O_18 
ROOT
HETATM    1  C           1     -33.927  -3.779 -12.787  0.00  0.00     0.185 C 
ENDROOT
BRANCH   1   2
HETATM    2  C           1     -34.886  -2.648 -13.135  0.00  0.00     0.038 C 
BRANCH   2   3
HETATM    3  C           1     -34.573  -1.432 -12.274  0.00  0.00     0.023 C 
BRANCH   3   4
HETATM    4  C           1     -34.899  -0.162 -13.049  0.00  0.00     0.138 C 
BRANCH   4   5
HETATM    5  N           1     -35.412  -0.518 -14.380  0.00  0.00    -0.227 N 
HETATM    6  C           1     -35.711   0.391 -15.207  0.00  0.00     0.665 C 
HETATM    7  N           1     -36.164   0.076 -16.384  0.00  0.00    -0.235 N 
HETATM    8  N           1     -35.568   1.609 -14.889  0.00  0.00    -0.235 N 
HETATM    9  H           1     -36.282  -0.928 -16.647  0.00  0.00     0.174 HD
HETATM   10  H           1     -36.411   0.828 -17.068  0.00  0.00     0.174 HD
HETATM   11  H           1     -35.201   1.863 -13.938  0.00  0.00     0.174 HD
HETATM   12  H           1     -35.815   2.364 -15.575  0.00  0.00     0.174 HD
HETATM   13  H           1     -35.530  -1.527 -14.644  0.00  0.00     0.177 HD
ENDBRANCH   4   5
ENDBRANCH   3   4
ENDBRANCH   2   3
ENDBRANCH   1   2
BRANCH   1  14
HETATM   14  C           1     -34.700  -4.931 -12.194  0.00  0.00     0.196 C 
HETATM   15  O           1     -34.743  -5.082 -10.953  0.00  0.00    -0.646 OA
HETATM   16  O           1     -35.299  -5.733 -12.942  0.00  0.00    -0.646 OA
ENDBRANCH   1  14
BRANCH   1  17
HETATM   17  N           1     -33.248  -4.223 -13.989  0.00  0.00    -0.345 N 
HETATM   18  C           1     -33.751  -3.895 -15.219  0.00  0.00     0.251 C 
HETATM   19  O           1     -34.761  -3.237 -15.304  0.00  0.00    -0.271 OA
HETATM   20  H           1     -32.403  -4.774 -13.919  0.00  0.00     0.163 HD
BRANCH  18  21
HETATM   21  C           1     -33.045  -4.357 -16.470  0.00  0.00     0.298 C 
BRANCH  21  22
HETATM   22  C           1     -31.616  -4.757 -16.129  0.00  0.00     0.224 C 
BRANCH  22  23
HETATM   23  O           1     -30.933  -5.100 -17.305  0.00  0.00    -0.287 OA
BRANCH  23  24
HETATM   24  P           1     -29.585  -4.263 -17.610  0.00  0.00     0.406 P 
HETATM   25  O           1     -28.985  -4.742 -18.876  0.00  0.00    -0.624 OA
HETATM   26  O           1     -28.623  -4.456 -16.502  0.00  0.00    -0.624 OA
BRANCH  24  27
HETATM   27  O           1     -29.945  -2.694 -17.746  0.00  0.00    -0.300 OA
HETATM   28  H           1     -29.709  -2.319 -16.915  0.00  0.00     0.223 HD
ENDBRANCH  24  27
ENDBRANCH  23  24
ENDBRANCH  22  23
ENDBRANCH  21  22
BRANCH  21  29
HETATM   29  N           1     -33.026  -3.241 -17.473  0.00  0.00    -0.064 N 
HETATM   30  H           1     -33.626  -2.456 -17.133  0.00  0.00     0.275 HD
HETATM   31  H           1     -32.045  -2.900 -17.595  0.00  0.00     0.275 HD
HETATM   32  H           1     -33.391  -3.588 -18.388  0.00  0.00     0.275 HD
ENDBRANCH  21  29
ENDBRANCH  18  21
ENDBRANCH   1  17
TORSDOF 12
ENDMDL
