MODEL 1
REMARK VINA RESULT:      -6.4      0.000      0.000
REMARK  10 active torsions:
REMARK  status: ('A' for Active; 'I' for Inactive)
REMARK    1  A    between atoms: C_1  and  C_21 
REMARK    2  A    between atoms: C_1  and  C_2 
REMARK    3  A    between atoms: C_1  and  N_6 
REMARK    4  A    between atoms: C_2  and  C_3 
REMARK    5  A    between atoms: C_3  and  Se_4 
REMARK       I    between atoms: C_10  and  N_11 
REMARK    6  A    between atoms: C_10  and  C_12 
REMARK    7  A    between atoms: C_12  and  C_13 
REMARK    8  A    between atoms: C_13  and  C_14 
REMARK    9  A    between atoms: C_14  and  C_15 
REMARK   10  A    between atoms: C_14  and  N_20 
REMARK       I    between atoms: N_20  and  C_21 
ROOT
HETATM    1  O           1     -33.697  -2.146 -11.161  0.00  0.00    -0.271 OA
HETATM    2  N           1     -34.862  -1.819 -13.037  0.00  0.00    -0.345 N 
HETATM    3  C           1     -34.173  -2.619 -12.165  0.00  0.00     0.249 C 
HETATM    4  H           1     -35.262  -2.214 -13.878  0.00  0.00     0.163 HD
ENDROOT
BRANCH   2   5
HETATM    5  C           1     -35.019  -0.405 -12.755  0.00  0.00     0.186 C 
BRANCH   5   6
HETATM    6  C           1     -35.153   0.361 -14.065  0.00  0.00     0.045 C 
BRANCH   6   7
HETATM    7  C           1     -35.478  -0.611 -15.191  0.00  0.00     0.105 C 
BRANCH   7   8
HETATM    8  C           1     -36.790  -0.222 -15.828  0.00  0.00     0.215 C 
HETATM    9  O           1     -37.090  -0.665 -16.911  0.00  0.00    -0.274 OA
HETATM   10  N           1     -37.639   0.631 -15.178  0.00  0.00    -0.370 N 
HETATM   11  H           1     -37.388   1.002 -14.270  0.00  0.00     0.159 HD
HETATM   12  H           1     -38.519   0.892 -15.605  0.00  0.00     0.159 HD
ENDBRANCH   7   8
ENDBRANCH   6   7
ENDBRANCH   5   6
BRANCH   5  13
HETATM   13  C           1     -36.257  -0.194 -11.918  0.00  0.00     0.196 C 
HETATM   14  O           1     -36.175   0.389 -10.817  0.00  0.00    -0.646 OA
HETATM   15  O           1     -37.365  -0.604 -12.329  0.00  0.00    -0.646 OA
ENDBRANCH   5  13
ENDBRANCH   2   5
BRANCH   3  16
HETATM   16  C           1     -34.010  -4.090 -12.459  0.00  0.00     0.274 C 
BRANCH  16  17
HETATM   17  C           1     -34.782  -4.903 -11.428  0.00  0.00     0.042 C 
BRANCH  17  18
HETATM   18  C           1     -33.911  -6.047 -10.927  0.00  0.00     0.003 C 
BRANCH  18  19
HETATM   19 Se           1     -34.971  -7.219  -9.785  0.00  0.00     0.000 Se
HETATM   20  C           1     -33.790  -8.756  -9.989  0.00  0.00     0.000 C 
ENDBRANCH  18  19
ENDBRANCH  17  18
ENDBRANCH  16  17
BRANCH  16  21
HETATM   21  N           1     -32.556  -4.454 -12.395  0.00  0.00    -0.067 N 
HETATM   22  H           1     -32.361  -4.952 -11.497  0.00  0.00     0.275 HD
HETATM   23  H           1     -32.319  -5.077 -13.199  0.00  0.00     0.275 HD
HETATM   24  H           1     -31.978  -3.585 -12.445  0.00  0.00     0.275 HD
ENDBRANCH  16  21
ENDBRANCH   3  16
TORSDOF 10
ENDMDL
MODEL 2
REMARK VINA RESULT:      -6.4     10.230     11.331
REMARK  10 active torsions:
REMARK  status: ('A' for Active; 'I' for Inactive)
REMARK    1  A    between atoms: C_1  and  C_21 
REMARK    2  A    between atoms: C_1  and  C_2 
REMARK    3  A    between atoms: C_1  and  N_6 
REMARK    4  A    between atoms: C_2  and  C_3 
REMARK    5  A    between atoms: C_3  and  Se_4 
REMARK       I    between atoms: C_10  and  N_11 
REMARK    6  A    between atoms: C_10  and  C_12 
REMARK    7  A    between atoms: C_12  and  C_13 
REMARK    8  A    between atoms: C_13  and  C_14 
REMARK    9  A    between atoms: C_14  and  C_15 
REMARK   10  A    between atoms: C_14  and  N_20 
REMARK       I    between atoms: N_20  and  C_21 
ROOT
HETATM    1  O           1     -26.196  -5.971 -17.281  0.00  0.00    -0.271 OA
HETATM    2  N           1     -27.619  -6.494 -18.920  0.00  0.00    -0.345 N 
HETATM    3  C           1     -26.354  -6.321 -18.426  0.00  0.00     0.249 C 
HETATM    4  H           1     -27.752  -6.788 -19.879  0.00  0.00     0.163 HD
ENDROOT
BRANCH   2   5
HETATM    5  C           1     -28.769  -6.255 -18.069  0.00  0.00     0.186 C 
BRANCH   5   6
HETATM    6  C           1     -29.447  -4.956 -18.485  0.00  0.00     0.045 C 
BRANCH   6   7
HETATM    7  C           1     -29.815  -4.155 -17.243  0.00  0.00     0.105 C 
BRANCH   7   8
HETATM    8  C           1     -31.311  -3.966 -17.191  0.00  0.00     0.215 C 
HETATM    9  O           1     -31.813  -2.979 -17.675  0.00  0.00    -0.274 OA
HETATM   10  N           1     -32.099  -4.913 -16.596  0.00  0.00    -0.370 N 
HETATM   11  H           1     -31.679  -5.740 -16.191  0.00  0.00     0.159 HD
HETATM   12  H           1     -33.103  -4.787 -16.561  0.00  0.00     0.159 HD
ENDBRANCH   7   8
ENDBRANCH   6   7
ENDBRANCH   5   6
BRANCH   5  13
HETATM   13  C           1     -29.743  -7.399 -18.209  0.00  0.00     0.196 C 
HETATM   14  O           1     -30.760  -7.446 -17.485  0.00  0.00    -0.646 OA
HETATM   15  O           1     -29.531  -8.300 -19.049  0.00  0.00    -0.646 OA
ENDBRANCH   5  13
ENDBRANCH   2   5
BRANCH   3  16
HETATM   16  C           1     -25.158  -6.569 -19.312  0.00  0.00     0.274 C 
BRANCH  16  17
HETATM   17  C           1     -25.629  -6.951 -20.708  0.00  0.00     0.042 C 
BRANCH  17  18
HETATM   18  C           1     -24.984  -8.269 -21.119  0.00  0.00     0.003 C 
BRANCH  18  19
HETATM   19 Se           1     -23.671  -7.939 -22.521  0.00  0.00     0.000 Se
HETATM   20  C           1     -22.194  -8.772 -21.559  0.00  0.00     0.000 C 
ENDBRANCH  18  19
ENDBRANCH  17  18
ENDBRANCH  16  17
BRANCH  16  21
HETATM   21  N           1     -24.334  -7.684 -18.739  0.00  0.00    -0.067 N 
HETATM   22  H           1     -24.529  -8.566 -19.264  0.00  0.00     0.275 HD
HETATM   23  H           1     -23.321  -7.446 -18.823  0.00  0.00     0.275 HD
HETATM   24  H           1     -24.580  -7.816 -17.732  0.00  0.00     0.275 HD
ENDBRANCH  16  21
ENDBRANCH   3  16
TORSDOF 10
ENDMDL
MODEL 3
REMARK VINA RESULT:      -6.0     10.817     12.066
REMARK  10 active torsions:
REMARK  status: ('A' for Active; 'I' for Inactive)
REMARK    1  A    between atoms: C_1  and  C_21 
REMARK    2  A    between atoms: C_1  and  C_2 
REMARK    3  A    between atoms: C_1  and  N_6 
REMARK    4  A    between atoms: C_2  and  C_3 
REMARK    5  A    between atoms: C_3  and  Se_4 
REMARK       I    between atoms: C_10  and  N_11 
REMARK    6  A    between atoms: C_10  and  C_12 
REMARK    7  A    between atoms: C_12  and  C_13 
REMARK    8  A    between atoms: C_13  and  C_14 
REMARK    9  A    between atoms: C_14  and  C_15 
REMARK   10  A    between atoms: C_14  and  N_20 
REMARK       I    between atoms: N_20  and  C_21 
ROOT
HETATM    1  O           1     -24.732  -6.456 -18.239  0.00  0.00    -0.271 OA
HETATM    2  N           1     -26.943  -6.475 -17.933  0.00  0.00    -0.345 N 
HETATM    3  C           1     -25.826  -6.691 -18.694  0.00  0.00     0.249 C 
HETATM    4  H           1     -27.860  -6.671 -18.313  0.00  0.00     0.163 HD
ENDROOT
BRANCH   2   5
HETATM    5  C           1     -26.813  -5.963 -16.582  0.00  0.00     0.186 C 
BRANCH   5   6
HETATM    6  C           1     -28.095  -5.240 -16.188  0.00  0.00     0.045 C 
BRANCH   6   7
HETATM    7  C           1     -28.173  -3.908 -16.921  0.00  0.00     0.105 C 
BRANCH   7   8
HETATM    8  C           1     -29.339  -3.928 -17.879  0.00  0.00     0.215 C 
HETATM    9  O           1     -29.372  -4.737 -18.775  0.00  0.00    -0.274 OA
HETATM   10  N           1     -30.360  -3.027 -17.732  0.00  0.00    -0.370 N 
HETATM   11  H           1     -30.332  -2.349 -16.981  0.00  0.00     0.159 HD
HETATM   12  H           1     -31.142  -3.040 -18.374  0.00  0.00     0.159 HD
ENDBRANCH   7   8
ENDBRANCH   6   7
ENDBRANCH   5   6
BRANCH   5  13
HETATM   13  C           1     -26.569  -7.110 -15.632  0.00  0.00     0.196 C 
HETATM   14  O           1     -25.401  -7.478 -15.384  0.00  0.00    -0.646 OA
HETATM   15  O           1     -27.536  -7.693 -15.094  0.00  0.00    -0.646 OA
ENDBRANCH   5  13
ENDBRANCH   2   5
BRANCH   3  16
HETATM   16  C           1     -25.961  -7.223 -20.099  0.00  0.00     0.274 C 
BRANCH  16  17
HETATM   17  C           1     -24.597  -7.667 -20.608  0.00  0.00     0.042 C 
BRANCH  17  18
HETATM   18  C           1     -24.520  -7.449 -22.114  0.00  0.00     0.003 C 
BRANCH  18  19
HETATM   19 Se           1     -23.012  -8.448 -22.839  0.00  0.00     0.000 Se
HETATM   20  C           1     -22.082  -8.600 -21.133  0.00  0.00     0.000 C 
ENDBRANCH  18  19
ENDBRANCH  17  18
ENDBRANCH  16  17
BRANCH  16  21
HETATM   21  N           1     -26.501  -6.145 -20.992  0.00  0.00    -0.067 N 
HETATM   22  H           1     -27.388  -5.769 -20.587  0.00  0.00     0.275 HD
HETATM   23  H           1     -25.800  -5.375 -21.069  0.00  0.00     0.275 HD
HETATM   24  H           1     -26.690  -6.541 -21.940  0.00  0.00     0.275 HD
ENDBRANCH  16  21
ENDBRANCH   3  16
TORSDOF 10
ENDMDL
MODEL 4
REMARK VINA RESULT:      -5.8      3.345      6.971
REMARK  10 active torsions:
REMARK  status: ('A' for Active; 'I' for Inactive)
REMARK    1  A    between atoms: C_1  and  C_21 
REMARK    2  A    between atoms: C_1  and  C_2 
REMARK    3  A    between atoms: C_1  and  N_6 
REMARK    4  A    between atoms: C_2  and  C_3 
REMARK    5  A    between atoms: C_3  and  Se_4 
REMARK       I    between atoms: C_10  and  N_11 
REMARK    6  A    between atoms: C_10  and  C_12 
REMARK    7  A    between atoms: C_12  and  C_13 
REMARK    8  A    between atoms: C_13  and  C_14 
REMARK    9  A    between atoms: C_14  and  C_15 
REMARK   10  A    between atoms: C_14  and  N_20 
REMARK       I    between atoms: N_20  and  C_21 
ROOT
HETATM    1  O           1     -34.381  -1.481 -10.076  0.00  0.00    -0.271 OA
HETATM    2  N           1     -35.405  -3.066 -11.270  0.00  0.00    -0.345 N 
HETATM    3  C           1     -35.338  -1.806 -10.738  0.00  0.00     0.249 C 
HETATM    4  H           1     -36.205  -3.338 -11.825  0.00  0.00     0.163 HD
ENDROOT
BRANCH   2   5
HETATM    5  C           1     -34.328  -4.009 -11.037  0.00  0.00     0.186 C 
BRANCH   5   6
HETATM    6  C           1     -34.906  -5.411 -10.885  0.00  0.00     0.045 C 
BRANCH   6   7
HETATM    7  C           1     -33.771  -6.418 -10.760  0.00  0.00     0.105 C 
BRANCH   7   8
HETATM    8  C           1     -34.307  -7.713 -10.200  0.00  0.00     0.215 C 
HETATM    9  O           1     -35.405  -7.746  -9.698  0.00  0.00    -0.274 OA
HETATM   10  N           1     -33.547  -8.850 -10.261  0.00  0.00    -0.370 N 
HETATM   11  H           1     -32.626  -8.822 -10.681  0.00  0.00     0.159 HD
HETATM   12  H           1     -33.905  -9.719  -9.885  0.00  0.00     0.159 HD
ENDBRANCH   7   8
ENDBRANCH   6   7
ENDBRANCH   5   6
BRANCH   5  13
HETATM   13  C           1     -33.375  -3.981 -12.207  0.00  0.00     0.196 C 
HETATM   14  O           1     -32.149  -4.126 -12.017  0.00  0.00    -0.646 OA
HETATM   15  O           1     -33.813  -3.814 -13.366  0.00  0.00    -0.646 OA
ENDBRANCH   5  13
ENDBRANCH   2   5
BRANCH   3  16
HETATM   16  C           1     -36.458  -0.824 -10.980  0.00  0.00     0.274 C 
BRANCH  16  17
HETATM   17  C           1     -36.459  -0.404 -12.443  0.00  0.00     0.042 C 
BRANCH  17  18
HETATM   18  C           1     -35.141   0.286 -12.774  0.00  0.00     0.003 C 
BRANCH  18  19
HETATM   19 Se           1     -35.171   0.887 -14.628  0.00  0.00     0.000 Se
HETATM   20  C           1     -36.907   0.096 -15.028  0.00  0.00     0.000 C 
ENDBRANCH  18  19
ENDBRANCH  17  18
ENDBRANCH  16  17
BRANCH  16  21
HETATM   21  N           1     -36.259   0.384 -10.113  0.00  0.00    -0.067 N 
HETATM   22  H           1     -35.548   1.012 -10.548  0.00  0.00     0.275 HD
HETATM   23  H           1     -37.165   0.895 -10.018  0.00  0.00     0.275 HD
HETATM   24  H           1     -35.928   0.083  -9.168  0.00  0.00     0.275 HD
ENDBRANCH  16  21
ENDBRANCH   3  16
TORSDOF 10
ENDMDL
MODEL 5
REMARK VINA RESULT:      -5.7     10.096     11.424
REMARK  10 active torsions:
REMARK  status: ('A' for Active; 'I' for Inactive)
REMARK    1  A    between atoms: C_1  and  C_21 
REMARK    2  A    between atoms: C_1  and  C_2 
REMARK    3  A    between atoms: C_1  and  N_6 
REMARK    4  A    between atoms: C_2  and  C_3 
REMARK    5  A    between atoms: C_3  and  Se_4 
REMARK       I    between atoms: C_10  and  N_11 
REMARK    6  A    between atoms: C_10  and  C_12 
REMARK    7  A    between atoms: C_12  and  C_13 
REMARK    8  A    between atoms: C_13  and  C_14 
REMARK    9  A    between atoms: C_14  and  C_15 
REMARK   10  A    between atoms: C_14  and  N_20 
REMARK       I    between atoms: N_20  and  C_21 
ROOT
HETATM    1  O           1     -25.166  -5.563 -15.734  0.00  0.00    -0.271 OA
HETATM    2  N           1     -26.755  -6.306 -17.115  0.00  0.00    -0.345 N 
HETATM    3  C           1     -25.450  -6.212 -16.712  0.00  0.00     0.249 C 
HETATM    4  H           1     -26.994  -6.850 -17.934  0.00  0.00     0.163 HD
ENDROOT
BRANCH   2   5
HETATM    5  C           1     -27.795  -5.625 -16.368  0.00  0.00     0.186 C 
BRANCH   5   6
HETATM    6  C           1     -28.932  -5.249 -17.310  0.00  0.00     0.045 C 
BRANCH   6   7
HETATM    7  C           1     -29.049  -6.297 -18.408  0.00  0.00     0.105 C 
BRANCH   7   8
HETATM    8  C           1     -30.261  -7.160 -18.153  0.00  0.00     0.215 C 
HETATM    9  O           1     -30.409  -8.190 -18.767  0.00  0.00    -0.274 OA
HETATM   10  N           1     -31.192  -6.776 -17.227  0.00  0.00    -0.370 N 
HETATM   11  H           1     -31.068  -5.913 -16.712  0.00  0.00     0.159 HD
HETATM   12  H           1     -32.005  -7.354 -17.055  0.00  0.00     0.159 HD
ENDBRANCH   7   8
ENDBRANCH   6   7
ENDBRANCH   5   6
BRANCH   5  13
HETATM   13  C           1     -28.317  -6.540 -15.287  0.00  0.00     0.196 C 
HETATM   14  O           1     -29.291  -6.189 -14.588  0.00  0.00    -0.646 OA
HETATM   15  O           1     -27.774  -7.650 -15.093  0.00  0.00    -0.646 OA
ENDBRANCH   5  13
ENDBRANCH   2   5
BRANCH   3  16
HETATM   16  C           1     -24.367  -6.920 -17.490  0.00  0.00     0.274 C 
BRANCH  16  17
HETATM   17  C           1     -24.891  -7.285 -18.872  0.00  0.00     0.042 C 
BRANCH  17  18
HETATM   18  C           1     -23.717  -7.520 -19.814  0.00  0.00     0.003 C 
BRANCH  18  19
HETATM   19 Se           1     -24.387  -7.943 -21.595  0.00  0.00     0.000 Se
HETATM   20  C           1     -22.661  -8.533 -22.282  0.00  0.00     0.000 C 
ENDBRANCH  18  19
ENDBRANCH  17  18
ENDBRANCH  16  17
BRANCH  16  21
HETATM   21  N           1     -23.963  -8.167 -16.762  0.00  0.00    -0.067 N 
HETATM   22  H           1     -24.432  -8.993 -17.199  0.00  0.00     0.275 HD
HETATM   23  H           1     -22.927  -8.283 -16.821  0.00  0.00     0.275 HD
HETATM   24  H           1     -24.250  -8.093 -15.760  0.00  0.00     0.275 HD
ENDBRANCH  16  21
ENDBRANCH   3  16
TORSDOF 10
ENDMDL
MODEL 6
REMARK VINA RESULT:      -5.5     14.502     17.440
REMARK  10 active torsions:
REMARK  status: ('A' for Active; 'I' for Inactive)
REMARK    1  A    between atoms: C_1  and  C_21 
REMARK    2  A    between atoms: C_1  and  C_2 
REMARK    3  A    between atoms: C_1  and  N_6 
REMARK    4  A    between atoms: C_2  and  C_3 
REMARK    5  A    between atoms: C_3  and  Se_4 
REMARK       I    between atoms: C_10  and  N_11 
REMARK    6  A    between atoms: C_10  and  C_12 
REMARK    7  A    between atoms: C_12  and  C_13 
REMARK    8  A    between atoms: C_13  and  C_14 
REMARK    9  A    between atoms: C_14  and  C_15 
REMARK   10  A    between atoms: C_14  and  N_20 
REMARK       I    between atoms: N_20  and  C_21 
ROOT
HETATM    1  O           1     -20.057  -4.550  -5.902  0.00  0.00    -0.271 OA
HETATM    2  N           1     -21.496  -6.256  -5.856  0.00  0.00    -0.345 N 
HETATM    3  C           1     -20.936  -5.162  -6.460  0.00  0.00     0.249 C 
HETATM    4  H           1     -22.232  -6.770  -6.323  0.00  0.00     0.163 HD
ENDROOT
BRANCH   2   5
HETATM    5  C           1     -21.035  -6.677  -4.547  0.00  0.00     0.186 C 
BRANCH   5   6
HETATM    6  C           1     -22.222  -6.764  -3.596  0.00  0.00     0.045 C 
BRANCH   6   7
HETATM    7  C           1     -21.858  -6.109  -2.270  0.00  0.00     0.105 C 
BRANCH   7   8
HETATM    8  C           1     -21.981  -7.123  -1.158  0.00  0.00     0.215 C 
HETATM    9  O           1     -22.948  -7.110  -0.433  0.00  0.00    -0.274 OA
HETATM   10  N           1     -20.997  -8.055  -0.971  0.00  0.00    -0.370 N 
HETATM   11  H           1     -20.187  -8.065  -1.578  0.00  0.00     0.159 HD
HETATM   12  H           1     -21.079  -8.735  -0.225  0.00  0.00     0.159 HD
ENDBRANCH   7   8
ENDBRANCH   6   7
ENDBRANCH   5   6
BRANCH   5  13
HETATM   13  C           1     -20.378  -8.031  -4.659  0.00  0.00     0.196 C 
HETATM   14  O           1     -20.495  -8.697  -5.709  0.00  0.00    -0.646 OA
HETATM   15  O           1     -19.717  -8.485  -3.700  0.00  0.00    -0.646 OA
ENDBRANCH   5  13
ENDBRANCH   2   5
BRANCH   3  16
HETATM   16  C           1     -21.415  -4.723  -7.822  0.00  0.00     0.274 C 
BRANCH  16  17
HETATM   17  C           1     -20.268  -4.068  -8.578  0.00  0.00     0.042 C 
BRANCH  17  18
HETATM   18  C           1     -20.215  -4.618  -9.998  0.00  0.00     0.003 C 
BRANCH  18  19
HETATM   19 Se           1     -21.201  -3.431 -11.190  0.00  0.00     0.000 Se
HETATM   20  C           1     -22.776  -4.575 -11.292  0.00  0.00     0.000 C 
ENDBRANCH  18  19
ENDBRANCH  17  18
ENDBRANCH  16  17
BRANCH  16  21
HETATM   21  N           1     -22.537  -3.739  -7.664  0.00  0.00    -0.067 N 
HETATM   22  H           1     -22.811  -3.370  -8.602  0.00  0.00     0.275 HD
HETATM   23  H           1     -23.356  -4.215  -7.222  0.00  0.00     0.275 HD
HETATM   24  H           1     -22.222  -2.949  -7.056  0.00  0.00     0.275 HD
ENDBRANCH  16  21
ENDBRANCH   3  16
TORSDOF 10
ENDMDL
MODEL 7
REMARK VINA RESULT:      -5.5      2.216      3.516
REMARK  10 active torsions:
REMARK  status: ('A' for Active; 'I' for Inactive)
REMARK    1  A    between atoms: C_1  and  C_21 
REMARK    2  A    between atoms: C_1  and  C_2 
REMARK    3  A    between atoms: C_1  and  N_6 
REMARK    4  A    between atoms: C_2  and  C_3 
REMARK    5  A    between atoms: C_3  and  Se_4 
REMARK       I    between atoms: C_10  and  N_11 
REMARK    6  A    between atoms: C_10  and  C_12 
REMARK    7  A    between atoms: C_12  and  C_13 
REMARK    8  A    between atoms: C_13  and  C_14 
REMARK    9  A    between atoms: C_14  and  C_15 
REMARK   10  A    between atoms: C_14  and  N_20 
REMARK       I    between atoms: N_20  and  C_21 
ROOT
HETATM    1  O           1     -34.659  -2.847 -13.355  0.00  0.00    -0.271 OA
HETATM    2  N           1     -35.169  -1.049 -12.133  0.00  0.00    -0.345 N 
HETATM    3  C           1     -34.439  -2.182 -12.370  0.00  0.00     0.249 C 
HETATM    4  H           1     -34.985  -0.492 -11.309  0.00  0.00     0.163 HD
ENDROOT
BRANCH   2   5
HETATM    5  C           1     -36.206  -0.647 -13.064  0.00  0.00     0.186 C 
BRANCH   5   6
HETATM    6  C           1     -37.342   0.021 -12.299  0.00  0.00     0.045 C 
BRANCH   6   7
HETATM    7  C           1     -37.562  -0.707 -10.979  0.00  0.00     0.105 C 
BRANCH   7   8
HETATM    8  C           1     -36.978   0.109  -9.852  0.00  0.00     0.215 C 
HETATM    9  O           1     -35.971  -0.260  -9.297  0.00  0.00    -0.274 OA
HETATM   10  N           1     -37.591   1.268  -9.458  0.00  0.00    -0.370 N 
HETATM   11  H           1     -38.435   1.578  -9.923  0.00  0.00     0.159 HD
HETATM   12  H           1     -37.200   1.816  -8.702  0.00  0.00     0.159 HD
ENDBRANCH   7   8
ENDBRANCH   6   7
ENDBRANCH   5   6
BRANCH   5  13
HETATM   13  C           1     -35.633   0.325 -14.065  0.00  0.00     0.196 C 
HETATM   14  O           1     -34.871   1.239 -13.683  0.00  0.00    -0.646 OA
HETATM   15  O           1     -35.920   0.216 -15.277  0.00  0.00    -0.646 OA
ENDBRANCH   5  13
ENDBRANCH   2   5
BRANCH   3  16
HETATM   16  C           1     -33.360  -2.601 -11.402  0.00  0.00     0.274 C 
BRANCH  16  17
HETATM   17  C           1     -33.029  -4.072 -11.614  0.00  0.00     0.042 C 
BRANCH  17  18
HETATM   18  C           1     -33.745  -4.911 -10.563  0.00  0.00     0.003 C 
BRANCH  18  19
HETATM   19 Se           1     -34.866  -6.240 -11.445  0.00  0.00     0.000 Se
HETATM   20  C           1     -34.852  -7.484  -9.944  0.00  0.00     0.000 C 
ENDBRANCH  18  19
ENDBRANCH  17  18
ENDBRANCH  16  17
BRANCH  16  21
HETATM   21  N           1     -33.842  -2.395  -9.997  0.00  0.00    -0.067 N 
HETATM   22  H           1     -34.884  -2.468  -9.971  0.00  0.00     0.275 HD
HETATM   23  H           1     -33.425  -3.124  -9.376  0.00  0.00     0.275 HD
HETATM   24  H           1     -33.550  -1.447  -9.665  0.00  0.00     0.275 HD
ENDBRANCH  16  21
ENDBRANCH   3  16
TORSDOF 10
ENDMDL
MODEL 8
REMARK VINA RESULT:      -5.4     13.266     15.454
REMARK  10 active torsions:
REMARK  status: ('A' for Active; 'I' for Inactive)
REMARK    1  A    between atoms: C_1  and  C_21 
REMARK    2  A    between atoms: C_1  and  C_2 
REMARK    3  A    between atoms: C_1  and  N_6 
REMARK    4  A    between atoms: C_2  and  C_3 
REMARK    5  A    between atoms: C_3  and  Se_4 
REMARK       I    between atoms: C_10  and  N_11 
REMARK    6  A    between atoms: C_10  and  C_12 
REMARK    7  A    between atoms: C_12  and  C_13 
REMARK    8  A    between atoms: C_13  and  C_14 
REMARK    9  A    between atoms: C_14  and  C_15 
REMARK   10  A    between atoms: C_14  and  N_20 
REMARK       I    between atoms: N_20  and  C_21 
ROOT
HETATM    1  O           1     -20.959  -7.532  -6.441  0.00  0.00    -0.271 OA
HETATM    2  N           1     -21.854  -5.505  -6.168  0.00  0.00    -0.345 N 
HETATM    3  C           1     -21.579  -6.774  -5.733  0.00  0.00     0.249 C 
HETATM    4  H           1     -22.373  -4.869  -5.576  0.00  0.00     0.163 HD
ENDROOT
BRANCH   2   5
HETATM    5  C           1     -21.403  -5.073  -7.477  0.00  0.00     0.186 C 
BRANCH   5   6
HETATM    6  C           1     -22.422  -4.109  -8.072  0.00  0.00     0.045 C 
BRANCH   6   7
HETATM    7  C           1     -22.714  -4.504  -9.513  0.00  0.00     0.105 C 
BRANCH   7   8
HETATM    8  C           1     -24.020  -3.885  -9.950  0.00  0.00     0.215 C 
HETATM    9  O           1     -24.416  -4.046 -11.080  0.00  0.00    -0.274 OA
HETATM   10  N           1     -24.754  -3.142  -9.065  0.00  0.00    -0.370 N 
HETATM   11  H           1     -24.421  -3.007  -8.119  0.00  0.00     0.159 HD
HETATM   12  H           1     -25.630  -2.727  -9.358  0.00  0.00     0.159 HD
ENDBRANCH   7   8
ENDBRANCH   6   7
ENDBRANCH   5   6
BRANCH   5  13
HETATM   13  C           1     -20.070  -4.379  -7.344  0.00  0.00     0.196 C 
HETATM   14  O           1     -19.405  -4.499  -6.293  0.00  0.00    -0.646 OA
HETATM   15  O           1     -19.631  -3.683  -8.286  0.00  0.00    -0.646 OA
ENDBRANCH   5  13
ENDBRANCH   2   5
BRANCH   3  16
HETATM   16  C           1     -22.049  -7.224  -4.372  0.00  0.00     0.274 C 
BRANCH  16  17
HETATM   17  C           1     -21.331  -6.421  -3.296  0.00  0.00     0.042 C 
BRANCH  17  18
HETATM   18  C           1     -22.141  -6.463  -2.006  0.00  0.00     0.003 C 
BRANCH  18  19
HETATM   19 Se           1     -21.430  -7.853  -0.838  0.00  0.00     0.000 Se
HETATM   20  C           1     -23.022  -7.954   0.282  0.00  0.00     0.000 C 
ENDBRANCH  18  19
ENDBRANCH  17  18
ENDBRANCH  16  17
BRANCH  16  21
HETATM   21  N           1     -21.745  -8.682  -4.195  0.00  0.00    -0.067 N 
HETATM   22  H           1     -21.943  -9.190  -5.086  0.00  0.00     0.275 HD
HETATM   23  H           1     -20.737  -8.799  -3.944  0.00  0.00     0.275 HD
HETATM   24  H           1     -22.342  -9.071  -3.431  0.00  0.00     0.275 HD
ENDBRANCH  16  21
ENDBRANCH   3  16
TORSDOF 10
ENDMDL
MODEL 9
REMARK VINA RESULT:      -5.4     13.340     15.507
REMARK  10 active torsions:
REMARK  status: ('A' for Active; 'I' for Inactive)
REMARK    1  A    between atoms: C_1  and  C_21 
REMARK    2  A    between atoms: C_1  and  C_2 
REMARK    3  A    between atoms: C_1  and  N_6 
REMARK    4  A    between atoms: C_2  and  C_3 
REMARK    5  A    between atoms: C_3  and  Se_4 
REMARK       I    between atoms: C_10  and  N_11 
REMARK    6  A    between atoms: C_10  and  C_12 
REMARK    7  A    between atoms: C_12  and  C_13 
REMARK    8  A    between atoms: C_13  and  C_14 
REMARK    9  A    between atoms: C_14  and  C_15 
REMARK   10  A    between atoms: C_14  and  N_20 
REMARK       I    between atoms: N_20  and  C_21 
ROOT
HETATM    1  O           1     -21.208  -7.188  -6.779  0.00  0.00    -0.271 OA
HETATM    2  N           1     -21.370  -4.965  -6.658  0.00  0.00    -0.345 N 
HETATM    3  C           1     -21.202  -6.198  -6.087  0.00  0.00     0.249 C 
HETATM    4  H           1     -21.365  -4.135  -6.079  0.00  0.00     0.163 HD
ENDROOT
BRANCH   2   5
HETATM    5  C           1     -21.555  -4.848  -8.092  0.00  0.00     0.186 C 
BRANCH   5   6
HETATM    6  C           1     -22.516  -3.703  -8.387  0.00  0.00     0.045 C 
BRANCH   6   7
HETATM    7  C           1     -23.829  -4.265  -8.916  0.00  0.00     0.105 C 
BRANCH   7   8
HETATM    8  C           1     -23.936  -3.985 -10.396  0.00  0.00     0.215 C 
HETATM    9  O           1     -24.824  -3.282 -10.814  0.00  0.00    -0.274 OA
HETATM   10  N           1     -23.026  -4.528 -11.262  0.00  0.00    -0.370 N 
HETATM   11  H           1     -22.282  -5.117 -10.911  0.00  0.00     0.159 HD
HETATM   12  H           1     -23.098  -4.340 -12.254  0.00  0.00     0.159 HD
ENDBRANCH   7   8
ENDBRANCH   6   7
ENDBRANCH   5   6
BRANCH   5  13
HETATM   13  C           1     -20.225  -4.571  -8.748  0.00  0.00     0.196 C 
HETATM   14  O           1     -19.234  -4.270  -8.050  0.00  0.00    -0.646 OA
HETATM   15  O           1     -20.115  -4.644  -9.992  0.00  0.00    -0.646 OA
ENDBRANCH   5  13
ENDBRANCH   2   5
BRANCH   3  16
HETATM   16  C           1     -21.010  -6.320  -4.596  0.00  0.00     0.274 C 
BRANCH  16  17
HETATM   17  C           1     -20.458  -7.700  -4.266  0.00  0.00     0.042 C 
BRANCH  17  18
HETATM   18  C           1     -21.055  -8.185  -2.951  0.00  0.00     0.003 C 
BRANCH  18  19
HETATM   19 Se           1     -20.118  -9.790  -2.364  0.00  0.00     0.000 Se
HETATM   20  C           1     -18.440  -9.328  -3.242  0.00  0.00     0.000 C 
ENDBRANCH  18  19
ENDBRANCH  17  18
ENDBRANCH  16  17
BRANCH  16  21
HETATM   21  N           1     -22.327  -6.130  -3.905  0.00  0.00    -0.067 N 
HETATM   22  H           1     -22.340  -5.200  -3.428  0.00  0.00     0.275 HD
HETATM   23  H           1     -23.098  -6.171  -4.609  0.00  0.00     0.275 HD
HETATM   24  H           1     -22.461  -6.887  -3.197  0.00  0.00     0.275 HD
ENDBRANCH  16  21
ENDBRANCH   3  16
TORSDOF 10
ENDMDL
