MODEL 1
REMARK VINA RESULT:      -6.5      0.000      0.000
REMARK  10 active torsions:
REMARK  status: ('A' for Active; 'I' for Inactive)
REMARK    1  A    between atoms: C_1  and  C_5 
REMARK    2  A    between atoms: C_1  and  C_11 
REMARK       I    between atoms: C_3  and  N_12 
REMARK    3  A    between atoms: C_3  and  C_4 
REMARK    4  A    between atoms: C_4  and  C_7 
REMARK    5  A    between atoms: C_4  and  N_24 
REMARK    6  A    between atoms: C_7  and  C_10 
REMARK    7  A    between atoms: C_8  and  C_10 
REMARK    8  A    between atoms: C_8  and  N_17 
REMARK    9  A    between atoms: C_11  and  C_13 
REMARK   10  A    between atoms: C_11  and  N_12 
ROOT
HETATM    1  C           1     -34.204  -2.849 -11.696  0.00  0.00     0.249 C 
HETATM    2  N           1     -35.368  -2.349 -12.217  0.00  0.00    -0.345 N 
HETATM    3  O           1     -33.445  -2.118 -11.107  0.00  0.00    -0.271 OA
HETATM    4  H           1     -36.005  -2.962 -12.711  0.00  0.00     0.163 HD
ENDROOT
BRANCH   1   5
HETATM    5  C           1     -33.873  -4.312 -11.857  0.00  0.00     0.274 C 
BRANCH   5   6
HETATM    6  C           1     -34.168  -5.046 -10.556  0.00  0.00     0.044 C 
BRANCH   6   7
HETATM    7  C           1     -34.065  -6.548 -10.784  0.00  0.00     0.030 C 
BRANCH   7   8
HETATM    8  C           1     -34.926  -7.277  -9.763  0.00  0.00     0.230 C 
BRANCH   8   9
HETATM    9  N           1     -34.309  -8.607  -9.444  0.00  0.00    -0.079 N 
HETATM   10  H           1     -35.021  -9.361  -9.570  0.00  0.00     0.274 HD
HETATM   11  H           1     -33.973  -8.607  -8.454  0.00  0.00     0.274 HD
HETATM   12  H           1     -33.503  -8.779 -10.086  0.00  0.00     0.274 HD
ENDBRANCH   8   9
ENDBRANCH   7   8
ENDBRANCH   6   7
ENDBRANCH   5   6
BRANCH   5  13
HETATM   13  N           1     -32.419  -4.460 -12.196  0.00  0.00    -0.067 N 
HETATM   14  H           1     -32.068  -3.573 -12.621  0.00  0.00     0.275 HD
HETATM   15  H           1     -31.879  -4.667 -11.325  0.00  0.00     0.275 HD
HETATM   16  H           1     -32.299  -5.244 -12.876  0.00  0.00     0.275 HD
ENDBRANCH   5  13
ENDBRANCH   1   5
BRANCH   2  17
HETATM   17  C           1     -35.687  -0.943 -12.063  0.00  0.00     0.185 C 
BRANCH  17  18
HETATM   18  C           1     -36.399  -0.446 -13.314  0.00  0.00     0.040 C 
BRANCH  18  19
HETATM   19  C           1     -35.368   0.022 -14.334  0.00  0.00    -0.020 C 
HETATM   20  C           1     -36.083   0.532 -15.579  0.00  0.00     0.009 C 
HETATM   21  C           1     -34.533   1.144 -13.733  0.00  0.00     0.009 C 
ENDBRANCH  18  19
ENDBRANCH  17  18
BRANCH  17  22
HETATM   22  C           1     -36.586  -0.761 -10.865  0.00  0.00     0.196 C 
HETATM   23  O           1     -37.798  -1.062 -10.942  0.00  0.00    -0.646 OA
HETATM   24  O           1     -36.120  -0.311  -9.796  0.00  0.00    -0.646 OA
ENDBRANCH  17  22
ENDBRANCH   2  17
TORSDOF 10
ENDMDL
MODEL 2
REMARK VINA RESULT:      -6.4     11.060     12.805
REMARK  10 active torsions:
REMARK  status: ('A' for Active; 'I' for Inactive)
REMARK    1  A    between atoms: C_1  and  C_5 
REMARK    2  A    between atoms: C_1  and  C_11 
REMARK       I    between atoms: C_3  and  N_12 
REMARK    3  A    between atoms: C_3  and  C_4 
REMARK    4  A    between atoms: C_4  and  C_7 
REMARK    5  A    between atoms: C_4  and  N_24 
REMARK    6  A    between atoms: C_7  and  C_10 
REMARK    7  A    between atoms: C_8  and  C_10 
REMARK    8  A    between atoms: C_8  and  N_17 
REMARK    9  A    between atoms: C_11  and  C_13 
REMARK   10  A    between atoms: C_11  and  N_12 
ROOT
HETATM    1  C           1     -25.424  -6.863 -18.991  0.00  0.00     0.249 C 
HETATM    2  N           1     -26.550  -6.694 -18.230  0.00  0.00    -0.345 N 
HETATM    3  O           1     -24.363  -6.441 -18.599  0.00  0.00    -0.271 OA
HETATM    4  H           1     -27.440  -7.048 -18.558  0.00  0.00     0.163 HD
ENDROOT
BRANCH   1   5
HETATM    5  C           1     -25.510  -7.576 -20.318  0.00  0.00     0.274 C 
BRANCH   5   6
HETATM    6  C           1     -24.887  -6.708 -21.402  0.00  0.00     0.044 C 
BRANCH   6   7
HETATM    7  C           1     -24.084  -7.583 -22.356  0.00  0.00     0.030 C 
BRANCH   7   8
HETATM    8  C           1     -23.084  -8.413 -21.563  0.00  0.00     0.230 C 
BRANCH   8   9
HETATM    9  N           1     -22.419  -9.403 -22.474  0.00  0.00    -0.079 N 
HETATM   10  H           1     -22.009  -8.901 -23.293  0.00  0.00     0.274 HD
HETATM   11  H           1     -23.126 -10.096 -22.810  0.00  0.00     0.274 HD
HETATM   12  H           1     -21.661  -9.900 -21.955  0.00  0.00     0.274 HD
ENDBRANCH   8   9
ENDBRANCH   7   8
ENDBRANCH   6   7
ENDBRANCH   5   6
BRANCH   5  13
HETATM   13  N           1     -26.949  -7.838 -20.652  0.00  0.00    -0.067 N 
HETATM   14  H           1     -27.425  -6.935 -20.875  0.00  0.00     0.275 HD
HETATM   15  H           1     -27.004  -8.474 -21.479  0.00  0.00     0.275 HD
HETATM   16  H           1     -27.420  -8.286 -19.834  0.00  0.00     0.275 HD
ENDBRANCH   5  13
ENDBRANCH   1   5
BRANCH   2  17
HETATM   17  C           1     -26.468  -6.009 -16.955  0.00  0.00     0.185 C 
BRANCH  17  18
HETATM   18  C           1     -27.765  -5.251 -16.703  0.00  0.00     0.040 C 
BRANCH  18  19
HETATM   19  C           1     -28.805  -5.666 -17.737  0.00  0.00    -0.020 C 
HETATM   20  C           1     -29.932  -6.423 -17.046  0.00  0.00     0.009 C 
HETATM   21  C           1     -29.369  -4.425 -18.415  0.00  0.00     0.009 C 
ENDBRANCH  18  19
ENDBRANCH  17  18
BRANCH  17  22
HETATM   22  C           1     -26.254  -7.019 -15.855  0.00  0.00     0.196 C 
HETATM   23  O           1     -25.093  -7.356 -15.534  0.00  0.00    -0.646 OA
HETATM   24  O           1     -27.236  -7.517 -15.264  0.00  0.00    -0.646 OA
ENDBRANCH  17  22
ENDBRANCH   2  17
TORSDOF 10
ENDMDL
MODEL 3
REMARK VINA RESULT:      -6.4     10.419     11.925
REMARK  10 active torsions:
REMARK  status: ('A' for Active; 'I' for Inactive)
REMARK    1  A    between atoms: C_1  and  C_5 
REMARK    2  A    between atoms: C_1  and  C_11 
REMARK       I    between atoms: C_3  and  N_12 
REMARK    3  A    between atoms: C_3  and  C_4 
REMARK    4  A    between atoms: C_4  and  C_7 
REMARK    5  A    between atoms: C_4  and  N_24 
REMARK    6  A    between atoms: C_7  and  C_10 
REMARK    7  A    between atoms: C_8  and  C_10 
REMARK    8  A    between atoms: C_8  and  N_17 
REMARK    9  A    between atoms: C_11  and  C_13 
REMARK   10  A    between atoms: C_11  and  N_12 
ROOT
HETATM    1  C           1     -26.353  -6.462 -18.376  0.00  0.00     0.249 C 
HETATM    2  N           1     -27.571  -6.772 -18.919  0.00  0.00    -0.345 N 
HETATM    3  O           1     -26.291  -5.959 -17.280  0.00  0.00    -0.271 OA
HETATM    4  H           1     -27.623  -7.195 -19.837  0.00  0.00     0.163 HD
ENDROOT
BRANCH   1   5
HETATM    5  C           1     -25.088  -6.751 -19.147  0.00  0.00     0.274 C 
BRANCH   5   6
HETATM    6  C           1     -25.429  -7.537 -20.405  0.00  0.00     0.044 C 
BRANCH   6   7
HETATM    7  C           1     -24.611  -7.004 -21.575  0.00  0.00     0.030 C 
BRANCH   7   8
HETATM    8  C           1     -23.858  -8.152 -22.232  0.00  0.00     0.230 C 
BRANCH   8   9
HETATM    9  N           1     -22.952  -8.799 -21.226  0.00  0.00    -0.079 N 
HETATM   10  H           1     -21.991  -8.401 -21.315  0.00  0.00     0.274 HD
HETATM   11  H           1     -22.919  -9.830 -21.399  0.00  0.00     0.274 HD
HETATM   12  H           1     -23.316  -8.618 -20.263  0.00  0.00     0.274 HD
ENDBRANCH   8   9
ENDBRANCH   7   8
ENDBRANCH   6   7
ENDBRANCH   5   6
BRANCH   5  13
HETATM   13  N           1     -24.155  -7.557 -18.292  0.00  0.00    -0.067 N 
HETATM   14  H           1     -24.655  -8.398 -17.927  0.00  0.00     0.275 HD
HETATM   15  H           1     -23.334  -7.859 -18.863  0.00  0.00     0.275 HD
HETATM   16  H           1     -23.826  -6.972 -17.490  0.00  0.00     0.275 HD
ENDBRANCH   5  13
ENDBRANCH   1   5
BRANCH   2  17
HETATM   17  C           1     -28.787  -6.495 -18.179  0.00  0.00     0.185 C 
BRANCH  17  18
HETATM   18  C           1     -29.329  -5.132 -18.588  0.00  0.00     0.040 C 
BRANCH  18  19
HETATM   19  C           1     -29.676  -4.328 -17.341  0.00  0.00    -0.020 C 
HETATM   20  C           1     -28.627  -3.245 -17.127  0.00  0.00     0.009 C 
HETATM   21  C           1     -31.043  -3.682 -17.519  0.00  0.00     0.009 C 
ENDBRANCH  18  19
ENDBRANCH  17  18
BRANCH  17  22
HETATM   22  C           1     -29.814  -7.558 -18.484  0.00  0.00     0.196 C 
HETATM   23  O           1     -30.969  -7.463 -18.014  0.00  0.00    -0.646 OA
HETATM   24  O           1     -29.511  -8.530 -19.207  0.00  0.00    -0.646 OA
ENDBRANCH  17  22
ENDBRANCH   2  17
TORSDOF 10
ENDMDL
MODEL 4
REMARK VINA RESULT:      -6.1     11.997     13.529
REMARK  10 active torsions:
REMARK  status: ('A' for Active; 'I' for Inactive)
REMARK    1  A    between atoms: C_1  and  C_5 
REMARK    2  A    between atoms: C_1  and  C_11 
REMARK       I    between atoms: C_3  and  N_12 
REMARK    3  A    between atoms: C_3  and  C_4 
REMARK    4  A    between atoms: C_4  and  C_7 
REMARK    5  A    between atoms: C_4  and  N_24 
REMARK    6  A    between atoms: C_7  and  C_10 
REMARK    7  A    between atoms: C_8  and  C_10 
REMARK    8  A    between atoms: C_8  and  N_17 
REMARK    9  A    between atoms: C_11  and  C_13 
REMARK   10  A    between atoms: C_11  and  N_12 
ROOT
HETATM    1  C           1     -22.316  -4.229  -7.541  0.00  0.00     0.249 C 
HETATM    2  N           1     -23.212  -4.520  -8.536  0.00  0.00    -0.345 N 
HETATM    3  O           1     -21.464  -3.393  -7.723  0.00  0.00    -0.271 OA
HETATM    4  H           1     -23.926  -5.221  -8.384  0.00  0.00     0.163 HD
ENDROOT
BRANCH   1   5
HETATM    5  C           1     -22.395  -4.953  -6.220  0.00  0.00     0.274 C 
BRANCH   5   6
HETATM    6  C           1     -21.491  -6.178  -6.258  0.00  0.00     0.044 C 
BRANCH   6   7
HETATM    7  C           1     -21.741  -7.033  -5.022  0.00  0.00     0.030 C 
BRANCH   7   8
HETATM    8  C           1     -21.173  -6.332  -3.796  0.00  0.00     0.230 C 
BRANCH   8   9
HETATM    9  N           1     -22.270  -6.098  -2.799  0.00  0.00    -0.079 N 
HETATM   10  H           1     -22.745  -7.003  -2.585  0.00  0.00     0.274 HD
HETATM   11  H           1     -22.964  -5.426  -3.197  0.00  0.00     0.274 HD
HETATM   12  H           1     -21.864  -5.702  -1.921  0.00  0.00     0.274 HD
ENDBRANCH   8   9
ENDBRANCH   7   8
ENDBRANCH   6   7
ENDBRANCH   5   6
BRANCH   5  13
HETATM   13  N           1     -23.810  -5.384  -5.969  0.00  0.00    -0.067 N 
HETATM   14  H           1     -23.815  -6.210  -5.330  0.00  0.00     0.275 HD
HETATM   15  H           1     -24.339  -4.598  -5.528  0.00  0.00     0.275 HD
HETATM   16  H           1     -24.260  -5.643  -6.876  0.00  0.00     0.275 HD
ENDBRANCH   5  13
ENDBRANCH   1   5
BRANCH   2  17
HETATM   17  C           1     -23.136  -3.824  -9.805  0.00  0.00     0.185 C 
BRANCH  17  18
HETATM   18  C           1     -22.580  -4.765 -10.866  0.00  0.00     0.040 C 
BRANCH  18  19
HETATM   19  C           1     -21.252  -4.222 -11.381  0.00  0.00    -0.020 C 
HETATM   20  C           1     -21.256  -2.702 -11.288  0.00  0.00     0.009 C 
HETATM   21  C           1     -20.115  -4.780 -10.536  0.00  0.00     0.009 C 
ENDBRANCH  18  19
ENDBRANCH  17  18
BRANCH  17  22
HETATM   22  C           1     -24.517  -3.369 -10.211  0.00  0.00     0.196 C 
HETATM   23  O           1     -24.954  -3.640 -11.351  0.00  0.00    -0.646 OA
HETATM   24  O           1     -25.223  -2.723  -9.407  0.00  0.00    -0.646 OA
ENDBRANCH  17  22
ENDBRANCH   2  17
TORSDOF 10
ENDMDL
MODEL 5
REMARK VINA RESULT:      -5.8      9.791     11.372
REMARK  10 active torsions:
REMARK  status: ('A' for Active; 'I' for Inactive)
REMARK    1  A    between atoms: C_1  and  C_5 
REMARK    2  A    between atoms: C_1  and  C_11 
REMARK       I    between atoms: C_3  and  N_12 
REMARK    3  A    between atoms: C_3  and  C_4 
REMARK    4  A    between atoms: C_4  and  C_7 
REMARK    5  A    between atoms: C_4  and  N_24 
REMARK    6  A    between atoms: C_7  and  C_10 
REMARK    7  A    between atoms: C_8  and  C_10 
REMARK    8  A    between atoms: C_8  and  N_17 
REMARK    9  A    between atoms: C_11  and  C_13 
REMARK   10  A    between atoms: C_11  and  N_12 
ROOT
HETATM    1  C           1     -25.686  -6.201 -16.865  0.00  0.00     0.249 C 
HETATM    2  N           1     -26.950  -6.482 -17.312  0.00  0.00    -0.345 N 
HETATM    3  O           1     -25.528  -5.432 -15.947  0.00  0.00    -0.271 OA
HETATM    4  H           1     -27.082  -7.126 -18.081  0.00  0.00     0.163 HD
ENDROOT
BRANCH   1   5
HETATM    5  C           1     -24.492  -6.853 -17.518  0.00  0.00     0.274 C 
BRANCH   5   6
HETATM    6  C           1     -24.806  -7.137 -18.981  0.00  0.00     0.044 C 
BRANCH   6   7
HETATM    7  C           1     -23.515  -7.449 -19.727  0.00  0.00     0.030 C 
BRANCH   7   8
HETATM    8  C           1     -23.838  -8.216 -21.002  0.00  0.00     0.230 C 
BRANCH   8   9
HETATM    9  N           1     -22.708  -9.148 -21.326  0.00  0.00    -0.079 N 
HETATM   10  H           1     -22.815  -9.499 -22.304  0.00  0.00     0.274 HD
HETATM   11  H           1     -22.722  -9.956 -20.662  0.00  0.00     0.274 HD
HETATM   12  H           1     -21.800  -8.638 -21.237  0.00  0.00     0.274 HD
ENDBRANCH   8   9
ENDBRANCH   7   8
ENDBRANCH   6   7
ENDBRANCH   5   6
BRANCH   5  13
HETATM   13  N           1     -24.180  -8.141 -16.816  0.00  0.00    -0.067 N 
HETATM   14  H           1     -25.058  -8.692 -16.690  0.00  0.00     0.275 HD
HETATM   15  H           1     -23.501  -8.693 -17.387  0.00  0.00     0.275 HD
HETATM   16  H           1     -23.762  -7.934 -15.880  0.00  0.00     0.275 HD
ENDBRANCH   5  13
ENDBRANCH   1   5
BRANCH   2  17
HETATM   17  C           1     -28.097  -5.855 -16.685  0.00  0.00     0.185 C 
BRANCH  17  18
HETATM   18  C           1     -29.295  -5.941 -17.620  0.00  0.00     0.040 C 
BRANCH  18  19
HETATM   19  C           1     -29.874  -4.547 -17.833  0.00  0.00    -0.020 C 
HETATM   20  C           1     -31.183  -4.419 -17.064  0.00  0.00     0.009 C 
HETATM   21  C           1     -28.886  -3.505 -17.331  0.00  0.00     0.009 C 
ENDBRANCH  18  19
ENDBRANCH  17  18
BRANCH  17  22
HETATM   22  C           1     -28.414  -6.568 -15.393  0.00  0.00     0.196 C 
HETATM   23  O           1     -29.210  -6.055 -14.576  0.00  0.00    -0.646 OA
HETATM   24  O           1     -27.882  -7.670 -15.140  0.00  0.00    -0.646 OA
ENDBRANCH  17  22
ENDBRANCH   2  17
TORSDOF 10
ENDMDL
MODEL 6
REMARK VINA RESULT:      -5.7     14.414     16.972
REMARK  10 active torsions:
REMARK  status: ('A' for Active; 'I' for Inactive)
REMARK    1  A    between atoms: C_1  and  C_5 
REMARK    2  A    between atoms: C_1  and  C_11 
REMARK       I    between atoms: C_3  and  N_12 
REMARK    3  A    between atoms: C_3  and  C_4 
REMARK    4  A    between atoms: C_4  and  C_7 
REMARK    5  A    between atoms: C_4  and  N_24 
REMARK    6  A    between atoms: C_7  and  C_10 
REMARK    7  A    between atoms: C_8  and  C_10 
REMARK    8  A    between atoms: C_8  and  N_17 
REMARK    9  A    between atoms: C_11  and  C_13 
REMARK   10  A    between atoms: C_11  and  N_12 
ROOT
HETATM    1  C           1     -20.989  -5.620  -6.372  0.00  0.00     0.249 C 
HETATM    2  N           1     -21.000  -6.971  -6.145  0.00  0.00    -0.345 N 
HETATM    3  O           1     -20.514  -4.874  -5.550  0.00  0.00    -0.271 OA
HETATM    4  H           1     -21.398  -7.596  -6.834  0.00  0.00     0.163 HD
ENDROOT
BRANCH   1   5
HETATM    5  C           1     -21.570  -5.066  -7.650  0.00  0.00     0.274 C 
BRANCH   5   6
HETATM    6  C           1     -20.568  -4.119  -8.295  0.00  0.00     0.044 C 
BRANCH   6   7
HETATM    7  C           1     -20.326  -4.540  -9.739  0.00  0.00     0.030 C 
BRANCH   7   8
HETATM    8  C           1     -21.342  -3.858 -10.644  0.00  0.00     0.230 C 
BRANCH   8   9
HETATM    9  N           1     -20.625  -3.005 -11.649  0.00  0.00    -0.079 N 
HETATM   10  H           1     -21.165  -2.125 -11.808  0.00  0.00     0.274 HD
HETATM   11  H           1     -20.538  -3.528 -12.550  0.00  0.00     0.274 HD
HETATM   12  H           1     -19.673  -2.769 -11.289  0.00  0.00     0.274 HD
ENDBRANCH   8   9
ENDBRANCH   7   8
ENDBRANCH   6   7
ENDBRANCH   5   6
BRANCH   5  13
HETATM   13  N           1     -22.835  -4.320  -7.340  0.00  0.00    -0.067 N 
HETATM   14  H           1     -22.934  -3.515  -7.999  0.00  0.00     0.275 HD
HETATM   15  H           1     -23.652  -4.961  -7.449  0.00  0.00     0.275 HD
HETATM   16  H           1     -22.797  -3.964  -6.359  0.00  0.00     0.275 HD
ENDBRANCH   5  13
ENDBRANCH   1   5
BRANCH   2  17
HETATM   17  C           1     -20.442  -7.504  -4.918  0.00  0.00     0.185 C 
BRANCH  17  18
HETATM   18  C           1     -21.546  -7.645  -3.879  0.00  0.00     0.040 C 
BRANCH  18  19
HETATM   19  C           1     -21.082  -7.041  -2.559  0.00  0.00    -0.020 C 
HETATM   20  C           1     -22.214  -6.225  -1.949  0.00  0.00     0.009 C 
HETATM   21  C           1     -20.689  -8.158  -1.601  0.00  0.00     0.009 C 
ENDBRANCH  18  19
ENDBRANCH  17  18
BRANCH  17  22
HETATM   22  C           1     -19.832  -8.858  -5.191  0.00  0.00     0.196 C 
HETATM   23  O           1     -18.652  -9.091  -4.848  0.00  0.00    -0.646 OA
HETATM   24  O           1     -20.506  -9.744  -5.756  0.00  0.00    -0.646 OA
ENDBRANCH  17  22
ENDBRANCH   2  17
TORSDOF 10
ENDMDL
MODEL 7
REMARK VINA RESULT:      -5.7     10.175     11.896
REMARK  10 active torsions:
REMARK  status: ('A' for Active; 'I' for Inactive)
REMARK    1  A    between atoms: C_1  and  C_5 
REMARK    2  A    between atoms: C_1  and  C_11 
REMARK       I    between atoms: C_3  and  N_12 
REMARK    3  A    between atoms: C_3  and  C_4 
REMARK    4  A    between atoms: C_4  and  C_7 
REMARK    5  A    between atoms: C_4  and  N_24 
REMARK    6  A    between atoms: C_7  and  C_10 
REMARK    7  A    between atoms: C_8  and  C_10 
REMARK    8  A    between atoms: C_8  and  N_17 
REMARK    9  A    between atoms: C_11  and  C_13 
REMARK   10  A    between atoms: C_11  and  N_12 
ROOT
HETATM    1  C           1     -25.249  -6.595 -18.693  0.00  0.00     0.249 C 
HETATM    2  N           1     -26.454  -6.421 -18.066  0.00  0.00    -0.345 N 
HETATM    3  O           1     -24.222  -6.376 -18.097  0.00  0.00    -0.271 OA
HETATM    4  H           1     -27.315  -6.604 -18.566  0.00  0.00     0.163 HD
ENDROOT
BRANCH   1   5
HETATM    5  C           1     -25.206  -7.061 -20.127  0.00  0.00     0.274 C 
BRANCH   5   6
HETATM    6  C           1     -26.625  -7.205 -20.658  0.00  0.00     0.044 C 
BRANCH   6   7
HETATM    7  C           1     -26.780  -8.559 -21.338  0.00  0.00     0.030 C 
BRANCH   7   8
HETATM    8  C           1     -28.188  -9.088 -21.104  0.00  0.00     0.230 C 
BRANCH   8   9
HETATM    9  N           1     -28.749  -8.480 -19.852  0.00  0.00    -0.079 N 
HETATM   10  H           1     -29.538  -7.842 -20.098  0.00  0.00     0.274 HD
HETATM   11  H           1     -28.001  -7.937 -19.363  0.00  0.00     0.274 HD
HETATM   12  H           1     -29.098  -9.238 -19.223  0.00  0.00     0.274 HD
ENDBRANCH   8   9
ENDBRANCH   7   8
ENDBRANCH   6   7
ENDBRANCH   5   6
BRANCH   5  13
HETATM   13  N           1     -24.508  -8.387 -20.201  0.00  0.00    -0.067 N 
HETATM   14  H           1     -24.849  -8.914 -21.035  0.00  0.00     0.275 HD
HETATM   15  H           1     -23.478  -8.234 -20.283  0.00  0.00     0.275 HD
HETATM   16  H           1     -24.712  -8.936 -19.335  0.00  0.00     0.275 HD
ENDBRANCH   5  13
ENDBRANCH   1   5
BRANCH   2  17
HETATM   17  C           1     -26.496  -5.972 -16.688  0.00  0.00     0.185 C 
BRANCH  17  18
HETATM   18  C           1     -27.826  -5.279 -16.421  0.00  0.00     0.040 C 
BRANCH  18  19
HETATM   19  C           1     -28.775  -5.534 -17.586  0.00  0.00    -0.020 C 
HETATM   20  C           1     -29.947  -6.381 -17.108  0.00  0.00     0.009 C 
HETATM   21  C           1     -29.293  -4.205 -18.119  0.00  0.00     0.009 C 
ENDBRANCH  18  19
ENDBRANCH  17  18
BRANCH  17  22
HETATM   22  C           1     -26.356  -7.161 -15.769  0.00  0.00     0.196 C 
HETATM   23  O           1     -25.219  -7.596 -15.480  0.00  0.00    -0.646 OA
HETATM   24  O           1     -27.374  -7.709 -15.296  0.00  0.00    -0.646 OA
ENDBRANCH  17  22
ENDBRANCH   2  17
TORSDOF 10
ENDMDL
MODEL 8
REMARK VINA RESULT:      -5.7     13.846     16.423
REMARK  10 active torsions:
REMARK  status: ('A' for Active; 'I' for Inactive)
REMARK    1  A    between atoms: C_1  and  C_5 
REMARK    2  A    between atoms: C_1  and  C_11 
REMARK       I    between atoms: C_3  and  N_12 
REMARK    3  A    between atoms: C_3  and  C_4 
REMARK    4  A    between atoms: C_4  and  C_7 
REMARK    5  A    between atoms: C_4  and  N_24 
REMARK    6  A    between atoms: C_7  and  C_10 
REMARK    7  A    between atoms: C_8  and  C_10 
REMARK    8  A    between atoms: C_8  and  N_17 
REMARK    9  A    between atoms: C_11  and  C_13 
REMARK   10  A    between atoms: C_11  and  N_12 
ROOT
HETATM    1  C           1     -20.604  -4.838  -6.152  0.00  0.00     0.249 C 
HETATM    2  N           1     -21.140  -6.089  -6.001  0.00  0.00    -0.345 N 
HETATM    3  O           1     -19.725  -4.465  -5.414  0.00  0.00    -0.271 OA
HETATM    4  H           1     -21.877  -6.402  -6.620  0.00  0.00     0.163 HD
ENDROOT
BRANCH   1   5
HETATM    5  C           1     -21.113  -3.926  -7.242  0.00  0.00     0.274 C 
BRANCH   5   6
HETATM    6  C           1     -22.494  -4.387  -7.686  0.00  0.00     0.044 C 
BRANCH   6   7
HETATM    7  C           1     -22.520  -4.530  -9.203  0.00  0.00     0.030 C 
BRANCH   7   8
HETATM    8  C           1     -23.955  -4.419  -9.699  0.00  0.00     0.230 C 
BRANCH   8   9
HETATM    9  N           1     -24.619  -3.238  -9.054  0.00  0.00    -0.079 N 
HETATM   10  H           1     -25.645  -3.269  -9.243  0.00  0.00     0.274 HD
HETATM   11  H           1     -24.218  -2.356  -9.449  0.00  0.00     0.274 HD
HETATM   12  H           1     -24.453  -3.265  -8.023  0.00  0.00     0.274 HD
ENDBRANCH   8   9
ENDBRANCH   7   8
ENDBRANCH   6   7
ENDBRANCH   5   6
BRANCH   5  13
HETATM   13  N           1     -20.172  -3.970  -8.410  0.00  0.00    -0.067 N 
HETATM   14  H           1     -19.603  -3.095  -8.432  0.00  0.00     0.275 HD
HETATM   15  H           1     -19.538  -4.796  -8.315  0.00  0.00     0.275 HD
HETATM   16  H           1     -20.721  -4.051  -9.295  0.00  0.00     0.275 HD
ENDBRANCH   5  13
ENDBRANCH   1   5
BRANCH   2  17
HETATM   17  C           1     -20.652  -6.965  -4.954  0.00  0.00     0.185 C 
BRANCH  17  18
HETATM   18  C           1     -21.735  -7.145  -3.899  0.00  0.00     0.040 C 
BRANCH  18  19
HETATM   19  C           1     -21.176  -6.781  -2.529  0.00  0.00    -0.020 C 
HETATM   20  C           1     -22.310  -6.309  -1.628  0.00  0.00     0.009 C 
HETATM   21  C           1     -20.512  -8.003  -1.911  0.00  0.00     0.009 C 
ENDBRANCH  18  19
ENDBRANCH  17  18
BRANCH  17  22
HETATM   22  C           1     -20.298  -8.307  -5.546  0.00  0.00     0.196 C 
HETATM   23  O           1     -19.103  -8.588  -5.785  0.00  0.00    -0.646 OA
HETATM   24  O           1     -21.198  -9.136  -5.797  0.00  0.00    -0.646 OA
ENDBRANCH  17  22
ENDBRANCH   2  17
TORSDOF 10
ENDMDL
MODEL 9
REMARK VINA RESULT:      -5.6     14.313     16.902
REMARK  10 active torsions:
REMARK  status: ('A' for Active; 'I' for Inactive)
REMARK    1  A    between atoms: C_1  and  C_5 
REMARK    2  A    between atoms: C_1  and  C_11 
REMARK       I    between atoms: C_3  and  N_12 
REMARK    3  A    between atoms: C_3  and  C_4 
REMARK    4  A    between atoms: C_4  and  C_7 
REMARK    5  A    between atoms: C_4  and  N_24 
REMARK    6  A    between atoms: C_7  and  C_10 
REMARK    7  A    between atoms: C_8  and  C_10 
REMARK    8  A    between atoms: C_8  and  N_17 
REMARK    9  A    between atoms: C_11  and  C_13 
REMARK   10  A    between atoms: C_11  and  N_12 
ROOT
HETATM    1  C           1     -21.353  -5.917  -5.474  0.00  0.00     0.249 C 
HETATM    2  N           1     -20.780  -6.773  -4.572  0.00  0.00    -0.345 N 
HETATM    3  O           1     -22.555  -5.816  -5.530  0.00  0.00    -0.271 OA
HETATM    4  H           1     -19.772  -6.857  -4.526  0.00  0.00     0.163 HD
ENDROOT
BRANCH   1   5
HETATM    5  C           1     -20.483  -5.099  -6.397  0.00  0.00     0.274 C 
BRANCH   5   6
HETATM    6  C           1     -21.300  -3.959  -6.988  0.00  0.00     0.044 C 
BRANCH   6   7
HETATM    7  C           1     -21.352  -4.101  -8.504  0.00  0.00     0.030 C 
BRANCH   7   8
HETATM    8  C           1     -22.802  -4.079  -8.966  0.00  0.00     0.230 C 
BRANCH   8   9
HETATM    9  N           1     -23.710  -4.143  -7.773  0.00  0.00    -0.079 N 
HETATM   10  H           1     -23.622  -3.262  -7.220  0.00  0.00     0.274 HD
HETATM   11  H           1     -23.441  -4.958  -7.175  0.00  0.00     0.274 HD
HETATM   12  H           1     -24.698  -4.256  -8.093  0.00  0.00     0.274 HD
ENDBRANCH   8   9
ENDBRANCH   7   8
ENDBRANCH   6   7
ENDBRANCH   5   6
BRANCH   5  13
HETATM   13  N           1     -19.971  -5.973  -7.505  0.00  0.00    -0.067 N 
HETATM   14  H           1     -18.982  -6.243  -7.306  0.00  0.00     0.275 HD
HETATM   15  H           1     -20.561  -6.833  -7.570  0.00  0.00     0.275 HD
HETATM   16  H           1     -20.015  -5.449  -8.408  0.00  0.00     0.275 HD
ENDBRANCH   5  13
ENDBRANCH   1   5
BRANCH   2  17
HETATM   17  C           1     -21.616  -7.559  -3.686  0.00  0.00     0.185 C 
BRANCH  17  18
HETATM   18  C           1     -21.035  -8.960  -3.553  0.00  0.00     0.040 C 
BRANCH  18  19
HETATM   19  C           1     -19.626  -8.984  -4.134  0.00  0.00    -0.020 C 
HETATM   20  C           1     -18.629  -9.318  -3.032  0.00  0.00     0.009 C 
HETATM   21  C           1     -19.547 -10.040  -5.227  0.00  0.00     0.009 C 
ENDBRANCH  18  19
ENDBRANCH  17  18
BRANCH  17  22
HETATM   22  C           1     -21.663  -6.902  -2.328  0.00  0.00     0.196 C 
HETATM   23  O           1     -21.085  -7.435  -1.356  0.00  0.00    -0.646 OA
HETATM   24  O           1     -22.279  -5.825  -2.176  0.00  0.00    -0.646 OA
ENDBRANCH  17  22
ENDBRANCH   2  17
TORSDOF 10
ENDMDL
