MODEL 1
REMARK VINA RESULT:      -8.2      0.000      0.000
REMARK  8 active torsions:
REMARK  status: ('A' for Active; 'I' for Inactive)
REMARK    1  A    between atoms: C_3  and  C_12 
REMARK    2  A    between atoms: C_3  and  C_20 
REMARK    3  A    between atoms: C_9  and  C_11 
REMARK    4  A    between atoms: C_10  and  C_14 
REMARK    5  A    between atoms: C_10  and  C_11 
REMARK    6  A    between atoms: C_11  and  N_22 
REMARK    7  A    between atoms: C_12  and  C_13 
REMARK    8  A    between atoms: C_12  and  N_16 
REMARK       I    between atoms: C_13  and  N_22 
ROOT
HETATM    1  C           1     -21.187  -5.807  -6.961  0.00  0.00     0.278 C 
ENDROOT
BRANCH   1   2
HETATM    2  C           1     -21.057  -5.558  -5.464  0.00  0.00     0.083 C 
BRANCH   2   3
HETATM    3  C           1     -21.150  -6.859  -4.731  0.00  0.00    -0.028 A 
HETATM    4  C           1     -21.528  -7.031  -3.370  0.00  0.00    -0.002 A 
HETATM    5  C           1     -21.480  -8.398  -3.099  0.00  0.00     0.042 A 
HETATM    6  C           1     -21.906  -6.149  -2.340  0.00  0.00     0.014 A 
HETATM    7  C           1     -21.794  -8.931  -1.844  0.00  0.00     0.030 A 
HETATM    8  N           1     -21.087  -9.027  -4.259  0.00  0.00    -0.365 N 
HETATM    9  C           1     -22.168  -8.036  -0.837  0.00  0.00     0.002 A 
HETATM   10  C           1     -22.224  -6.665  -1.079  0.00  0.00     0.001 A 
HETATM   11  C           1     -20.884  -8.105  -5.253  0.00  0.00     0.096 A 
HETATM   12  H           1     -20.960 -10.064  -4.368  0.00  0.00     0.165 HD
ENDBRANCH   2   3
ENDBRANCH   1   2
BRANCH   1  13
HETATM   13  C           1     -21.782  -4.589  -7.624  0.00  0.00     0.249 C 
HETATM   14  O           1     -21.670  -3.503  -7.107  0.00  0.00    -0.271 OA
HETATM   15  N           1     -22.449  -4.715  -8.813  0.00  0.00    -0.344 N 
HETATM   16  H           1     -22.543  -5.624  -9.247  0.00  0.00     0.163 HD
BRANCH  15  17
HETATM   17  C           1     -23.020  -3.545  -9.451  0.00  0.00     0.195 C 
BRANCH  17  18
HETATM   18  C           1     -24.369  -3.897 -10.032  0.00  0.00     0.197 C 
HETATM   19  O           1     -24.920  -3.125 -10.846  0.00  0.00    -0.646 OA
HETATM   20  O           1     -24.934  -4.960  -9.698  0.00  0.00    -0.646 OA
ENDBRANCH  17  18
BRANCH  17  21
HETATM   21  C           1     -22.097  -3.071 -10.566  0.00  0.00     0.149 C 
BRANCH  21  22
HETATM   22  C           1     -21.432  -4.263 -11.210  0.00  0.00     0.175 C 
HETATM   23  O           1     -20.276  -4.595 -10.867  0.00  0.00    -0.648 OA
HETATM   24  O           1     -22.036  -4.918 -12.086  0.00  0.00    -0.648 OA
ENDBRANCH  21  22
ENDBRANCH  17  21
ENDBRANCH  15  17
ENDBRANCH   1  13
BRANCH   1  25
HETATM   25  N           1     -19.831  -6.079  -7.541  0.00  0.00    -0.066 N 
HETATM   26  H           1     -19.926  -6.717  -8.363  0.00  0.00     0.275 HD
HETATM   27  H           1     -19.226  -6.530  -6.818  0.00  0.00     0.275 HD
HETATM   28  H           1     -19.395  -5.179  -7.846  0.00  0.00     0.275 HD
ENDBRANCH   1  25
TORSDOF 8
ENDMDL
MODEL 2
REMARK VINA RESULT:      -7.5      3.705      7.978
REMARK  8 active torsions:
REMARK  status: ('A' for Active; 'I' for Inactive)
REMARK    1  A    between atoms: C_3  and  C_12 
REMARK    2  A    between atoms: C_3  and  C_20 
REMARK    3  A    between atoms: C_9  and  C_11 
REMARK    4  A    between atoms: C_10  and  C_14 
REMARK    5  A    between atoms: C_10  and  C_11 
REMARK    6  A    between atoms: C_11  and  N_22 
REMARK    7  A    between atoms: C_12  and  C_13 
REMARK    8  A    between atoms: C_12  and  N_16 
REMARK       I    between atoms: C_13  and  N_22 
ROOT
HETATM    1  C           1     -21.514  -6.331  -5.484  0.00  0.00     0.278 C 
ENDROOT
BRANCH   1   2
HETATM    2  C           1     -20.965  -5.079  -6.152  0.00  0.00     0.083 C 
BRANCH   2   3
HETATM    3  C           1     -21.878  -4.664  -7.264  0.00  0.00    -0.028 A 
HETATM    4  C           1     -21.509  -4.466  -8.623  0.00  0.00    -0.002 A 
HETATM    5  C           1     -22.661  -4.085  -9.311  0.00  0.00     0.042 A 
HETATM    6  C           1     -20.299  -4.574  -9.336  0.00  0.00     0.014 A 
HETATM    7  C           1     -22.665  -3.807 -10.682  0.00  0.00     0.030 A 
HETATM    8  N           1     -23.688  -4.056  -8.394  0.00  0.00    -0.365 N 
HETATM    9  C           1     -21.453  -3.922 -11.369  0.00  0.00     0.002 A 
HETATM   10  C           1     -20.286  -4.300 -10.708  0.00  0.00     0.001 A 
HETATM   11  C           1     -23.225  -4.404  -7.152  0.00  0.00     0.096 A 
HETATM   12  H           1     -24.683  -3.803  -8.614  0.00  0.00     0.165 HD
ENDBRANCH   2   3
ENDBRANCH   1   2
BRANCH   1  13
HETATM   13  C           1     -20.446  -7.397  -5.456  0.00  0.00     0.249 C 
HETATM   14  O           1     -19.573  -7.400  -6.290  0.00  0.00    -0.271 OA
HETATM   15  N           1     -20.467  -8.361  -4.484  0.00  0.00    -0.344 N 
HETATM   16  H           1     -21.198  -8.359  -3.784  0.00  0.00     0.163 HD
BRANCH  15  17
HETATM   17  C           1     -19.440  -9.385  -4.457  0.00  0.00     0.195 C 
BRANCH  17  18
HETATM   18  C           1     -19.911 -10.589  -5.236  0.00  0.00     0.197 C 
HETATM   19  O           1     -20.828 -11.307  -4.784  0.00  0.00    -0.646 OA
HETATM   20  O           1     -19.383 -10.867  -6.334  0.00  0.00    -0.646 OA
ENDBRANCH  17  18
BRANCH  17  21
HETATM   21  C           1     -19.165  -9.791  -3.014  0.00  0.00     0.149 C 
BRANCH  21  22
HETATM   22  C           1     -20.186  -9.150  -2.107  0.00  0.00     0.175 C 
HETATM   23  O           1     -21.235  -9.764  -1.815  0.00  0.00    -0.648 OA
HETATM   24  O           1     -19.984  -8.005  -1.648  0.00  0.00    -0.648 OA
ENDBRANCH  21  22
ENDBRANCH  17  21
ENDBRANCH  15  17
ENDBRANCH   1  13
BRANCH   1  25
HETATM   25  N           1     -21.932  -6.006  -4.081  0.00  0.00    -0.066 N 
HETATM   26  H           1     -22.169  -6.889  -3.574  0.00  0.00     0.275 HD
HETATM   27  H           1     -22.770  -5.382  -4.102  0.00  0.00     0.275 HD
HETATM   28  H           1     -21.149  -5.520  -3.588  0.00  0.00     0.275 HD
ENDBRANCH   1  25
TORSDOF 8
ENDMDL
MODEL 3
REMARK VINA RESULT:      -7.4      3.785      8.047
REMARK  8 active torsions:
REMARK  status: ('A' for Active; 'I' for Inactive)
REMARK    1  A    between atoms: C_3  and  C_12 
REMARK    2  A    between atoms: C_3  and  C_20 
REMARK    3  A    between atoms: C_9  and  C_11 
REMARK    4  A    between atoms: C_10  and  C_14 
REMARK    5  A    between atoms: C_10  and  C_11 
REMARK    6  A    between atoms: C_11  and  N_22 
REMARK    7  A    between atoms: C_12  and  C_13 
REMARK    8  A    between atoms: C_12  and  N_16 
REMARK       I    between atoms: C_13  and  N_22 
ROOT
HETATM    1  C           1     -21.663  -6.477  -5.447  0.00  0.00     0.278 C 
ENDROOT
BRANCH   1   2
HETATM    2  C           1     -20.920  -5.153  -5.554  0.00  0.00     0.083 C 
BRANCH   2   3
HETATM    3  C           1     -20.686  -4.826  -6.996  0.00  0.00    -0.028 A 
HETATM    4  C           1     -21.676  -4.443  -7.942  0.00  0.00    -0.002 A 
HETATM    5  C           1     -21.025  -4.235  -9.158  0.00  0.00     0.042 A 
HETATM    6  C           1     -23.070  -4.253  -7.879  0.00  0.00     0.014 A 
HETATM    7  C           1     -21.701  -3.845 -10.320  0.00  0.00     0.030 A 
HETATM    8  N           1     -19.688  -4.485  -8.949  0.00  0.00    -0.365 N 
HETATM    9  C           1     -23.084  -3.662 -10.233  0.00  0.00     0.002 A 
HETATM   10  C           1     -23.761  -3.862  -9.031  0.00  0.00     0.001 A 
HETATM   11  C           1     -19.471  -4.844  -7.644  0.00  0.00     0.096 A 
HETATM   12  H           1     -18.940  -4.412  -9.683  0.00  0.00     0.165 HD
ENDBRANCH   2   3
ENDBRANCH   1   2
BRANCH   1  13
HETATM   13  C           1     -20.931  -7.390  -4.494  0.00  0.00     0.249 C 
HETATM   14  O           1     -19.823  -7.785  -4.767  0.00  0.00    -0.271 OA
HETATM   15  N           1     -21.523  -7.769  -3.319  0.00  0.00    -0.344 N 
HETATM   16  H           1     -22.451  -7.438  -3.090  0.00  0.00     0.163 HD
BRANCH  15  17
HETATM   17  C           1     -20.819  -8.645  -2.403  0.00  0.00     0.195 C 
BRANCH  17  18
HETATM   18  C           1     -21.507  -9.989  -2.365  0.00  0.00     0.197 C 
HETATM   19  O           1     -22.285 -10.319  -3.285  0.00  0.00    -0.646 OA
HETATM   20  O           1     -21.298 -10.770  -1.412  0.00  0.00    -0.646 OA
ENDBRANCH  17  18
BRANCH  17  21
HETATM   21  C           1     -20.825  -8.033  -1.008  0.00  0.00     0.149 C 
BRANCH  21  22
HETATM   22  C           1     -22.189  -7.460  -0.715  0.00  0.00     0.175 C 
HETATM   23  O           1     -23.015  -8.121  -0.047  0.00  0.00    -0.648 OA
HETATM   24  O           1     -22.495  -6.325  -1.141  0.00  0.00    -0.648 OA
ENDBRANCH  21  22
ENDBRANCH  17  21
ENDBRANCH  15  17
ENDBRANCH   1  13
BRANCH   1  25
HETATM   25  N           1     -23.052  -6.231  -4.936  0.00  0.00    -0.066 N 
HETATM   26  H           1     -23.705  -6.120  -5.743  0.00  0.00     0.275 HD
HETATM   27  H           1     -23.061  -5.362  -4.357  0.00  0.00     0.275 HD
HETATM   28  H           1     -23.356  -7.042  -4.350  0.00  0.00     0.275 HD
ENDBRANCH   1  25
TORSDOF 8
ENDMDL
MODEL 4
REMARK VINA RESULT:      -7.3      3.289      7.816
REMARK  8 active torsions:
REMARK  status: ('A' for Active; 'I' for Inactive)
REMARK    1  A    between atoms: C_3  and  C_12 
REMARK    2  A    between atoms: C_3  and  C_20 
REMARK    3  A    between atoms: C_9  and  C_11 
REMARK    4  A    between atoms: C_10  and  C_14 
REMARK    5  A    between atoms: C_10  and  C_11 
REMARK    6  A    between atoms: C_11  and  N_22 
REMARK    7  A    between atoms: C_12  and  C_13 
REMARK    8  A    between atoms: C_12  and  N_16 
REMARK       I    between atoms: C_13  and  N_22 
ROOT
HETATM    1  C           1     -21.180  -5.159  -5.448  0.00  0.00     0.278 C 
ENDROOT
BRANCH   1   2
HETATM    2  C           1     -20.989  -5.682  -6.865  0.00  0.00     0.083 C 
BRANCH   2   3
HETATM    3  C           1     -21.813  -4.869  -7.814  0.00  0.00    -0.028 A 
HETATM    4  C           1     -21.425  -4.454  -9.118  0.00  0.00    -0.002 A 
HETATM    5  C           1     -22.487  -3.720  -9.648  0.00  0.00     0.042 A 
HETATM    6  C           1     -20.269  -4.633  -9.900  0.00  0.00     0.014 A 
HETATM    7  C           1     -22.450  -3.155 -10.928  0.00  0.00     0.030 A 
HETATM    8  N           1     -23.478  -3.696  -8.693  0.00  0.00    -0.365 N 
HETATM    9  C           1     -21.291  -3.346 -11.686  0.00  0.00     0.002 A 
HETATM   10  C           1     -20.215  -4.075 -11.182  0.00  0.00     0.001 A 
HETATM   11  C           1     -23.081  -4.387  -7.579  0.00  0.00     0.096 A 
HETATM   12  H           1     -24.406  -3.216  -8.802  0.00  0.00     0.165 HD
ENDBRANCH   2   3
ENDBRANCH   1   2
BRANCH   1  13
HETATM   13  C           1     -21.758  -6.251  -4.582  0.00  0.00     0.249 C 
HETATM   14  O           1     -22.915  -6.575  -4.709  0.00  0.00    -0.271 OA
HETATM   15  N           1     -20.971  -6.875  -3.651  0.00  0.00    -0.344 N 
HETATM   16  H           1     -20.003  -6.605  -3.544  0.00  0.00     0.163 HD
BRANCH  15  17
HETATM   17  C           1     -21.528  -7.924  -2.819  0.00  0.00     0.195 C 
BRANCH  17  18
HETATM   18  C           1     -21.766  -7.389  -1.428  0.00  0.00     0.197 C 
HETATM   19  O           1     -21.159  -7.885  -0.454  0.00  0.00    -0.646 OA
HETATM   20  O           1     -22.571  -6.449  -1.250  0.00  0.00    -0.646 OA
ENDBRANCH  17  18
BRANCH  17  21
HETATM   21  C           1     -20.551  -9.092  -2.752  0.00  0.00     0.149 C 
BRANCH  21  22
HETATM   22  C           1     -19.827  -9.218  -4.070  0.00  0.00     0.175 C 
HETATM   23  O           1     -18.598  -8.994  -4.132  0.00  0.00    -0.648 OA
HETATM   24  O           1     -20.455  -9.547  -5.099  0.00  0.00    -0.648 OA
ENDBRANCH  21  22
ENDBRANCH  17  21
ENDBRANCH  15  17
ENDBRANCH   1  13
BRANCH   1  25
HETATM   25  N           1     -19.855  -4.729  -4.892  0.00  0.00    -0.066 N 
HETATM   26  H           1     -19.524  -3.878  -5.399  0.00  0.00     0.275 HD
HETATM   27  H           1     -19.159  -5.499  -5.014  0.00  0.00     0.275 HD
HETATM   28  H           1     -19.958  -4.512  -3.875  0.00  0.00     0.275 HD
ENDBRANCH   1  25
TORSDOF 8
ENDMDL
MODEL 5
REMARK VINA RESULT:      -7.2      1.420      2.546
REMARK  8 active torsions:
REMARK  status: ('A' for Active; 'I' for Inactive)
REMARK    1  A    between atoms: C_3  and  C_12 
REMARK    2  A    between atoms: C_3  and  C_20 
REMARK    3  A    between atoms: C_9  and  C_11 
REMARK    4  A    between atoms: C_10  and  C_14 
REMARK    5  A    between atoms: C_10  and  C_11 
REMARK    6  A    between atoms: C_11  and  N_22 
REMARK    7  A    between atoms: C_12  and  C_13 
REMARK    8  A    between atoms: C_12  and  N_16 
REMARK       I    between atoms: C_13  and  N_22 
ROOT
HETATM    1  C           1     -20.505  -5.724  -5.381  0.00  0.00     0.278 C 
ENDROOT
BRANCH   1   2
HETATM    2  C           1     -21.650  -6.117  -4.458  0.00  0.00     0.083 C 
BRANCH   2   3
HETATM    3  C           1     -21.241  -7.292  -3.625  0.00  0.00    -0.028 A 
HETATM    4  C           1     -21.578  -7.511  -2.261  0.00  0.00    -0.002 A 
HETATM    5  C           1     -20.993  -8.720  -1.883  0.00  0.00     0.042 A 
HETATM    6  C           1     -22.327  -6.794  -1.310  0.00  0.00     0.014 A 
HETATM    7  C           1     -21.120  -9.249  -0.594  0.00  0.00     0.030 A 
HETATM    8  N           1     -20.327  -9.209  -2.984  0.00  0.00    -0.365 N 
HETATM    9  C           1     -21.869  -8.520   0.334  0.00  0.00     0.002 A 
HETATM   10  C           1     -22.465  -7.310  -0.016  0.00  0.00     0.001 A 
HETATM   11  C           1     -20.470  -8.352  -4.044  0.00  0.00     0.096 A 
HETATM   12  H           1     -19.786 -10.109  -3.009  0.00  0.00     0.165 HD
ENDBRANCH   2   3
ENDBRANCH   1   2
BRANCH   1  13
HETATM   13  C           1     -20.984  -5.739  -6.812  0.00  0.00     0.249 C 
HETATM   14  O           1     -20.842  -6.730  -7.488  0.00  0.00    -0.271 OA
HETATM   15  N           1     -21.581  -4.628  -7.345  0.00  0.00    -0.344 N 
HETATM   16  H           1     -21.701  -3.797  -6.781  0.00  0.00     0.163 HD
BRANCH  15  17
HETATM   17  C           1     -22.042  -4.642  -8.720  0.00  0.00     0.195 C 
BRANCH  17  18
HETATM   18  C           1     -20.898  -4.284  -9.637  0.00  0.00     0.197 C 
HETATM   19  O           1     -19.895  -3.691  -9.184  0.00  0.00    -0.646 OA
HETATM   20  O           1     -20.953  -4.581 -10.850  0.00  0.00    -0.646 OA
ENDBRANCH  17  18
BRANCH  17  21
HETATM   21  C           1     -23.165  -3.626  -8.891  0.00  0.00     0.149 C 
BRANCH  21  22
HETATM   22  C           1     -24.116  -4.102  -9.962  0.00  0.00     0.175 C 
HETATM   23  O           1     -24.093  -5.296 -10.332  0.00  0.00    -0.648 OA
HETATM   24  O           1     -24.925  -3.302 -10.480  0.00  0.00    -0.648 OA
ENDBRANCH  21  22
ENDBRANCH  17  21
ENDBRANCH  15  17
ENDBRANCH   1  13
BRANCH   1  25
HETATM   25  N           1     -20.029  -4.346  -5.028  0.00  0.00    -0.066 N 
HETATM   26  H           1     -19.720  -3.852  -5.895  0.00  0.00     0.275 HD
HETATM   27  H           1     -19.227  -4.415  -4.362  0.00  0.00     0.275 HD
HETATM   28  H           1     -20.808  -3.813  -4.580  0.00  0.00     0.275 HD
ENDBRANCH   1  25
TORSDOF 8
ENDMDL
MODEL 6
REMARK VINA RESULT:      -7.2      3.936      7.769
REMARK  8 active torsions:
REMARK  status: ('A' for Active; 'I' for Inactive)
REMARK    1  A    between atoms: C_3  and  C_12 
REMARK    2  A    between atoms: C_3  and  C_20 
REMARK    3  A    between atoms: C_9  and  C_11 
REMARK    4  A    between atoms: C_10  and  C_14 
REMARK    5  A    between atoms: C_10  and  C_11 
REMARK    6  A    between atoms: C_11  and  N_22 
REMARK    7  A    between atoms: C_12  and  C_13 
REMARK    8  A    between atoms: C_12  and  N_16 
REMARK       I    between atoms: C_13  and  N_22 
ROOT
HETATM    1  C           1     -21.459  -6.214  -5.395  0.00  0.00     0.278 C 
ENDROOT
BRANCH   1   2
HETATM    2  C           1     -20.929  -4.990  -6.128  0.00  0.00     0.083 C 
BRANCH   2   3
HETATM    3  C           1     -21.852  -4.642  -7.254  0.00  0.00    -0.028 A 
HETATM    4  C           1     -21.493  -4.510  -8.624  0.00  0.00    -0.002 A 
HETATM    5  C           1     -22.653  -4.178  -9.323  0.00  0.00     0.042 A 
HETATM    6  C           1     -20.286  -4.641  -9.337  0.00  0.00     0.014 A 
HETATM    7  C           1     -22.667  -3.971 -10.707  0.00  0.00     0.030 A 
HETATM    8  N           1     -23.675  -4.113  -8.403  0.00  0.00    -0.365 N 
HETATM    9  C           1     -21.457  -4.107 -11.395  0.00  0.00     0.002 A 
HETATM   10  C           1     -20.283  -4.437 -10.722  0.00  0.00     0.001 A 
HETATM   11  C           1     -23.202  -4.392  -7.148  0.00  0.00     0.096 A 
HETATM   12  H           1     -24.675  -3.883  -8.630  0.00  0.00     0.165 HD
ENDBRANCH   2   3
ENDBRANCH   1   2
BRANCH   1  13
HETATM   13  C           1     -20.497  -7.363  -5.571  0.00  0.00     0.249 C 
HETATM   14  O           1     -19.576  -7.267  -6.347  0.00  0.00    -0.271 OA
HETATM   15  N           1     -20.668  -8.515  -4.851  0.00  0.00    -0.344 N 
HETATM   16  H           1     -21.438  -8.597  -4.201  0.00  0.00     0.163 HD
BRANCH  15  17
HETATM   17  C           1     -19.743  -9.619  -5.020  0.00  0.00     0.195 C 
BRANCH  17  18
HETATM   18  C           1     -20.511 -10.869  -5.374  0.00  0.00     0.197 C 
HETATM   19  O           1     -20.857 -11.076  -6.558  0.00  0.00    -0.646 OA
HETATM   20  O           1     -20.802 -11.697  -4.484  0.00  0.00    -0.646 OA
ENDBRANCH  17  18
BRANCH  17  21
HETATM   21  C           1     -18.978  -9.845  -3.722  0.00  0.00     0.149 C 
BRANCH  21  22
HETATM   22  C           1     -17.498  -9.689  -3.976  0.00  0.00     0.175 C 
HETATM   23  O           1     -17.062  -9.684  -5.147  0.00  0.00    -0.648 OA
HETATM   24  O           1     -16.709  -9.566  -3.014  0.00  0.00    -0.648 OA
ENDBRANCH  21  22
ENDBRANCH  17  21
ENDBRANCH  15  17
ENDBRANCH   1  13
BRANCH   1  25
HETATM   25  N           1     -21.600  -5.900  -3.935  0.00  0.00    -0.066 N 
HETATM   26  H           1     -20.777  -5.339  -3.619  0.00  0.00     0.275 HD
HETATM   27  H           1     -21.646  -6.790  -3.390  0.00  0.00     0.275 HD
HETATM   28  H           1     -22.476  -5.351  -3.780  0.00  0.00     0.275 HD
ENDBRANCH   1  25
TORSDOF 8
ENDMDL
MODEL 7
REMARK VINA RESULT:      -7.1      3.164      7.468
REMARK  8 active torsions:
REMARK  status: ('A' for Active; 'I' for Inactive)
REMARK    1  A    between atoms: C_3  and  C_12 
REMARK    2  A    between atoms: C_3  and  C_20 
REMARK    3  A    between atoms: C_9  and  C_11 
REMARK    4  A    between atoms: C_10  and  C_14 
REMARK    5  A    between atoms: C_10  and  C_11 
REMARK    6  A    between atoms: C_11  and  N_22 
REMARK    7  A    between atoms: C_12  and  C_13 
REMARK    8  A    between atoms: C_12  and  N_16 
REMARK       I    between atoms: C_13  and  N_22 
ROOT
HETATM    1  C           1     -20.245  -5.407  -6.077  0.00  0.00     0.278 C 
ENDROOT
BRANCH   1   2
HETATM    2  C           1     -20.871  -4.138  -6.638  0.00  0.00     0.083 C 
BRANCH   2   3
HETATM    3  C           1     -20.887  -4.208  -8.134  0.00  0.00    -0.028 A 
HETATM    4  C           1     -22.043  -4.313  -8.956  0.00  0.00    -0.002 A 
HETATM    5  C           1     -21.604  -4.349 -10.280  0.00  0.00     0.042 A 
HETATM    6  C           1     -23.425  -4.382  -8.699  0.00  0.00     0.014 A 
HETATM    7  C           1     -22.482  -4.451 -11.365  0.00  0.00     0.030 A 
HETATM    8  N           1     -20.230  -4.269 -10.252  0.00  0.00    -0.365 N 
HETATM    9  C           1     -23.850  -4.517 -11.085  0.00  0.00     0.002 A 
HETATM   10  C           1     -24.318  -4.483  -9.773  0.00  0.00     0.001 A 
HETATM   11  C           1     -19.786  -4.183  -8.958  0.00  0.00     0.096 A 
HETATM   12  H           1     -19.610  -4.272 -11.100  0.00  0.00     0.165 HD
ENDBRANCH   2   3
ENDBRANCH   1   2
BRANCH   1  13
HETATM   13  C           1     -21.238  -6.104  -5.179  0.00  0.00     0.249 C 
HETATM   14  O           1     -22.414  -5.840  -5.258  0.00  0.00    -0.271 OA
HETATM   15  N           1     -20.806  -7.038  -4.276  0.00  0.00    -0.344 N 
HETATM   16  H           1     -19.821  -7.260  -4.209  0.00  0.00     0.163 HD
BRANCH  15  17
HETATM   17  C           1     -21.760  -7.708  -3.414  0.00  0.00     0.195 C 
BRANCH  17  18
HETATM   18  C           1     -21.545  -7.265  -1.987  0.00  0.00     0.197 C 
HETATM   19  O           1     -20.680  -7.828  -1.281  0.00  0.00    -0.646 OA
HETATM   20  O           1     -22.233  -6.337  -1.510  0.00  0.00    -0.646 OA
ENDBRANCH  17  18
BRANCH  17  21
HETATM   21  C           1     -21.563  -9.215  -3.512  0.00  0.00     0.149 C 
BRANCH  21  22
HETATM   22  C           1     -20.481  -9.517  -4.520  0.00  0.00     0.175 C 
HETATM   23  O           1     -20.774  -9.664  -5.726  0.00  0.00    -0.648 OA
HETATM   24  O           1     -19.292  -9.622  -4.148  0.00  0.00    -0.648 OA
ENDBRANCH  21  22
ENDBRANCH  17  21
ENDBRANCH  15  17
ENDBRANCH   1  13
BRANCH   1  25
HETATM   25  N           1     -19.866  -6.319  -7.206  0.00  0.00    -0.066 N 
HETATM   26  H           1     -20.731  -6.671  -7.675  0.00  0.00     0.275 HD
HETATM   27  H           1     -19.318  -7.127  -6.832  0.00  0.00     0.275 HD
HETATM   28  H           1     -19.283  -5.794  -7.897  0.00  0.00     0.275 HD
ENDBRANCH   1  25
TORSDOF 8
ENDMDL
MODEL 8
REMARK VINA RESULT:      -6.9      1.528      2.363
REMARK  8 active torsions:
REMARK  status: ('A' for Active; 'I' for Inactive)
REMARK    1  A    between atoms: C_3  and  C_12 
REMARK    2  A    between atoms: C_3  and  C_20 
REMARK    3  A    between atoms: C_9  and  C_11 
REMARK    4  A    between atoms: C_10  and  C_14 
REMARK    5  A    between atoms: C_10  and  C_11 
REMARK    6  A    between atoms: C_11  and  N_22 
REMARK    7  A    between atoms: C_12  and  C_13 
REMARK    8  A    between atoms: C_12  and  N_16 
REMARK       I    between atoms: C_13  and  N_22 
ROOT
HETATM    1  C           1     -20.733  -5.314  -6.420  0.00  0.00     0.278 C 
ENDROOT
BRANCH   1   2
HETATM    2  C           1     -21.975  -5.930  -5.791  0.00  0.00     0.083 C 
BRANCH   2   3
HETATM    3  C           1     -21.611  -6.564  -4.484  0.00  0.00    -0.028 A 
HETATM    4  C           1     -20.644  -7.589  -4.289  0.00  0.00    -0.002 A 
HETATM    5  C           1     -20.626  -7.883  -2.926  0.00  0.00     0.042 A 
HETATM    6  C           1     -19.780  -8.296  -5.146  0.00  0.00     0.014 A 
HETATM    7  C           1     -19.783  -8.854  -2.374  0.00  0.00     0.030 A 
HETATM    8  N           1     -21.552  -7.062  -2.323  0.00  0.00    -0.365 N 
HETATM    9  C           1     -18.933  -9.543  -3.244  0.00  0.00     0.002 A 
HETATM   10  C           1     -18.930  -9.270  -4.610  0.00  0.00     0.001 A 
HETATM   11  C           1     -22.154  -6.260  -3.257  0.00  0.00     0.096 A 
HETATM   12  H           1     -21.767  -7.051  -1.294  0.00  0.00     0.165 HD
ENDBRANCH   2   3
ENDBRANCH   1   2
BRANCH   1  13
HETATM   13  C           1     -21.134  -4.483  -7.615  0.00  0.00     0.249 C 
HETATM   14  O           1     -20.396  -3.620  -8.026  0.00  0.00    -0.271 OA
HETATM   15  N           1     -22.334  -4.709  -8.233  0.00  0.00    -0.344 N 
HETATM   16  H           1     -22.953  -5.431  -7.890  0.00  0.00     0.163 HD
BRANCH  15  17
HETATM   17  C           1     -22.719  -3.910  -9.382  0.00  0.00     0.195 C 
BRANCH  17  18
HETATM   18  C           1     -24.224  -3.883  -9.493  0.00  0.00     0.197 C 
HETATM   19  O           1     -24.852  -4.935  -9.736  0.00  0.00    -0.646 OA
HETATM   20  O           1     -24.842  -2.807  -9.342  0.00  0.00    -0.646 OA
ENDBRANCH  17  18
BRANCH  17  21
HETATM   21  C           1     -22.128  -4.521 -10.646  0.00  0.00     0.149 C 
BRANCH  21  22
HETATM   22  C           1     -21.240  -3.509 -11.327  0.00  0.00     0.175 C 
HETATM   23  O           1     -21.723  -2.435 -11.745  0.00  0.00    -0.648 OA
HETATM   24  O           1     -20.021  -3.746 -11.473  0.00  0.00    -0.648 OA
ENDBRANCH  21  22
ENDBRANCH  17  21
ENDBRANCH  15  17
ENDBRANCH   1  13
BRANCH   1  25
HETATM   25  N           1     -20.044  -4.441  -5.414  0.00  0.00    -0.066 N 
HETATM   26  H           1     -19.109  -4.156  -5.783  0.00  0.00     0.275 HD
HETATM   27  H           1     -19.920  -4.970  -4.521  0.00  0.00     0.275 HD
HETATM   28  H           1     -20.624  -3.590  -5.235  0.00  0.00     0.275 HD
ENDBRANCH   1  25
TORSDOF 8
ENDMDL
MODEL 9
REMARK VINA RESULT:      -6.9      4.061      7.696
REMARK  8 active torsions:
REMARK  status: ('A' for Active; 'I' for Inactive)
REMARK    1  A    between atoms: C_3  and  C_12 
REMARK    2  A    between atoms: C_3  and  C_20 
REMARK    3  A    between atoms: C_9  and  C_11 
REMARK    4  A    between atoms: C_10  and  C_14 
REMARK    5  A    between atoms: C_10  and  C_11 
REMARK    6  A    between atoms: C_11  and  N_22 
REMARK    7  A    between atoms: C_12  and  C_13 
REMARK    8  A    between atoms: C_12  and  N_16 
REMARK       I    between atoms: C_13  and  N_22 
ROOT
HETATM    1  C           1     -21.648  -6.815  -5.692  0.00  0.00     0.278 C 
ENDROOT
BRANCH   1   2
HETATM    2  C           1     -20.867  -5.642  -6.269  0.00  0.00     0.083 C 
BRANCH   2   3
HETATM    3  C           1     -21.701  -4.944  -7.298  0.00  0.00    -0.028 A 
HETATM    4  C           1     -21.307  -4.636  -8.630  0.00  0.00    -0.002 A 
HETATM    5  C           1     -22.382  -3.987  -9.237  0.00  0.00     0.042 A 
HETATM    6  C           1     -20.133  -4.848  -9.377  0.00  0.00     0.014 A 
HETATM    7  C           1     -22.342  -3.538 -10.561  0.00  0.00     0.030 A 
HETATM    8  N           1     -23.388  -3.909  -8.300  0.00  0.00    -0.365 N 
HETATM    9  C           1     -21.167  -3.759 -11.285  0.00  0.00     0.002 A 
HETATM   10  C           1     -20.077  -4.405 -10.704  0.00  0.00     0.001 A 
HETATM   11  C           1     -22.986  -4.484  -7.123  0.00  0.00     0.096 A 
HETATM   12  H           1     -24.329  -3.470  -8.464  0.00  0.00     0.165 HD
ENDBRANCH   2   3
ENDBRANCH   1   2
BRANCH   1  13
HETATM   13  C           1     -20.700  -7.749  -4.979  0.00  0.00     0.249 C 
HETATM   14  O           1     -20.352  -7.508  -3.847  0.00  0.00    -0.271 OA
HETATM   15  N           1     -20.237  -8.869  -5.614  0.00  0.00    -0.344 N 
HETATM   16  H           1     -20.528  -9.072  -6.561  0.00  0.00     0.163 HD
BRANCH  15  17
HETATM   17  C           1     -19.327  -9.766  -4.928  0.00  0.00     0.195 C 
BRANCH  17  18
HETATM   18  C           1     -17.956  -9.665  -5.552  0.00  0.00     0.197 C 
HETATM   19  O           1     -16.974 -10.200  -4.994  0.00  0.00    -0.646 OA
HETATM   20  O           1     -17.803  -9.047  -6.628  0.00  0.00    -0.646 OA
ENDBRANCH  17  18
BRANCH  17  21
HETATM   21  C           1     -19.835 -11.197  -5.050  0.00  0.00     0.149 C 
BRANCH  21  22
HETATM   22  C           1     -20.367 -11.425  -6.444  0.00  0.00     0.175 C 
HETATM   23  O           1     -19.616 -11.881  -7.333  0.00  0.00    -0.648 OA
HETATM   24  O           1     -21.559 -11.158  -6.709  0.00  0.00    -0.648 OA
ENDBRANCH  21  22
ENDBRANCH  17  21
ENDBRANCH  15  17
ENDBRANCH   1  13
BRANCH   1  25
HETATM   25  N           1     -22.671  -6.304  -4.722  0.00  0.00    -0.066 N 
HETATM   26  H           1     -23.338  -5.673  -5.220  0.00  0.00     0.275 HD
HETATM   27  H           1     -22.194  -5.775  -3.958  0.00  0.00     0.275 HD
HETATM   28  H           1     -23.195  -7.111  -4.312  0.00  0.00     0.275 HD
ENDBRANCH   1  25
TORSDOF 8
ENDMDL
