MODEL 1
REMARK VINA RESULT:      -6.4      0.000      0.000
REMARK  7 active torsions:
REMARK  status: ('A' for Active; 'I' for Inactive)
REMARK    1  A    between atoms: C_1  and  C_2 
REMARK    2  A    between atoms: C_1  and  C_11 
REMARK    3  A    between atoms: C_1  and  N_6 
REMARK       I    between atoms: C_2  and  N_19 
REMARK    4  A    between atoms: C_4  and  C_17 
REMARK    5  A    between atoms: C_4  and  C_9 
REMARK    6  A    between atoms: C_7  and  C_9 
REMARK    7  A    between atoms: C_9  and  N_19 
ROOT
HETATM    1  C           1     -34.499  -2.413 -11.942  0.00  0.00     0.249 C 
HETATM    2  H           1     -36.070  -2.092 -13.250  0.00  0.00     0.163 HD
HETATM    3  N           1     -35.463  -1.665 -12.561  0.00  0.00    -0.344 N 
HETATM    4  O           1     -33.775  -1.904 -11.119  0.00  0.00    -0.271 OA
ENDROOT
BRANCH   1   5
HETATM    5  C           1     -34.338  -3.873 -12.288  0.00  0.00     0.278 C 
BRANCH   5   6
HETATM    6  C           1     -33.317  -4.508 -11.353  0.00  0.00     0.017 C 
HETATM    7  C           1     -32.019  -4.753 -12.111  0.00  0.00     0.012 C 
HETATM    8  C           1     -33.858  -5.832 -10.832  0.00  0.00     0.012 C 
ENDBRANCH   5   6
BRANCH   5   9
HETATM    9  N           1     -33.862  -4.001 -13.705  0.00  0.00    -0.066 N 
HETATM   10  H           1     -33.645  -3.052 -14.087  0.00  0.00     0.275 HD
HETATM   11  H           1     -32.998  -4.590 -13.730  0.00  0.00     0.275 HD
HETATM   12  H           1     -34.607  -4.448 -14.285  0.00  0.00     0.275 HD
ENDBRANCH   5   9
ENDBRANCH   1   5
BRANCH   3  13
HETATM   13  C           1     -35.618  -0.263 -12.228  0.00  0.00     0.189 C 
BRANCH  13  14
HETATM   14  C           1     -35.878   0.535 -13.499  0.00  0.00     0.014 C 
HETATM   15  C           1     -34.611   1.278 -13.901  0.00  0.00     0.012 C 
BRANCH  14  16
HETATM   16  C           1     -36.286  -0.414 -14.618  0.00  0.00     0.002 C 
HETATM   17  C           1     -37.524   0.131 -15.319  0.00  0.00     0.005 C 
ENDBRANCH  14  16
ENDBRANCH  13  14
BRANCH  13  18
HETATM   18  C           1     -36.782  -0.095 -11.283  0.00  0.00     0.197 C 
HETATM   19  O           1     -36.681   0.668 -10.297  0.00  0.00    -0.646 OA
HETATM   20  O           1     -37.846  -0.719 -11.483  0.00  0.00    -0.646 OA
ENDBRANCH  13  18
ENDBRANCH   3  13
TORSDOF 7
ENDMDL
MODEL 2
REMARK VINA RESULT:      -5.8     10.239     12.661
REMARK  7 active torsions:
REMARK  status: ('A' for Active; 'I' for Inactive)
REMARK    1  A    between atoms: C_1  and  C_2 
REMARK    2  A    between atoms: C_1  and  C_11 
REMARK    3  A    between atoms: C_1  and  N_6 
REMARK       I    between atoms: C_2  and  N_19 
REMARK    4  A    between atoms: C_4  and  C_17 
REMARK    5  A    between atoms: C_4  and  C_9 
REMARK    6  A    between atoms: C_7  and  C_9 
REMARK    7  A    between atoms: C_9  and  N_19 
ROOT
HETATM    1  C           1     -25.024  -7.037 -19.153  0.00  0.00     0.249 C 
HETATM    2  H           1     -27.002  -7.533 -18.801  0.00  0.00     0.163 HD
HETATM    3  N           1     -26.237  -6.930 -18.527  0.00  0.00    -0.344 N 
HETATM    4  O           1     -24.110  -6.317 -18.825  0.00  0.00    -0.271 OA
ENDROOT
BRANCH   1   5
HETATM    5  C           1     -24.828  -8.053 -20.251  0.00  0.00     0.278 C 
BRANCH   5   6
HETATM    6  C           1     -23.691  -7.606 -21.160  0.00  0.00     0.017 C 
HETATM    7  C           1     -24.187  -7.548 -22.599  0.00  0.00     0.012 C 
HETATM    8  C           1     -22.540  -8.597 -21.061  0.00  0.00     0.012 C 
ENDBRANCH   5   6
BRANCH   5   9
HETATM    9  N           1     -26.091  -8.171 -21.053  0.00  0.00    -0.066 N 
HETATM   10  H           1     -26.851  -8.562 -20.452  0.00  0.00     0.275 HD
HETATM   11  H           1     -26.373  -7.225 -21.397  0.00  0.00     0.275 HD
HETATM   12  H           1     -25.929  -8.805 -21.867  0.00  0.00     0.275 HD
ENDBRANCH   5   9
ENDBRANCH   1   5
BRANCH   3  13
HETATM   13  C           1     -26.425  -5.954 -17.472  0.00  0.00     0.189 C 
BRANCH  13  14
HETATM   14  C           1     -27.914  -5.708 -17.267  0.00  0.00     0.014 C 
HETATM   15  C           1     -28.149  -4.232 -16.974  0.00  0.00     0.012 C 
BRANCH  14  16
HETATM   16  C           1     -28.670  -6.102 -18.529  0.00  0.00     0.002 C 
HETATM   17  C           1     -29.841  -7.002 -18.158  0.00  0.00     0.005 C 
ENDBRANCH  14  16
ENDBRANCH  13  14
BRANCH  13  18
HETATM   18  C           1     -25.820  -6.475 -16.191  0.00  0.00     0.197 C 
HETATM   19  O           1     -24.857  -5.875 -15.665  0.00  0.00    -0.646 OA
HETATM   20  O           1     -26.281  -7.506 -15.655  0.00  0.00    -0.646 OA
ENDBRANCH  13  18
ENDBRANCH   3  13
TORSDOF 7
ENDMDL
MODEL 3
REMARK VINA RESULT:      -5.8      8.812     11.146
REMARK  7 active torsions:
REMARK  status: ('A' for Active; 'I' for Inactive)
REMARK    1  A    between atoms: C_1  and  C_2 
REMARK    2  A    between atoms: C_1  and  C_11 
REMARK    3  A    between atoms: C_1  and  N_6 
REMARK       I    between atoms: C_2  and  N_19 
REMARK    4  A    between atoms: C_4  and  C_17 
REMARK    5  A    between atoms: C_4  and  C_9 
REMARK    6  A    between atoms: C_7  and  C_9 
REMARK    7  A    between atoms: C_9  and  N_19 
ROOT
HETATM    1  C           1     -25.977  -6.275 -17.690  0.00  0.00     0.249 C 
HETATM    2  H           1     -27.538  -6.916 -18.888  0.00  0.00     0.163 HD
HETATM    3  N           1     -27.289  -6.531 -17.986  0.00  0.00    -0.344 N 
HETATM    4  O           1     -25.680  -5.816 -16.612  0.00  0.00    -0.271 OA
ENDROOT
BRANCH   1   5
HETATM    5  C           1     -24.903  -6.564 -18.709  0.00  0.00     0.278 C 
BRANCH   5   6
HETATM    6  C           1     -25.547  -7.028 -20.009  0.00  0.00     0.017 C 
HETATM    7  C           1     -24.649  -8.060 -20.679  0.00  0.00     0.012 C 
HETATM    8  C           1     -25.732  -5.837 -20.939  0.00  0.00     0.012 C 
ENDBRANCH   5   6
BRANCH   5   9
HETATM    9  N           1     -23.999  -7.642 -18.189  0.00  0.00    -0.066 N 
HETATM   10  H           1     -23.502  -7.299 -17.336  0.00  0.00     0.275 HD
HETATM   11  H           1     -24.568  -8.484 -17.943  0.00  0.00     0.275 HD
HETATM   12  H           1     -23.299  -7.895 -18.922  0.00  0.00     0.275 HD
ENDBRANCH   5   9
ENDBRANCH   1   5
BRANCH   3  13
HETATM   13  C           1     -28.321  -6.254 -17.005  0.00  0.00     0.189 C 
BRANCH  13  14
HETATM   14  C           1     -29.581  -5.778 -17.716  0.00  0.00     0.014 C 
HETATM   15  C           1     -30.687  -5.554 -16.694  0.00  0.00     0.012 C 
BRANCH  14  16
HETATM   16  C           1     -29.290  -4.472 -18.444  0.00  0.00     0.002 C 
HETATM   17  C           1     -28.924  -3.396 -17.430  0.00  0.00     0.005 C 
ENDBRANCH  14  16
ENDBRANCH  13  14
BRANCH  13  18
HETATM   18  C           1     -28.626  -7.510 -16.227  0.00  0.00     0.197 C 
HETATM   19  O           1     -28.176  -7.651 -15.068  0.00  0.00    -0.646 OA
HETATM   20  O           1     -29.327  -8.409 -16.739  0.00  0.00    -0.646 OA
ENDBRANCH  13  18
ENDBRANCH   3  13
TORSDOF 7
ENDMDL
MODEL 4
REMARK VINA RESULT:      -5.6     11.799     14.177
REMARK  7 active torsions:
REMARK  status: ('A' for Active; 'I' for Inactive)
REMARK    1  A    between atoms: C_1  and  C_2 
REMARK    2  A    between atoms: C_1  and  C_11 
REMARK    3  A    between atoms: C_1  and  N_6 
REMARK       I    between atoms: C_2  and  N_19 
REMARK    4  A    between atoms: C_4  and  C_17 
REMARK    5  A    between atoms: C_4  and  C_9 
REMARK    6  A    between atoms: C_7  and  C_9 
REMARK    7  A    between atoms: C_9  and  N_19 
ROOT
HETATM    1  C           1     -22.081  -4.198  -7.346  0.00  0.00     0.249 C 
HETATM    2  H           1     -23.109  -5.472  -8.612  0.00  0.00     0.163 HD
HETATM    3  N           1     -22.705  -4.549  -8.512  0.00  0.00    -0.344 N 
HETATM    4  O           1     -21.598  -3.097  -7.227  0.00  0.00    -0.271 OA
ENDROOT
BRANCH   1   5
HETATM    5  C           1     -21.995  -5.187  -6.209  0.00  0.00     0.278 C 
BRANCH   5   6
HETATM    6  C           1     -21.203  -6.408  -6.656  0.00  0.00     0.017 C 
HETATM    7  C           1     -21.343  -7.511  -5.615  0.00  0.00     0.012 C 
HETATM    8  C           1     -19.734  -6.036  -6.805  0.00  0.00     0.012 C 
ENDBRANCH   5   6
BRANCH   5   9
HETATM    9  N           1     -23.378  -5.609  -5.809  0.00  0.00    -0.066 N 
HETATM   10  H           1     -23.487  -5.511  -4.774  0.00  0.00     0.275 HD
HETATM   11  H           1     -24.079  -5.001  -6.291  0.00  0.00     0.275 HD
HETATM   12  H           1     -23.531  -6.605  -6.083  0.00  0.00     0.275 HD
ENDBRANCH   5   9
ENDBRANCH   1   5
BRANCH   3  13
HETATM   13  C           1     -22.789  -3.599  -9.604  0.00  0.00     0.189 C 
BRANCH  13  14
HETATM   14  C           1     -21.925  -4.080 -10.763  0.00  0.00     0.014 C 
HETATM   15  C           1     -21.323  -2.879 -11.480  0.00  0.00     0.012 C 
BRANCH  14  16
HETATM   16  C           1     -20.807  -4.965 -10.227  0.00  0.00     0.002 C 
HETATM   17  C           1     -19.556  -4.125 -10.006  0.00  0.00     0.005 C 
ENDBRANCH  14  16
ENDBRANCH  13  14
BRANCH  13  18
HETATM   18  C           1     -24.222  -3.481 -10.060  0.00  0.00     0.197 C 
HETATM   19  O           1     -24.590  -4.041 -11.117  0.00  0.00    -0.646 OA
HETATM   20  O           1     -25.043  -2.825  -9.383  0.00  0.00    -0.646 OA
ENDBRANCH  13  18
ENDBRANCH   3  13
TORSDOF 7
ENDMDL
MODEL 5
REMARK VINA RESULT:      -5.2     15.627     17.442
REMARK  7 active torsions:
REMARK  status: ('A' for Active; 'I' for Inactive)
REMARK    1  A    between atoms: C_1  and  C_2 
REMARK    2  A    between atoms: C_1  and  C_11 
REMARK    3  A    between atoms: C_1  and  N_6 
REMARK       I    between atoms: C_2  and  N_19 
REMARK    4  A    between atoms: C_4  and  C_17 
REMARK    5  A    between atoms: C_4  and  C_9 
REMARK    6  A    between atoms: C_7  and  C_9 
REMARK    7  A    between atoms: C_9  and  N_19 
ROOT
HETATM    1  C           1     -20.832  -6.720  -6.258  0.00  0.00     0.249 C 
HETATM    2  H           1     -22.480  -7.105  -5.068  0.00  0.00     0.163 HD
HETATM    3  N           1     -21.509  -7.332  -5.238  0.00  0.00    -0.344 N 
HETATM    4  O           1     -19.672  -6.991  -6.462  0.00  0.00    -0.271 OA
ENDROOT
BRANCH   1   5
HETATM    5  C           1     -21.533  -5.705  -7.128  0.00  0.00     0.278 C 
BRANCH   5   6
HETATM    6  C           1     -20.552  -4.609  -7.523  0.00  0.00     0.017 C 
HETATM    7  C           1     -21.190  -3.247  -7.278  0.00  0.00     0.012 C 
HETATM    8  C           1     -20.202  -4.747  -8.998  0.00  0.00     0.012 C 
ENDBRANCH   5   6
BRANCH   5   9
HETATM    9  N           1     -22.676  -5.101  -6.367  0.00  0.00    -0.066 N 
HETATM   10  H           1     -22.304  -4.476  -5.617  0.00  0.00     0.275 HD
HETATM   11  H           1     -23.272  -4.542  -7.020  0.00  0.00     0.275 HD
HETATM   12  H           1     -23.248  -5.860  -5.935  0.00  0.00     0.275 HD
ENDBRANCH   5   9
ENDBRANCH   1   5
BRANCH   3  13
HETATM   13  C           1     -20.835  -8.307  -4.403  0.00  0.00     0.189 C 
BRANCH  13  14
HETATM   14  C           1     -21.233  -8.092  -2.949  0.00  0.00     0.014 C 
HETATM   15  C           1     -20.039  -8.373  -2.048  0.00  0.00     0.012 C 
BRANCH  14  16
HETATM   16  C           1     -21.686  -6.650  -2.756  0.00  0.00     0.002 C 
HETATM   17  C           1     -22.290  -6.489  -1.367  0.00  0.00     0.005 C 
ENDBRANCH  14  16
ENDBRANCH  13  14
BRANCH  13  18
HETATM   18  C           1     -21.232  -9.698  -4.833  0.00  0.00     0.197 C 
HETATM   19  O           1     -20.768 -10.181  -5.890  0.00  0.00    -0.646 OA
HETATM   20  O           1     -22.023 -10.367  -4.135  0.00  0.00    -0.646 OA
ENDBRANCH  13  18
ENDBRANCH   3  13
TORSDOF 7
ENDMDL
MODEL 6
REMARK VINA RESULT:      -5.2     14.511     17.375
REMARK  7 active torsions:
REMARK  status: ('A' for Active; 'I' for Inactive)
REMARK    1  A    between atoms: C_1  and  C_2 
REMARK    2  A    between atoms: C_1  and  C_11 
REMARK    3  A    between atoms: C_1  and  N_6 
REMARK       I    between atoms: C_2  and  N_19 
REMARK    4  A    between atoms: C_4  and  C_17 
REMARK    5  A    between atoms: C_4  and  C_9 
REMARK    6  A    between atoms: C_7  and  C_9 
REMARK    7  A    between atoms: C_9  and  N_19 
ROOT
HETATM    1  C           1     -21.646  -5.667  -5.582  0.00  0.00     0.249 C 
HETATM    2  H           1     -19.887  -6.354  -4.736  0.00  0.00     0.163 HD
HETATM    3  N           1     -20.894  -6.453  -4.752  0.00  0.00    -0.344 N 
HETATM    4  O           1     -22.848  -5.785  -5.601  0.00  0.00    -0.271 OA
ENDROOT
BRANCH   1   5
HETATM    5  C           1     -20.974  -4.653  -6.476  0.00  0.00     0.278 C 
BRANCH   5   6
HETATM    6  C           1     -21.349  -4.925  -7.926  0.00  0.00     0.017 C 
HETATM    7  C           1     -20.096  -4.878  -8.791  0.00  0.00     0.012 C 
HETATM    8  C           1     -22.334  -3.868  -8.404  0.00  0.00     0.012 C 
ENDBRANCH   5   6
BRANCH   5   9
HETATM    9  N           1     -19.485  -4.759  -6.318  0.00  0.00    -0.066 N 
HETATM   10  H           1     -19.236  -5.722  -6.000  0.00  0.00     0.275 HD
HETATM   11  H           1     -19.024  -4.567  -7.237  0.00  0.00     0.275 HD
HETATM   12  H           1     -19.159  -4.062  -5.611  0.00  0.00     0.275 HD
ENDBRANCH   5   9
ENDBRANCH   1   5
BRANCH   3  13
HETATM   13  C           1     -21.540  -7.426  -3.893  0.00  0.00     0.189 C 
BRANCH  13  14
HETATM   14  C           1     -20.731  -8.716  -3.889  0.00  0.00     0.014 C 
HETATM   15  C           1     -21.607  -9.867  -4.364  0.00  0.00     0.012 C 
BRANCH  14  16
HETATM   16  C           1     -19.537  -8.568  -4.823  0.00  0.00     0.002 C 
HETATM   17  C           1     -18.361  -9.366  -4.275  0.00  0.00     0.005 C 
ENDBRANCH  14  16
ENDBRANCH  13  14
BRANCH  13  18
HETATM   18  C           1     -21.624  -6.881  -2.489  0.00  0.00     0.197 C 
HETATM   19  O           1     -22.390  -5.925  -2.234  0.00  0.00    -0.646 OA
HETATM   20  O           1     -20.929  -7.383  -1.579  0.00  0.00    -0.646 OA
ENDBRANCH  13  18
ENDBRANCH   3  13
TORSDOF 7
ENDMDL
MODEL 7
REMARK VINA RESULT:      -5.2     16.582     18.478
REMARK  7 active torsions:
REMARK  status: ('A' for Active; 'I' for Inactive)
REMARK    1  A    between atoms: C_1  and  C_2 
REMARK    2  A    between atoms: C_1  and  C_11 
REMARK    3  A    between atoms: C_1  and  N_6 
REMARK       I    between atoms: C_2  and  N_19 
REMARK    4  A    between atoms: C_4  and  C_17 
REMARK    5  A    between atoms: C_4  and  C_9 
REMARK    6  A    between atoms: C_7  and  C_9 
REMARK    7  A    between atoms: C_9  and  N_19 
ROOT
HETATM    1  C           1     -21.457  -8.467  -2.207  0.00  0.00     0.249 C 
HETATM    2  H           1     -20.486  -6.930  -3.197  0.00  0.00     0.163 HD
HETATM    3  N           1     -20.915  -7.841  -3.298  0.00  0.00    -0.344 N 
HETATM    4  O           1     -21.970  -9.554  -2.328  0.00  0.00    -0.271 OA
ENDROOT
BRANCH   1   5
HETATM    5  C           1     -21.415  -7.798  -0.855  0.00  0.00     0.278 C 
BRANCH   5   6
HETATM    6  C           1     -21.974  -8.745   0.198  0.00  0.00     0.017 C 
HETATM    7  C           1     -23.340  -8.248   0.652  0.00  0.00     0.012 C 
HETATM    8  C           1     -21.031  -8.793   1.392  0.00  0.00     0.012 C 
ENDBRANCH   5   6
BRANCH   5   9
HETATM    9  N           1     -22.244  -6.547  -0.891  0.00  0.00    -0.066 N 
HETATM   10  H           1     -22.625  -6.354   0.062  0.00  0.00     0.275 HD
HETATM   11  H           1     -21.648  -5.744  -1.197  0.00  0.00     0.275 HD
HETATM   12  H           1     -23.034  -6.672  -1.563  0.00  0.00     0.275 HD
ENDBRANCH   5   9
ENDBRANCH   1   5
BRANCH   3  13
HETATM   13  C           1     -20.955  -8.485  -4.596  0.00  0.00     0.189 C 
BRANCH  13  14
HETATM   14  C           1     -21.284  -7.451  -5.665  0.00  0.00     0.014 C 
HETATM   15  C           1     -22.444  -6.585  -5.194  0.00  0.00     0.012 C 
BRANCH  14  16
HETATM   16  C           1     -20.064  -6.574  -5.914  0.00  0.00     0.002 C 
HETATM   17  C           1     -20.421  -5.118  -5.644  0.00  0.00     0.005 C 
ENDBRANCH  14  16
ENDBRANCH  13  14
BRANCH  13  18
HETATM   18  C           1     -19.612  -9.105  -4.892  0.00  0.00     0.197 C 
HETATM   19  O           1     -18.659  -8.939  -4.099  0.00  0.00    -0.646 OA
HETATM   20  O           1     -19.450  -9.783  -5.929  0.00  0.00    -0.646 OA
ENDBRANCH  13  18
ENDBRANCH   3  13
TORSDOF 7
ENDMDL
MODEL 8
REMARK VINA RESULT:      -5.1     18.106     19.896
REMARK  7 active torsions:
REMARK  status: ('A' for Active; 'I' for Inactive)
REMARK    1  A    between atoms: C_1  and  C_2 
REMARK    2  A    between atoms: C_1  and  C_11 
REMARK    3  A    between atoms: C_1  and  N_6 
REMARK       I    between atoms: C_2  and  N_19 
REMARK    4  A    between atoms: C_4  and  C_17 
REMARK    5  A    between atoms: C_4  and  C_9 
REMARK    6  A    between atoms: C_7  and  C_9 
REMARK    7  A    between atoms: C_9  and  N_19 
ROOT
HETATM    1  C           1     -19.844 -10.722  -1.339  0.00  0.00     0.249 C 
HETATM    2  H           1     -21.172  -9.647  -2.507  0.00  0.00     0.163 HD
HETATM    3  N           1     -21.004 -10.040  -1.590  0.00  0.00    -0.344 N 
HETATM    4  O           1     -19.644 -11.191  -0.243  0.00  0.00    -0.271 OA
ENDROOT
BRANCH   1   5
HETATM    5  C           1     -18.815 -10.888  -2.430  0.00  0.00     0.278 C 
BRANCH   5   6
HETATM    6  C           1     -18.278  -9.522  -2.835  0.00  0.00     0.017 C 
HETATM    7  C           1     -18.780  -9.174  -4.230  0.00  0.00     0.012 C 
HETATM    8  C           1     -16.756  -9.553  -2.837  0.00  0.00     0.012 C 
ENDBRANCH   5   6
BRANCH   5   9
HETATM    9  N           1     -19.451 -11.546  -3.620  0.00  0.00    -0.066 N 
HETATM   10  H           1     -19.921 -12.430  -3.320  0.00  0.00     0.275 HD
HETATM   11  H           1     -20.160 -10.900  -4.036  0.00  0.00     0.275 HD
HETATM   12  H           1     -18.718 -11.765  -4.331  0.00  0.00     0.275 HD
ENDBRANCH   5   9
ENDBRANCH   1   5
BRANCH   3  13
HETATM   13  C           1     -21.993  -9.881  -0.542  0.00  0.00     0.189 C 
BRANCH  13  14
HETATM   14  C           1     -22.323  -8.404  -0.375  0.00  0.00     0.014 C 
HETATM   15  C           1     -21.990  -7.966   1.045  0.00  0.00     0.012 C 
BRANCH  14  16
HETATM   16  C           1     -21.502  -7.586  -1.364  0.00  0.00     0.002 C 
HETATM   17  C           1     -22.252  -6.306  -1.710  0.00  0.00     0.005 C 
ENDBRANCH  14  16
ENDBRANCH  13  14
BRANCH  13  18
HETATM   18  C           1     -23.245 -10.638  -0.912  0.00  0.00     0.197 C 
HETATM   19  O           1     -23.371 -11.111  -2.063  0.00  0.00    -0.646 OA
HETATM   20  O           1     -24.155 -10.792  -0.070  0.00  0.00    -0.646 OA
ENDBRANCH  13  18
ENDBRANCH   3  13
TORSDOF 7
ENDMDL
MODEL 9
REMARK VINA RESULT:      -5.0     25.312     26.794
REMARK  7 active torsions:
REMARK  status: ('A' for Active; 'I' for Inactive)
REMARK    1  A    between atoms: C_1  and  C_2 
REMARK    2  A    between atoms: C_1  and  C_11 
REMARK    3  A    between atoms: C_1  and  N_6 
REMARK       I    between atoms: C_2  and  N_19 
REMARK    4  A    between atoms: C_4  and  C_17 
REMARK    5  A    between atoms: C_4  and  C_9 
REMARK    6  A    between atoms: C_7  and  C_9 
REMARK    7  A    between atoms: C_9  and  N_19 
ROOT
HETATM    1  C           1     -12.571   6.446 -20.451  0.00  0.00     0.249 C 
HETATM    2  H           1     -11.305   7.283 -21.857  0.00  0.00     0.163 HD
HETATM    3  N           1     -11.872   7.465 -21.039  0.00  0.00    -0.344 N 
HETATM    4  O           1     -13.248   6.663 -19.474  0.00  0.00    -0.271 OA
ENDROOT
BRANCH   1   5
HETATM    5  C           1     -12.497   5.051 -21.023  0.00  0.00     0.278 C 
BRANCH   5   6
HETATM    6  C           1     -11.742   4.146 -20.058  0.00  0.00     0.017 C 
HETATM    7  C           1     -10.417   4.797 -19.684  0.00  0.00     0.012 C 
HETATM    8  C           1     -11.477   2.802 -20.722  0.00  0.00     0.012 C 
ENDBRANCH   5   6
BRANCH   5   9
HETATM    9  N           1     -11.775   5.089 -22.338  0.00  0.00    -0.066 N 
HETATM   10  H           1     -12.365   5.583 -23.045  0.00  0.00     0.275 HD
HETATM   11  H           1     -10.870   5.600 -22.223  0.00  0.00     0.275 HD
HETATM   12  H           1     -11.587   4.113 -22.661  0.00  0.00     0.275 HD
ENDBRANCH   5   9
ENDBRANCH   1   5
BRANCH   3  13
HETATM   13  C           1     -11.944   8.805 -20.490  0.00  0.00     0.189 C 
BRANCH  13  14
HETATM   14  C           1     -10.550   9.263 -20.083  0.00  0.00     0.014 C 
HETATM   15  C           1     -10.369   9.070 -18.584  0.00  0.00     0.012 C 
BRANCH  14  16
HETATM   16  C           1      -9.508   8.440 -20.831  0.00  0.00     0.002 C 
HETATM   17  C           1      -8.547   9.374 -21.554  0.00  0.00     0.005 C 
ENDBRANCH  14  16
ENDBRANCH  13  14
BRANCH  13  18
HETATM   18  C           1     -12.499   9.745 -21.531  0.00  0.00     0.197 C 
HETATM   19  O           1     -13.575   9.474 -22.108  0.00  0.00    -0.646 OA
HETATM   20  O           1     -11.886  10.796 -21.817  0.00  0.00    -0.646 OA
ENDBRANCH  13  18
ENDBRANCH   3  13
TORSDOF 7
ENDMDL
