MODEL 1
REMARK VINA RESULT:      -7.5      0.000      0.000
REMARK  8 active torsions:
REMARK  status: ('A' for Active; 'I' for Inactive)
REMARK    1  A    between atoms: C_1  and  C_24 
REMARK       I    between atoms: C_9  and  N_25 
REMARK    2  A    between atoms: C_9  and  C_10 
REMARK    3  A    between atoms: C_10  and  C_11 
REMARK    4  A    between atoms: C_10  and  N_15 
REMARK    5  A    between atoms: C_11  and  C_12 
REMARK    6  A    between atoms: C_18  and  C_20 
REMARK    7  A    between atoms: C_20  and  C_24 
REMARK    8  A    between atoms: C_20  and  N_25 
ROOT
HETATM    1  C           1     -21.351  -6.261  -5.176  0.00  0.00     0.190 C 
ENDROOT
BRANCH   1   2
HETATM    2  C           1     -20.755  -7.456  -5.878  0.00  0.00     0.197 C 
HETATM    3  O           1     -19.595  -7.394  -6.343  0.00  0.00    -0.646 OA
HETATM    4  O           1     -21.420  -8.507  -5.995  0.00  0.00    -0.646 OA
ENDBRANCH   1   2
BRANCH   1   5
HETATM    5  C           1     -20.898  -4.984  -5.873  0.00  0.00     0.077 C 
BRANCH   5   6
HETATM    6  C           1     -21.820  -4.684  -7.013  0.00  0.00    -0.028 A 
HETATM    7  C           1     -23.179  -4.489  -6.928  0.00  0.00     0.096 A 
HETATM    8  N           1     -23.647  -4.240  -8.191  0.00  0.00    -0.365 N 
HETATM    9  C           1     -22.611  -4.269  -9.097  0.00  0.00     0.042 A 
HETATM   10  H           1     -24.651  -4.053  -8.434  0.00  0.00     0.165 HD
HETATM   11  C           1     -22.615  -4.073 -10.483  0.00  0.00     0.030 A 
HETATM   12  C           1     -21.447  -4.547  -8.379  0.00  0.00    -0.002 A 
HETATM   13  C           1     -21.390  -4.165 -11.152  0.00  0.00     0.002 A 
HETATM   14  C           1     -20.212  -4.441 -10.461  0.00  0.00     0.001 A 
HETATM   15  C           1     -20.226  -4.635  -9.075  0.00  0.00     0.014 A 
ENDBRANCH   5   6
ENDBRANCH   1   5
BRANCH   1  16
HETATM   16  N           1     -20.906  -6.240  -3.795  0.00  0.00    -0.344 N 
HETATM   17  H           1     -20.615  -5.369  -3.371  0.00  0.00     0.163 HD
HETATM   18  C           1     -20.879  -7.399  -3.067  0.00  0.00     0.249 C 
HETATM   19  O           1     -19.885  -8.085  -3.061  0.00  0.00    -0.271 OA
BRANCH  18  20
HETATM   20  C           1     -22.091  -7.820  -2.274  0.00  0.00     0.284 C 
BRANCH  20  21
HETATM   21  C           1     -22.226  -6.935  -1.043  0.00  0.00     0.155 C 
BRANCH  21  22
HETATM   22  C           1     -22.342  -7.801   0.189  0.00  0.00     0.175 C 
HETATM   23  O           1     -23.468  -8.158   0.597  0.00  0.00    -0.648 OA
HETATM   24  O           1     -21.313  -8.160   0.801  0.00  0.00    -0.648 OA
ENDBRANCH  21  22
ENDBRANCH  20  21
BRANCH  20  25
HETATM   25  N           1     -21.939  -9.250  -1.848  0.00  0.00    -0.066 N 
HETATM   26  H           1     -21.957  -9.869  -2.689  0.00  0.00     0.275 HD
HETATM   27  H           1     -21.029  -9.368  -1.348  0.00  0.00     0.275 HD
HETATM   28  H           1     -22.725  -9.507  -1.208  0.00  0.00     0.275 HD
ENDBRANCH  20  25
ENDBRANCH  18  20
ENDBRANCH   1  16
TORSDOF 8
ENDMDL
MODEL 2
REMARK VINA RESULT:      -7.4      3.085      7.699
REMARK  8 active torsions:
REMARK  status: ('A' for Active; 'I' for Inactive)
REMARK    1  A    between atoms: C_1  and  C_24 
REMARK       I    between atoms: C_9  and  N_25 
REMARK    2  A    between atoms: C_9  and  C_10 
REMARK    3  A    between atoms: C_10  and  C_11 
REMARK    4  A    between atoms: C_10  and  N_15 
REMARK    5  A    between atoms: C_11  and  C_12 
REMARK    6  A    between atoms: C_18  and  C_20 
REMARK    7  A    between atoms: C_20  and  C_24 
REMARK    8  A    between atoms: C_20  and  N_25 
ROOT
HETATM    1  C           1     -20.695  -5.144  -6.180  0.00  0.00     0.190 C 
ENDROOT
BRANCH   1   2
HETATM    2  C           1     -19.590  -5.291  -7.196  0.00  0.00     0.197 C 
HETATM    3  O           1     -19.614  -6.238  -8.013  0.00  0.00    -0.646 OA
HETATM    4  O           1     -18.651  -4.467  -7.222  0.00  0.00    -0.646 OA
ENDBRANCH   1   2
BRANCH   1   5
HETATM    5  C           1     -21.460  -6.456  -6.067  0.00  0.00     0.077 C 
BRANCH   5   6
HETATM    6  C           1     -20.887  -7.273  -4.950  0.00  0.00    -0.028 A 
HETATM    7  C           1     -19.916  -8.240  -5.068  0.00  0.00     0.096 A 
HETATM    8  N           1     -19.675  -8.746  -3.818  0.00  0.00    -0.365 N 
HETATM    9  C           1     -20.476  -8.121  -2.889  0.00  0.00     0.042 A 
HETATM   10  H           1     -18.979  -9.501  -3.599  0.00  0.00     0.165 HD
HETATM   11  C           1     -20.574  -8.311  -1.505  0.00  0.00     0.030 A 
HETATM   12  C           1     -21.251  -7.188  -3.577  0.00  0.00    -0.002 A 
HETATM   13  C           1     -21.493  -7.519  -0.808  0.00  0.00     0.002 A 
HETATM   14  C           1     -22.279  -6.579  -1.470  0.00  0.00     0.001 A 
HETATM   15  C           1     -22.169  -6.402  -2.854  0.00  0.00     0.014 A 
ENDBRANCH   5   6
ENDBRANCH   1   5
BRANCH   1  16
HETATM   16  N           1     -21.601  -4.092  -6.601  0.00  0.00    -0.344 N 
HETATM   17  H           1     -21.354  -3.122  -6.450  0.00  0.00     0.163 HD
HETATM   18  C           1     -22.790  -4.412  -7.199  0.00  0.00     0.249 C 
HETATM   19  O           1     -23.779  -4.580  -6.527  0.00  0.00    -0.271 OA
BRANCH  18  20
HETATM   20  C           1     -22.864  -4.555  -8.700  0.00  0.00     0.284 C 
BRANCH  20  21
HETATM   21  C           1     -21.869  -3.604  -9.351  0.00  0.00     0.155 C 
BRANCH  21  22
HETATM   22  C           1     -22.035  -3.653 -10.852  0.00  0.00     0.175 C 
HETATM   23  O           1     -21.742  -2.656 -11.544  0.00  0.00    -0.648 OA
HETATM   24  O           1     -22.466  -4.691 -11.400  0.00  0.00    -0.648 OA
ENDBRANCH  21  22
ENDBRANCH  20  21
BRANCH  20  25
HETATM   25  N           1     -24.251  -4.224  -9.166  0.00  0.00    -0.066 N 
HETATM   26  H           1     -24.320  -4.381 -10.197  0.00  0.00     0.275 HD
HETATM   27  H           1     -24.939  -4.837  -8.674  0.00  0.00     0.275 HD
HETATM   28  H           1     -24.459  -3.222  -8.952  0.00  0.00     0.275 HD
ENDBRANCH  20  25
ENDBRANCH  18  20
ENDBRANCH   1  16
TORSDOF 8
ENDMDL
MODEL 3
REMARK VINA RESULT:      -7.2     11.831     14.617
REMARK  8 active torsions:
REMARK  status: ('A' for Active; 'I' for Inactive)
REMARK    1  A    between atoms: C_1  and  C_24 
REMARK       I    between atoms: C_9  and  N_25 
REMARK    2  A    between atoms: C_9  and  C_10 
REMARK    3  A    between atoms: C_10  and  C_11 
REMARK    4  A    between atoms: C_10  and  N_15 
REMARK    5  A    between atoms: C_11  and  C_12 
REMARK    6  A    between atoms: C_18  and  C_20 
REMARK    7  A    between atoms: C_20  and  C_24 
REMARK    8  A    between atoms: C_20  and  N_25 
ROOT
HETATM    1  C           1     -26.236  -7.063 -19.635  0.00  0.00     0.190 C 
ENDROOT
BRANCH   1   2
HETATM    2  C           1     -25.518  -7.369 -20.926  0.00  0.00     0.197 C 
HETATM    3  O           1     -25.583  -8.516 -21.421  0.00  0.00    -0.646 OA
HETATM    4  O           1     -24.859  -6.477 -21.501  0.00  0.00    -0.646 OA
ENDBRANCH   1   2
BRANCH   1   5
HETATM    5  C           1     -27.445  -6.182 -19.922  0.00  0.00     0.077 C 
BRANCH   5   6
HETATM    6  C           1     -28.579  -6.585 -19.032  0.00  0.00    -0.028 A 
HETATM    7  C           1     -28.949  -7.873 -18.721  0.00  0.00     0.096 A 
HETATM    8  N           1     -30.029  -7.809 -17.882  0.00  0.00    -0.365 N 
HETATM    9  C           1     -30.368  -6.496 -17.642  0.00  0.00     0.042 A 
HETATM   10  H           1     -30.527  -8.640 -17.479  0.00  0.00     0.165 HD
HETATM   11  C           1     -31.392  -5.955 -16.855  0.00  0.00     0.030 A 
HETATM   12  C           1     -29.468  -5.704 -18.356  0.00  0.00    -0.002 A 
HETATM   13  C           1     -31.496  -4.561 -16.800  0.00  0.00     0.002 A 
HETATM   14  C           1     -30.612  -3.745 -17.503  0.00  0.00     0.001 A 
HETATM   15  C           1     -29.593  -4.303 -18.285  0.00  0.00     0.014 A 
ENDBRANCH   5   6
ENDBRANCH   1   5
BRANCH   1  16
HETATM   16  N           1     -25.336  -6.368 -18.735  0.00  0.00    -0.344 N 
HETATM   17  H           1     -25.450  -5.376 -18.572  0.00  0.00     0.163 HD
HETATM   18  C           1     -24.332  -7.055 -18.106  0.00  0.00     0.249 C 
HETATM   19  O           1     -23.248  -7.153 -18.629  0.00  0.00    -0.271 OA
BRANCH  18  20
HETATM   20  C           1     -24.581  -7.689 -16.759  0.00  0.00     0.284 C 
BRANCH  20  21
HETATM   21  C           1     -25.014  -6.620 -15.765  0.00  0.00     0.155 C 
BRANCH  21  22
HETATM   22  C           1     -26.522  -6.544 -15.733  0.00  0.00     0.175 C 
HETATM   23  O           1     -27.188  -7.531 -15.354  0.00  0.00    -0.648 OA
HETATM   24  O           1     -27.102  -5.495 -16.086  0.00  0.00    -0.648 OA
ENDBRANCH  21  22
ENDBRANCH  20  21
BRANCH  20  25
HETATM   25  N           1     -23.320  -8.342 -16.274  0.00  0.00    -0.066 N 
HETATM   26  H           1     -22.532  -7.659 -16.322  0.00  0.00     0.275 HD
HETATM   27  H           1     -23.450  -8.655 -15.285  0.00  0.00     0.275 HD
HETATM   28  H           1     -23.103  -9.168 -16.876  0.00  0.00     0.275 HD
ENDBRANCH  20  25
ENDBRANCH  18  20
ENDBRANCH   1  16
TORSDOF 8
ENDMDL
MODEL 4
REMARK VINA RESULT:      -7.2      2.518      7.445
REMARK  8 active torsions:
REMARK  status: ('A' for Active; 'I' for Inactive)
REMARK    1  A    between atoms: C_1  and  C_24 
REMARK       I    between atoms: C_9  and  N_25 
REMARK    2  A    between atoms: C_9  and  C_10 
REMARK    3  A    between atoms: C_10  and  C_11 
REMARK    4  A    between atoms: C_10  and  N_15 
REMARK    5  A    between atoms: C_11  and  C_12 
REMARK    6  A    between atoms: C_18  and  C_20 
REMARK    7  A    between atoms: C_20  and  C_24 
REMARK    8  A    between atoms: C_20  and  N_25 
ROOT
HETATM    1  C           1     -19.985  -7.442  -5.335  0.00  0.00     0.190 C 
ENDROOT
BRANCH   1   2
HETATM    2  C           1     -19.010  -8.592  -5.295  0.00  0.00     0.197 C 
HETATM    3  O           1     -18.469  -8.992  -6.350  0.00  0.00    -0.646 OA
HETATM    4  O           1     -18.741  -9.146  -4.207  0.00  0.00    -0.646 OA
ENDBRANCH   1   2
BRANCH   1   5
HETATM    5  C           1     -21.361  -7.927  -4.900  0.00  0.00     0.077 C 
BRANCH   5   6
HETATM    6  C           1     -21.697  -7.343  -3.563  0.00  0.00    -0.028 A 
HETATM    7  C           1     -21.968  -6.020  -3.300  0.00  0.00     0.096 A 
HETATM    8  N           1     -22.225  -5.903  -1.960  0.00  0.00    -0.365 N 
HETATM    9  C           1     -22.126  -7.132  -1.347  0.00  0.00     0.042 A 
HETATM   10  H           1     -22.464  -5.006  -1.470  0.00  0.00     0.165 HD
HETATM   11  C           1     -22.302  -7.492  -0.005  0.00  0.00     0.030 A 
HETATM   12  C           1     -21.793  -8.058  -2.337  0.00  0.00    -0.002 A 
HETATM   13  C           1     -22.132  -8.839   0.331  0.00  0.00     0.002 A 
HETATM   14  C           1     -21.801  -9.785  -0.637  0.00  0.00     0.001 A 
HETATM   15  C           1     -21.628  -9.408  -1.974  0.00  0.00     0.014 A 
ENDBRANCH   5   6
ENDBRANCH   1   5
BRANCH   1  16
HETATM   16  N           1     -20.062  -6.922  -6.687  0.00  0.00    -0.344 N 
HETATM   17  H           1     -20.045  -7.558  -7.475  0.00  0.00     0.163 HD
HETATM   18  C           1     -20.158  -5.573  -6.898  0.00  0.00     0.249 C 
HETATM   19  O           1     -19.157  -4.909  -7.022  0.00  0.00    -0.271 OA
BRANCH  18  20
HETATM   20  C           1     -21.514  -4.916  -6.972  0.00  0.00     0.284 C 
BRANCH  20  21
HETATM   21  C           1     -22.184  -5.280  -8.290  0.00  0.00     0.155 C 
BRANCH  21  22
HETATM   22  C           1     -22.090  -4.112  -9.243  0.00  0.00     0.175 C 
HETATM   23  O           1     -21.021  -3.887  -9.850  0.00  0.00    -0.648 OA
HETATM   24  O           1     -23.080  -3.371  -9.423  0.00  0.00    -0.648 OA
ENDBRANCH  21  22
ENDBRANCH  20  21
BRANCH  20  25
HETATM   25  N           1     -21.353  -3.426  -6.889  0.00  0.00    -0.066 N 
HETATM   26  H           1     -20.830  -3.084  -7.725  0.00  0.00     0.275 HD
HETATM   27  H           1     -22.296  -2.976  -6.859  0.00  0.00     0.275 HD
HETATM   28  H           1     -20.822  -3.183  -6.022  0.00  0.00     0.275 HD
ENDBRANCH  20  25
ENDBRANCH  18  20
ENDBRANCH   1  16
TORSDOF 8
ENDMDL
MODEL 5
REMARK VINA RESULT:      -7.2      2.129      2.975
REMARK  8 active torsions:
REMARK  status: ('A' for Active; 'I' for Inactive)
REMARK    1  A    between atoms: C_1  and  C_24 
REMARK       I    between atoms: C_9  and  N_25 
REMARK    2  A    between atoms: C_9  and  C_10 
REMARK    3  A    between atoms: C_10  and  C_11 
REMARK    4  A    between atoms: C_10  and  N_15 
REMARK    5  A    between atoms: C_11  and  C_12 
REMARK    6  A    between atoms: C_18  and  C_20 
REMARK    7  A    between atoms: C_20  and  C_24 
REMARK    8  A    between atoms: C_20  and  N_25 
ROOT
HETATM    1  C           1     -20.455  -9.406  -4.535  0.00  0.00     0.190 C 
ENDROOT
BRANCH   1   2
HETATM    2  C           1     -20.112 -10.604  -5.386  0.00  0.00     0.197 C 
HETATM    3  O           1     -20.847 -10.918  -6.349  0.00  0.00    -0.646 OA
HETATM    4  O           1     -19.095 -11.283  -5.129  0.00  0.00    -0.646 OA
ENDBRANCH   1   2
BRANCH   1   5
HETATM    5  C           1     -19.770  -8.169  -5.100  0.00  0.00     0.077 C 
BRANCH   5   6
HETATM    6  C           1     -20.800  -7.136  -5.434  0.00  0.00    -0.028 A 
HETATM    7  C           1     -22.066  -7.049  -4.901  0.00  0.00     0.096 A 
HETATM    8  N           1     -22.687  -5.968  -5.468  0.00  0.00    -0.365 N 
HETATM    9  C           1     -21.842  -5.349  -6.362  0.00  0.00     0.042 A 
HETATM   10  H           1     -23.665  -5.656  -5.251  0.00  0.00     0.165 HD
HETATM   11  C           1     -22.045  -4.221  -7.167  0.00  0.00     0.030 A 
HETATM   12  C           1     -20.646  -6.067  -6.360  0.00  0.00    -0.002 A 
HETATM   13  C           1     -20.990  -3.817  -7.991  0.00  0.00     0.002 A 
HETATM   14  C           1     -19.784  -4.514  -8.009  0.00  0.00     0.001 A 
HETATM   15  C           1     -19.598  -5.641  -7.199  0.00  0.00     0.014 A 
ENDBRANCH   5   6
ENDBRANCH   1   5
BRANCH   1  16
HETATM   16  N           1     -20.000  -9.632  -3.177  0.00  0.00    -0.344 N 
HETATM   17  H           1     -19.057  -9.377  -2.911  0.00  0.00     0.163 HD
HETATM   18  C           1     -20.844 -10.191  -2.255  0.00  0.00     0.249 C 
HETATM   19  O           1     -20.882 -11.391  -2.121  0.00  0.00    -0.271 OA
BRANCH  18  20
HETATM   20  C           1     -21.728  -9.308  -1.409  0.00  0.00     0.284 C 
BRANCH  20  21
HETATM   21  C           1     -21.180  -7.888  -1.413  0.00  0.00     0.155 C 
BRANCH  21  22
HETATM   22  C           1     -22.296  -6.918  -1.106  0.00  0.00     0.175 C 
HETATM   23  O           1     -23.104  -7.167  -0.185  0.00  0.00    -0.648 OA
HETATM   24  O           1     -22.413  -5.867  -1.773  0.00  0.00    -0.648 OA
ENDBRANCH  21  22
ENDBRANCH  20  21
BRANCH  20  25
HETATM   25  N           1     -21.756  -9.830  -0.003  0.00  0.00    -0.066 N 
HETATM   26  H           1     -22.644  -9.534   0.461  0.00  0.00     0.275 HD
HETATM   27  H           1     -21.701 -10.873  -0.017  0.00  0.00     0.275 HD
HETATM   28  H           1     -20.941  -9.444   0.527  0.00  0.00     0.275 HD
ENDBRANCH  20  25
ENDBRANCH  18  20
ENDBRANCH   1  16
TORSDOF 8
ENDMDL
MODEL 6
REMARK VINA RESULT:      -7.1      2.678      7.959
REMARK  8 active torsions:
REMARK  status: ('A' for Active; 'I' for Inactive)
REMARK    1  A    between atoms: C_1  and  C_24 
REMARK       I    between atoms: C_9  and  N_25 
REMARK    2  A    between atoms: C_9  and  C_10 
REMARK    3  A    between atoms: C_10  and  C_11 
REMARK    4  A    between atoms: C_10  and  N_15 
REMARK    5  A    between atoms: C_11  and  C_12 
REMARK    6  A    between atoms: C_18  and  C_20 
REMARK    7  A    between atoms: C_20  and  C_24 
REMARK    8  A    between atoms: C_20  and  N_25 
ROOT
HETATM    1  C           1     -21.250  -7.302  -5.698  0.00  0.00     0.190 C 
ENDROOT
BRANCH   1   2
HETATM    2  C           1     -21.999  -6.259  -4.906  0.00  0.00     0.197 C 
HETATM    3  O           1     -23.204  -6.033  -5.154  0.00  0.00    -0.646 OA
HETATM    4  O           1     -21.416  -5.622  -4.003  0.00  0.00    -0.646 OA
ENDBRANCH   1   2
BRANCH   1   5
HETATM    5  C           1     -20.284  -8.040  -4.780  0.00  0.00     0.077 C 
BRANCH   5   6
HETATM    6  C           1     -21.044  -9.012  -3.933  0.00  0.00    -0.028 A 
HETATM    7  C           1     -21.608 -10.192  -4.359  0.00  0.00     0.096 A 
HETATM    8  N           1     -22.209 -10.784  -3.279  0.00  0.00    -0.365 N 
HETATM    9  C           1     -22.043 -10.004  -2.156  0.00  0.00     0.042 A 
HETATM   10  H           1     -22.722 -11.699  -3.304  0.00  0.00     0.165 HD
HETATM   11  C           1     -22.482 -10.206  -0.842  0.00  0.00     0.030 A 
HETATM   12  C           1     -21.312  -8.881  -2.542  0.00  0.00    -0.002 A 
HETATM   13  C           1     -22.161  -9.227   0.104  0.00  0.00     0.002 A 
HETATM   14  C           1     -21.431  -8.095  -0.253  0.00  0.00     0.001 A 
HETATM   15  C           1     -21.000  -7.909  -1.572  0.00  0.00     0.014 A 
ENDBRANCH   5   6
ENDBRANCH   1   5
BRANCH   1  16
HETATM   16  N           1     -20.506  -6.658  -6.763  0.00  0.00    -0.344 N 
HETATM   17  H           1     -19.786  -7.169  -7.258  0.00  0.00     0.163 HD
HETATM   18  C           1     -20.776  -5.358  -7.098  0.00  0.00     0.249 C 
HETATM   19  O           1     -20.185  -4.458  -6.551  0.00  0.00    -0.271 OA
BRANCH  18  20
HETATM   20  C           1     -21.813  -5.050  -8.150  0.00  0.00     0.284 C 
BRANCH  20  21
HETATM   21  C           1     -21.143  -4.392  -9.348  0.00  0.00     0.155 C 
BRANCH  21  22
HETATM   22  C           1     -22.183  -4.081 -10.399  0.00  0.00     0.175 C 
HETATM   23  O           1     -22.046  -3.081 -11.135  0.00  0.00    -0.648 OA
HETATM   24  O           1     -23.179  -4.824 -10.531  0.00  0.00    -0.648 OA
ENDBRANCH  21  22
ENDBRANCH  20  21
BRANCH  20  25
HETATM   25  N           1     -22.843  -4.121  -7.580  0.00  0.00    -0.066 N 
HETATM   26  H           1     -23.331  -4.587  -6.783  0.00  0.00     0.275 HD
HETATM   27  H           1     -22.376  -3.249  -7.242  0.00  0.00     0.275 HD
HETATM   28  H           1     -23.540  -3.879  -8.321  0.00  0.00     0.275 HD
ENDBRANCH  20  25
ENDBRANCH  18  20
ENDBRANCH   1  16
TORSDOF 8
ENDMDL
MODEL 7
REMARK VINA RESULT:      -7.0      3.299      6.912
REMARK  8 active torsions:
REMARK  status: ('A' for Active; 'I' for Inactive)
REMARK    1  A    between atoms: C_1  and  C_24 
REMARK       I    between atoms: C_9  and  N_25 
REMARK    2  A    between atoms: C_9  and  C_10 
REMARK    3  A    between atoms: C_10  and  C_11 
REMARK    4  A    between atoms: C_10  and  N_15 
REMARK    5  A    between atoms: C_11  and  C_12 
REMARK    6  A    between atoms: C_18  and  C_20 
REMARK    7  A    between atoms: C_20  and  C_24 
REMARK    8  A    between atoms: C_20  and  N_25 
ROOT
HETATM    1  C           1     -21.285  -8.086  -2.779  0.00  0.00     0.190 C 
ENDROOT
BRANCH   1   2
HETATM    2  C           1     -22.010  -8.288  -1.472  0.00  0.00     0.197 C 
HETATM    3  O           1     -22.221  -9.445  -1.046  0.00  0.00    -0.646 OA
HETATM    4  O           1     -22.400  -7.299  -0.814  0.00  0.00    -0.646 OA
ENDBRANCH   1   2
BRANCH   1   5
HETATM    5  C           1     -19.837  -8.536  -2.633  0.00  0.00     0.077 C 
BRANCH   5   6
HETATM    6  C           1     -19.423  -9.293  -3.856  0.00  0.00    -0.028 A 
HETATM    7  C           1     -20.254  -9.723  -4.864  0.00  0.00     0.096 A 
HETATM    8  N           1     -19.485 -10.372  -5.794  0.00  0.00    -0.365 N 
HETATM    9  C           1     -18.164 -10.369  -5.404  0.00  0.00     0.042 A 
HETATM   10  H           1     -19.849 -10.808  -6.676  0.00  0.00     0.165 HD
HETATM   11  C           1     -17.034 -10.908  -6.031  0.00  0.00     0.030 A 
HETATM   12  C           1     -18.098  -9.694  -4.185  0.00  0.00    -0.002 A 
HETATM   13  C           1     -15.801 -10.749  -5.389  0.00  0.00     0.002 A 
HETATM   14  C           1     -15.706 -10.080  -4.171  0.00  0.00     0.001 A 
HETATM   15  C           1     -16.846  -9.548  -3.557  0.00  0.00     0.014 A 
ENDBRANCH   5   6
ENDBRANCH   1   5
BRANCH   1  16
HETATM   16  N           1     -21.319  -6.681  -3.139  0.00  0.00    -0.344 N 
HETATM   17  H           1     -21.121  -5.976  -2.441  0.00  0.00     0.163 HD
HETATM   18  C           1     -21.620  -6.310  -4.422  0.00  0.00     0.249 C 
HETATM   19  O           1     -22.768  -6.108  -4.738  0.00  0.00    -0.271 OA
BRANCH  18  20
HETATM   20  C           1     -20.518  -6.154  -5.440  0.00  0.00     0.284 C 
BRANCH  20  21
HETATM   21  C           1     -20.171  -4.680  -5.594  0.00  0.00     0.155 C 
BRANCH  21  22
HETATM   22  C           1     -20.560  -4.213  -6.977  0.00  0.00     0.175 C 
HETATM   23  O           1     -19.724  -4.247  -7.905  0.00  0.00    -0.648 OA
HETATM   24  O           1     -21.717  -3.793  -7.192  0.00  0.00    -0.648 OA
ENDBRANCH  21  22
ENDBRANCH  20  21
BRANCH  20  25
HETATM   25  N           1     -20.976  -6.700  -6.760  0.00  0.00    -0.066 N 
HETATM   26  H           1     -21.652  -7.480  -6.600  0.00  0.00     0.275 HD
HETATM   27  H           1     -21.442  -5.942  -7.307  0.00  0.00     0.275 HD
HETATM   28  H           1     -20.150  -7.059  -7.293  0.00  0.00     0.275 HD
ENDBRANCH  20  25
ENDBRANCH  18  20
ENDBRANCH   1  16
TORSDOF 8
ENDMDL
MODEL 8
REMARK VINA RESULT:      -6.8      2.427      4.457
REMARK  8 active torsions:
REMARK  status: ('A' for Active; 'I' for Inactive)
REMARK    1  A    between atoms: C_1  and  C_24 
REMARK       I    between atoms: C_9  and  N_25 
REMARK    2  A    between atoms: C_9  and  C_10 
REMARK    3  A    between atoms: C_10  and  C_11 
REMARK    4  A    between atoms: C_10  and  N_15 
REMARK    5  A    between atoms: C_11  and  C_12 
REMARK    6  A    between atoms: C_18  and  C_20 
REMARK    7  A    between atoms: C_20  and  C_24 
REMARK    8  A    between atoms: C_20  and  N_25 
ROOT
HETATM    1  C           1     -21.418  -7.401  -3.759  0.00  0.00     0.190 C 
ENDROOT
BRANCH   1   2
HETATM    2  C           1     -21.618  -6.855  -2.367  0.00  0.00     0.197 C 
HETATM    3  O           1     -22.501  -5.995  -2.154  0.00  0.00    -0.646 OA
HETATM    4  O           1     -20.903  -7.263  -1.427  0.00  0.00    -0.646 OA
ENDBRANCH   1   2
BRANCH   1   5
HETATM    5  C           1     -22.191  -6.546  -4.756  0.00  0.00     0.077 C 
BRANCH   5   6
HETATM    6  C           1     -21.305  -6.206  -5.914  0.00  0.00    -0.028 A 
HETATM    7  C           1     -20.017  -6.647  -6.107  0.00  0.00     0.096 A 
HETATM    8  N           1     -19.561  -6.109  -7.282  0.00  0.00    -0.365 N 
HETATM    9  C           1     -20.536  -5.324  -7.856  0.00  0.00     0.042 A 
HETATM   10  H           1     -18.607  -6.272  -7.687  0.00  0.00     0.165 HD
HETATM   11  C           1     -20.520  -4.585  -9.045  0.00  0.00     0.030 A 
HETATM   12  C           1     -21.647  -5.369  -7.012  0.00  0.00    -0.002 A 
HETATM   13  C           1     -21.676  -3.872  -9.378  0.00  0.00     0.002 A 
HETATM   14  C           1     -22.799  -3.898  -8.555  0.00  0.00     0.001 A 
HETATM   15  C           1     -22.799  -4.642  -7.369  0.00  0.00     0.014 A 
ENDBRANCH   5   6
ENDBRANCH   1   5
BRANCH   1  16
HETATM   16  N           1     -21.903  -8.767  -3.818  0.00  0.00    -0.344 N 
HETATM   17  H           1     -22.865  -8.951  -4.073  0.00  0.00     0.163 HD
HETATM   18  C           1     -21.060  -9.806  -3.526  0.00  0.00     0.249 C 
HETATM   19  O           1     -20.966 -10.207  -2.391  0.00  0.00    -0.271 OA
BRANCH  18  20
HETATM   20  C           1     -20.248 -10.448  -4.623  0.00  0.00     0.284 C 
BRANCH  20  21
HETATM   21  C           1     -18.822  -9.915  -4.580  0.00  0.00     0.155 C 
BRANCH  21  22
HETATM   22  C           1     -18.152 -10.161  -5.910  0.00  0.00     0.175 C 
HETATM   23  O           1     -17.908 -11.330  -6.279  0.00  0.00    -0.648 OA
HETATM   24  O           1     -17.840  -9.197  -6.642  0.00  0.00    -0.648 OA
ENDBRANCH  21  22
ENDBRANCH  20  21
BRANCH  20  25
HETATM   25  N           1     -20.861 -10.126  -5.954  0.00  0.00    -0.066 N 
HETATM   26  H           1     -20.260  -9.436  -6.458  0.00  0.00     0.275 HD
HETATM   27  H           1     -20.939 -10.999  -6.521  0.00  0.00     0.275 HD
HETATM   28  H           1     -21.812  -9.717  -5.808  0.00  0.00     0.275 HD
ENDBRANCH  20  25
ENDBRANCH  18  20
ENDBRANCH   1  16
TORSDOF 8
ENDMDL
MODEL 9
REMARK VINA RESULT:      -6.7      4.381      7.575
REMARK  8 active torsions:
REMARK  status: ('A' for Active; 'I' for Inactive)
REMARK    1  A    between atoms: C_1  and  C_24 
REMARK       I    between atoms: C_9  and  N_25 
REMARK    2  A    between atoms: C_9  and  C_10 
REMARK    3  A    between atoms: C_10  and  C_11 
REMARK    4  A    between atoms: C_10  and  N_15 
REMARK    5  A    between atoms: C_11  and  C_12 
REMARK    6  A    between atoms: C_18  and  C_20 
REMARK    7  A    between atoms: C_20  and  C_24 
REMARK    8  A    between atoms: C_20  and  N_25 
ROOT
HETATM    1  C           1     -21.157  -7.757  -3.176  0.00  0.00     0.190 C 
ENDROOT
BRANCH   1   2
HETATM    2  C           1     -21.738  -6.396  -3.472  0.00  0.00     0.197 C 
HETATM    3  O           1     -22.030  -5.623  -2.533  0.00  0.00    -0.646 OA
HETATM    4  O           1     -21.927  -6.041  -4.655  0.00  0.00    -0.646 OA
ENDBRANCH   1   2
BRANCH   1   5
HETATM    5  C           1     -20.773  -7.836  -1.705  0.00  0.00     0.077 C 
BRANCH   5   6
HETATM    6  C           1     -21.904  -8.430  -0.924  0.00  0.00    -0.028 A 
HETATM    7  C           1     -22.626  -7.802   0.064  0.00  0.00     0.096 A 
HETATM    8  N           1     -23.566  -8.685   0.523  0.00  0.00    -0.365 N 
HETATM    9  C           1     -23.467  -9.880  -0.154  0.00  0.00     0.042 A 
HETATM   10  H           1     -24.264  -8.481   1.280  0.00  0.00     0.165 HD
HETATM   11  C           1     -24.211 -11.059  -0.024  0.00  0.00     0.030 A 
HETATM   12  C           1     -22.425  -9.745  -1.073  0.00  0.00    -0.002 A 
HETATM   13  C           1     -23.878 -12.130  -0.860  0.00  0.00     0.002 A 
HETATM   14  C           1     -22.843 -12.023  -1.787  0.00  0.00     0.001 A 
HETATM   15  C           1     -22.108 -10.837  -1.904  0.00  0.00     0.014 A 
ENDBRANCH   5   6
ENDBRANCH   1   5
BRANCH   1  16
HETATM   16  N           1     -19.978  -7.967  -3.995  0.00  0.00    -0.344 N 
HETATM   17  H           1     -19.363  -7.191  -4.204  0.00  0.00     0.163 HD
HETATM   18  C           1     -19.699  -9.214  -4.486  0.00  0.00     0.249 C 
HETATM   19  O           1     -20.135  -9.552  -5.560  0.00  0.00    -0.271 OA
BRANCH  18  20
HETATM   20  C           1     -18.847 -10.167  -3.683  0.00  0.00     0.284 C 
BRANCH  20  21
HETATM   21  C           1     -17.743  -9.391  -2.978  0.00  0.00     0.155 C 
BRANCH  21  22
HETATM   22  C           1     -16.400  -9.968  -3.360  0.00  0.00     0.175 C 
HETATM   23  O           1     -15.838  -9.597  -4.412  0.00  0.00    -0.648 OA
HETATM   24  O           1     -15.852 -10.817  -2.624  0.00  0.00    -0.648 OA
ENDBRANCH  21  22
ENDBRANCH  20  21
BRANCH  20  25
HETATM   25  N           1     -18.236 -11.185  -4.600  0.00  0.00    -0.066 N 
HETATM   26  H           1     -17.242 -11.350  -4.325  0.00  0.00     0.275 HD
HETATM   27  H           1     -18.770 -12.081  -4.529  0.00  0.00     0.275 HD
HETATM   28  H           1     -18.272 -10.833  -5.583  0.00  0.00     0.275 HD
ENDBRANCH  20  25
ENDBRANCH  18  20
ENDBRANCH   1  16
TORSDOF 8
ENDMDL
