MODEL 1
REMARK VINA RESULT:      -5.2      0.000      0.000
REMARK  9 active torsions:
REMARK  status: ('A' for Active; 'I' for Inactive)
REMARK    1  A    between atoms: N_1  and  C_4 
REMARK    2  A    between atoms: Se_2  and  C_3 
REMARK    3  A    between atoms: C_3  and  C_4 
REMARK    4  A    between atoms: C_4  and  C_5 
REMARK       I    between atoms: C_5  and  N_6 
REMARK    5  A    between atoms: N_6  and  C_10 
REMARK    6  A    between atoms: C_9  and  C_10 
REMARK    7  A    between atoms: C_10  and  C_19 
REMARK    8  A    between atoms: Se_17  and  C_20 
REMARK    9  A    between atoms: C_19  and  C_20 
ROOT
HETATM    1  C           1     -35.950  -0.633 -13.333  0.00  0.00     0.249 C 
HETATM    2  N           1     -34.860  -1.446 -13.170  0.00  0.00    -0.345 N 
HETATM    3  H           1     -34.028  -1.295 -13.725  0.00  0.00     0.163 HD
HETATM    4  O           1     -36.944  -0.814 -12.671  0.00  0.00    -0.271 OA
ENDROOT
BRANCH   1   5
HETATM    5  C           1     -35.910   0.490 -14.341  0.00  0.00     0.274 C 
BRANCH   5   6
HETATM    6  N           1     -34.512   0.638 -14.867  0.00  0.00    -0.067 N 
HETATM    7  H           1     -33.829   0.385 -14.117  0.00  0.00     0.275 HD
HETATM    8  H           1     -34.380   0.005 -15.686  0.00  0.00     0.275 HD
HETATM    9  H           1     -34.355   1.628 -15.161  0.00  0.00     0.275 HD
ENDBRANCH   5   6
BRANCH   5  10
HETATM   10  C           1     -36.854   0.174 -15.492  0.00  0.00     0.045 C 
BRANCH  10  11
HETATM   11 Se           1     -36.000  -1.088 -16.708  0.00  0.00     0.000 Se
HETATM   12  H           1     -35.369  -0.044 -17.532  0.00  0.00     0.000 HD
ENDBRANCH  10  11
ENDBRANCH   5  10
ENDBRANCH   1   5
BRANCH   2  13
HETATM   13  C           1     -34.899  -2.525 -12.202  0.00  0.00     0.185 C 
BRANCH  13  14
HETATM   14  C           1     -34.186  -2.096 -10.943  0.00  0.00     0.196 C 
HETATM   15  O           1     -34.817  -1.516 -10.033  0.00  0.00    -0.646 OA
HETATM   16  O           1     -32.963  -2.319 -10.812  0.00  0.00    -0.646 OA
ENDBRANCH  13  14
BRANCH  13  17
HETATM   17  C           1     -34.210  -3.752 -12.782  0.00  0.00     0.036 C 
BRANCH  17  18
HETATM   18  C           1     -34.838  -5.011 -12.200  0.00  0.00     0.003 C 
BRANCH  18  19
HETATM   19 Se           1     -33.585  -5.853 -10.967  0.00  0.00     0.000 Se
HETATM   20  C           1     -34.822  -7.251 -10.407  0.00  0.00     0.000 C 
ENDBRANCH  18  19
ENDBRANCH  17  18
ENDBRANCH  13  17
ENDBRANCH   2  13
TORSDOF 9
ENDMDL
MODEL 2
REMARK VINA RESULT:      -5.1      1.858      2.472
REMARK  9 active torsions:
REMARK  status: ('A' for Active; 'I' for Inactive)
REMARK    1  A    between atoms: N_1  and  C_4 
REMARK    2  A    between atoms: Se_2  and  C_3 
REMARK    3  A    between atoms: C_3  and  C_4 
REMARK    4  A    between atoms: C_4  and  C_5 
REMARK       I    between atoms: C_5  and  N_6 
REMARK    5  A    between atoms: N_6  and  C_10 
REMARK    6  A    between atoms: C_9  and  C_10 
REMARK    7  A    between atoms: C_10  and  C_19 
REMARK    8  A    between atoms: Se_17  and  C_20 
REMARK    9  A    between atoms: C_19  and  C_20 
ROOT
HETATM    1  C           1     -36.524  -0.098 -13.424  0.00  0.00     0.249 C 
HETATM    2  N           1     -35.890  -0.074 -12.211  0.00  0.00    -0.345 N 
HETATM    3  H           1     -35.052   0.480 -12.089  0.00  0.00     0.163 HD
HETATM    4  O           1     -37.525  -0.760 -13.570  0.00  0.00    -0.271 OA
ENDROOT
BRANCH   1   5
HETATM    5  C           1     -35.975   0.702 -14.580  0.00  0.00     0.274 C 
BRANCH   5   6
HETATM    6  N           1     -34.496   0.469 -14.688  0.00  0.00    -0.067 N 
HETATM    7  H           1     -34.129   0.129 -13.771  0.00  0.00     0.275 HD
HETATM    8  H           1     -34.310  -0.247 -15.425  0.00  0.00     0.275 HD
HETATM    9  H           1     -34.022   1.364 -14.944  0.00  0.00     0.275 HD
ENDBRANCH   5   6
BRANCH   5  10
HETATM   10  C           1     -36.653   0.264 -15.870  0.00  0.00     0.045 C 
BRANCH  10  11
HETATM   11 Se           1     -35.658  -1.215 -16.659  0.00  0.00     0.000 Se
HETATM   12  H           1     -36.330  -2.248 -15.854  0.00  0.00     0.000 HD
ENDBRANCH  10  11
ENDBRANCH   5  10
ENDBRANCH   1   5
BRANCH   2  13
HETATM   13  C           1     -36.418  -0.843 -11.101  0.00  0.00     0.185 C 
BRANCH  13  14
HETATM   14  C           1     -36.863   0.096 -10.006  0.00  0.00     0.196 C 
HETATM   15  O           1     -36.285   0.083  -8.898  0.00  0.00    -0.646 OA
HETATM   16  O           1     -37.810   0.887 -10.209  0.00  0.00    -0.646 OA
ENDBRANCH  13  14
BRANCH  13  17
HETATM   17  C           1     -35.336  -1.770 -10.565  0.00  0.00     0.036 C 
BRANCH  17  18
HETATM   18  C           1     -35.091  -2.895 -11.561  0.00  0.00     0.003 C 
BRANCH  18  19
HETATM   19 Se           1     -33.241  -3.495 -11.425  0.00  0.00     0.000 Se
HETATM   20  C           1     -33.699  -5.333 -10.969  0.00  0.00     0.000 C 
ENDBRANCH  18  19
ENDBRANCH  17  18
ENDBRANCH  13  17
ENDBRANCH   2  13
TORSDOF 9
ENDMDL
MODEL 3
REMARK VINA RESULT:      -4.8      2.990      5.398
REMARK  9 active torsions:
REMARK  status: ('A' for Active; 'I' for Inactive)
REMARK    1  A    between atoms: N_1  and  C_4 
REMARK    2  A    between atoms: Se_2  and  C_3 
REMARK    3  A    between atoms: C_3  and  C_4 
REMARK    4  A    between atoms: C_4  and  C_5 
REMARK       I    between atoms: C_5  and  N_6 
REMARK    5  A    between atoms: N_6  and  C_10 
REMARK    6  A    between atoms: C_9  and  C_10 
REMARK    7  A    between atoms: C_10  and  C_19 
REMARK    8  A    between atoms: Se_17  and  C_20 
REMARK    9  A    between atoms: C_19  and  C_20 
ROOT
HETATM    1  C           1     -34.260  -2.562 -12.474  0.00  0.00     0.249 C 
HETATM    2  N           1     -34.852  -1.355 -12.215  0.00  0.00    -0.345 N 
HETATM    3  H           1     -34.630  -0.854 -11.364  0.00  0.00     0.163 HD
HETATM    4  O           1     -34.526  -3.159 -13.490  0.00  0.00    -0.271 OA
ENDROOT
BRANCH   1   5
HETATM    5  C           1     -33.274  -3.145 -11.492  0.00  0.00     0.274 C 
BRANCH   5   6
HETATM    6  N           1     -33.914  -3.238 -10.138  0.00  0.00    -0.067 N 
HETATM    7  H           1     -34.510  -2.395  -9.976  0.00  0.00     0.275 HD
HETATM    8  H           1     -34.506  -4.096 -10.091  0.00  0.00     0.275 HD
HETATM    9  H           1     -33.171  -3.285  -9.405  0.00  0.00     0.275 HD
ENDBRANCH   5   6
BRANCH   5  10
HETATM   10  C           1     -32.859  -4.535 -11.953  0.00  0.00     0.045 C 
BRANCH  10  11
HETATM   11 Se           1     -33.890  -5.877 -10.986  0.00  0.00     0.000 Se
HETATM   12  H           1     -35.140  -5.100 -11.010  0.00  0.00     0.000 HD
ENDBRANCH  10  11
ENDBRANCH   5  10
ENDBRANCH   1   5
BRANCH   2  13
HETATM   13  C           1     -35.800  -0.794 -13.159  0.00  0.00     0.185 C 
BRANCH  13  14
HETATM   14  C           1     -35.094   0.201 -14.047  0.00  0.00     0.196 C 
HETATM   15  O           1     -34.739   1.308 -13.587  0.00  0.00    -0.646 OA
HETATM   16  O           1     -34.866  -0.081 -15.243  0.00  0.00    -0.646 OA
ENDBRANCH  13  14
BRANCH  13  17
HETATM   17  C           1     -36.918  -0.093 -12.399  0.00  0.00     0.036 C 
BRANCH  17  18
HETATM   18  C           1     -36.991  -0.642 -10.981  0.00  0.00     0.003 C 
BRANCH  18  19
HETATM   19 Se           1     -37.686   0.732  -9.786  0.00  0.00     0.000 Se
HETATM   20  C           1     -36.612   0.176  -8.257  0.00  0.00     0.000 C 
ENDBRANCH  18  19
ENDBRANCH  17  18
ENDBRANCH  13  17
ENDBRANCH   2  13
TORSDOF 9
ENDMDL
MODEL 4
REMARK VINA RESULT:      -4.7     14.456     16.789
REMARK  9 active torsions:
REMARK  status: ('A' for Active; 'I' for Inactive)
REMARK    1  A    between atoms: N_1  and  C_4 
REMARK    2  A    between atoms: Se_2  and  C_3 
REMARK    3  A    between atoms: C_3  and  C_4 
REMARK    4  A    between atoms: C_4  and  C_5 
REMARK       I    between atoms: C_5  and  N_6 
REMARK    5  A    between atoms: N_6  and  C_10 
REMARK    6  A    between atoms: C_9  and  C_10 
REMARK    7  A    between atoms: C_10  and  C_19 
REMARK    8  A    between atoms: Se_17  and  C_20 
REMARK    9  A    between atoms: C_19  and  C_20 
ROOT
HETATM    1  C           1     -21.455  -6.504  -4.290  0.00  0.00     0.249 C 
HETATM    2  N           1     -21.000  -5.444  -5.027  0.00  0.00    -0.345 N 
HETATM    3  H           1     -20.544  -4.666  -4.567  0.00  0.00     0.163 HD
HETATM    4  O           1     -21.999  -7.433  -4.839  0.00  0.00    -0.271 OA
ENDROOT
BRANCH   1   5
HETATM    5  C           1     -21.277  -6.514  -2.791  0.00  0.00     0.274 C 
BRANCH   5   6
HETATM    6  N           1     -22.452  -5.839  -2.145  0.00  0.00    -0.067 N 
HETATM    7  H           1     -22.762  -6.396  -1.317  0.00  0.00     0.275 HD
HETATM    8  H           1     -22.175  -4.881  -1.835  0.00  0.00     0.275 HD
HETATM    9  H           1     -23.235  -5.771  -2.833  0.00  0.00     0.275 HD
ENDBRANCH   5   6
BRANCH   5  10
HETATM   10  C           1     -21.185  -7.952  -2.299  0.00  0.00     0.045 C 
BRANCH  10  11
HETATM   11 Se           1     -21.887  -8.066  -0.485  0.00  0.00     0.000 Se
HETATM   12  H           1     -20.560  -8.101   0.150  0.00  0.00     0.000 HD
ENDBRANCH  10  11
ENDBRANCH   5  10
ENDBRANCH   1   5
BRANCH   2  13
HETATM   13  C           1     -21.171  -5.435  -6.467  0.00  0.00     0.185 C 
BRANCH  13  14
HETATM   14  C           1     -19.847  -5.722  -7.131  0.00  0.00     0.196 C 
HETATM   15  O           1     -19.355  -6.870  -7.076  0.00  0.00    -0.646 OA
HETATM   16  O           1     -19.241  -4.811  -7.735  0.00  0.00    -0.646 OA
ENDBRANCH  13  14
BRANCH  13  17
HETATM   17  C           1     -21.675  -4.068  -6.909  0.00  0.00     0.036 C 
BRANCH  17  18
HETATM   18  C           1     -22.858  -4.242  -7.851  0.00  0.00     0.003 C 
BRANCH  18  19
HETATM   19 Se           1     -22.252  -4.076  -9.696  0.00  0.00     0.000 Se
HETATM   20  C           1     -23.961  -4.593 -10.476  0.00  0.00     0.000 C 
ENDBRANCH  18  19
ENDBRANCH  17  18
ENDBRANCH  13  17
ENDBRANCH   2  13
TORSDOF 9
ENDMDL
MODEL 5
REMARK VINA RESULT:      -4.6     13.717     15.218
REMARK  9 active torsions:
REMARK  status: ('A' for Active; 'I' for Inactive)
REMARK    1  A    between atoms: N_1  and  C_4 
REMARK    2  A    between atoms: Se_2  and  C_3 
REMARK    3  A    between atoms: C_3  and  C_4 
REMARK    4  A    between atoms: C_4  and  C_5 
REMARK       I    between atoms: C_5  and  N_6 
REMARK    5  A    between atoms: N_6  and  C_10 
REMARK    6  A    between atoms: C_9  and  C_10 
REMARK    7  A    between atoms: C_10  and  C_19 
REMARK    8  A    between atoms: Se_17  and  C_20 
REMARK    9  A    between atoms: C_19  and  C_20 
ROOT
HETATM    1  C           1     -22.331  -4.189  -8.040  0.00  0.00     0.249 C 
HETATM    2  N           1     -22.117  -5.379  -7.399  0.00  0.00    -0.345 N 
HETATM    3  H           1     -22.556  -6.225  -7.740  0.00  0.00     0.163 HD
HETATM    4  O           1     -21.807  -3.180  -7.632  0.00  0.00    -0.271 OA
ENDROOT
BRANCH   1   5
HETATM    5  C           1     -23.222  -4.136  -9.257  0.00  0.00     0.274 C 
BRANCH   5   6
HETATM    6  N           1     -24.482  -3.393  -8.921  0.00  0.00    -0.067 N 
HETATM    7  H           1     -24.740  -2.767  -9.717  0.00  0.00     0.275 HD
HETATM    8  H           1     -25.254  -4.075  -8.750  0.00  0.00     0.275 HD
HETATM    9  H           1     -24.328  -2.818  -8.062  0.00  0.00     0.275 HD
ENDBRANCH   5   6
BRANCH   5  10
HETATM   10  C           1     -22.497  -3.420 -10.387  0.00  0.00     0.045 C 
BRANCH  10  11
HETATM   11 Se           1     -20.840  -4.361 -10.796  0.00  0.00     0.000 Se
HETATM   12  H           1     -20.312  -4.264  -9.426  0.00  0.00     0.000 HD
ENDBRANCH  10  11
ENDBRANCH   5  10
ENDBRANCH   1   5
BRANCH   2  13
HETATM   13  C           1     -21.260  -5.430  -6.229  0.00  0.00     0.185 C 
BRANCH  13  14
HETATM   14  C           1     -19.880  -5.883  -6.637  0.00  0.00     0.196 C 
HETATM   15  O           1     -19.589  -7.099  -6.611  0.00  0.00    -0.646 OA
HETATM   16  O           1     -19.029  -5.044  -7.000  0.00  0.00    -0.646 OA
ENDBRANCH  13  14
BRANCH  13  17
HETATM   17  C           1     -21.839  -6.410  -5.218  0.00  0.00     0.036 C 
BRANCH  17  18
HETATM   18  C           1     -21.381  -6.027  -3.818  0.00  0.00     0.003 C 
BRANCH  18  19
HETATM   19 Se           1     -21.252  -7.628  -2.714  0.00  0.00     0.000 Se
HETATM   20  C           1     -22.215  -6.863  -1.203  0.00  0.00     0.000 C 
ENDBRANCH  18  19
ENDBRANCH  17  18
ENDBRANCH  13  17
ENDBRANCH   2  13
TORSDOF 9
ENDMDL
MODEL 6
REMARK VINA RESULT:      -4.5     15.061     16.479
REMARK  9 active torsions:
REMARK  status: ('A' for Active; 'I' for Inactive)
REMARK    1  A    between atoms: N_1  and  C_4 
REMARK    2  A    between atoms: Se_2  and  C_3 
REMARK    3  A    between atoms: C_3  and  C_4 
REMARK    4  A    between atoms: C_4  and  C_5 
REMARK       I    between atoms: C_5  and  N_6 
REMARK    5  A    between atoms: N_6  and  C_10 
REMARK    6  A    between atoms: C_9  and  C_10 
REMARK    7  A    between atoms: C_10  and  C_19 
REMARK    8  A    between atoms: Se_17  and  C_20 
REMARK    9  A    between atoms: C_19  and  C_20 
ROOT
HETATM    1  C           1     -20.959  -5.207  -6.692  0.00  0.00     0.249 C 
HETATM    2  N           1     -21.207  -6.479  -6.251  0.00  0.00    -0.345 N 
HETATM    3  H           1     -21.713  -7.129  -6.839  0.00  0.00     0.163 HD
HETATM    4  O           1     -20.355  -4.431  -5.990  0.00  0.00    -0.271 OA
ENDROOT
BRANCH   1   5
HETATM    5  C           1     -21.440  -4.773  -8.055  0.00  0.00     0.274 C 
BRANCH   5   6
HETATM    6  N           1     -22.301  -3.552  -7.915  0.00  0.00    -0.067 N 
HETATM    7  H           1     -23.229  -3.824  -7.518  0.00  0.00     0.275 HD
HETATM    8  H           1     -21.836  -2.870  -7.276  0.00  0.00     0.275 HD
HETATM    9  H           1     -22.439  -3.115  -8.854  0.00  0.00     0.275 HD
ENDBRANCH   5   6
BRANCH   5  10
HETATM   10  C           1     -20.242  -4.451  -8.938  0.00  0.00     0.045 C 
BRANCH  10  11
HETATM   11 Se           1     -20.849  -4.101 -10.757  0.00  0.00     0.000 Se
HETATM   12  H           1     -22.241  -3.830 -10.363  0.00  0.00     0.000 HD
ENDBRANCH  10  11
ENDBRANCH   5  10
ENDBRANCH   1   5
BRANCH   2  13
HETATM   13  C           1     -20.745  -6.895  -4.941  0.00  0.00     0.185 C 
BRANCH  13  14
HETATM   14  C           1     -20.210  -8.304  -5.022  0.00  0.00     0.196 C 
HETATM   15  O           1     -19.228  -8.641  -4.325  0.00  0.00    -0.646 OA
HETATM   16  O           1     -20.748  -9.133  -5.787  0.00  0.00    -0.646 OA
ENDBRANCH  13  14
BRANCH  13  17
HETATM   17  C           1     -21.905  -6.849  -3.956  0.00  0.00     0.036 C 
BRANCH  17  18
HETATM   18  C           1     -21.482  -6.086  -2.707  0.00  0.00     0.003 C 
BRANCH  18  19
HETATM   19 Se           1     -22.252  -6.937  -1.132  0.00  0.00     0.000 Se
HETATM   20  C           1     -21.418  -8.668  -1.457  0.00  0.00     0.000 C 
ENDBRANCH  18  19
ENDBRANCH  17  18
ENDBRANCH  13  17
ENDBRANCH   2  13
TORSDOF 9
ENDMDL
MODEL 7
REMARK VINA RESULT:      -4.4      3.849      4.847
REMARK  9 active torsions:
REMARK  status: ('A' for Active; 'I' for Inactive)
REMARK    1  A    between atoms: N_1  and  C_4 
REMARK    2  A    between atoms: Se_2  and  C_3 
REMARK    3  A    between atoms: C_3  and  C_4 
REMARK    4  A    between atoms: C_4  and  C_5 
REMARK       I    between atoms: C_5  and  N_6 
REMARK    5  A    between atoms: N_6  and  C_10 
REMARK    6  A    between atoms: C_9  and  C_10 
REMARK    7  A    between atoms: C_10  and  C_19 
REMARK    8  A    between atoms: Se_17  and  C_20 
REMARK    9  A    between atoms: C_19  and  C_20 
ROOT
HETATM    1  C           1     -36.799   0.230 -10.072  0.00  0.00     0.249 C 
HETATM    2  N           1     -36.458  -0.968 -10.641  0.00  0.00    -0.345 N 
HETATM    3  H           1     -36.998  -1.798 -10.435  0.00  0.00     0.163 HD
HETATM    4  O           1     -36.154   1.221 -10.318  0.00  0.00    -0.271 OA
ENDROOT
BRANCH   1   5
HETATM    5  C           1     -37.981   0.313  -9.137  0.00  0.00     0.274 C 
BRANCH   5   6
HETATM    6  N           1     -37.952  -0.853  -8.192  0.00  0.00    -0.067 N 
HETATM    7  H           1     -38.921  -1.054  -7.857  0.00  0.00     0.275 HD
HETATM    8  H           1     -37.574  -1.691  -8.685  0.00  0.00     0.275 HD
HETATM    9  H           1     -37.341  -0.622  -7.376  0.00  0.00     0.275 HD
ENDBRANCH   5   6
BRANCH   5  10
HETATM   10  C           1     -37.913   1.611  -8.345  0.00  0.00     0.045 C 
BRANCH  10  11
HETATM   11 Se           1     -37.382   1.226  -6.510  0.00  0.00     0.000 Se
HETATM   12  H           1     -36.905  -0.133  -6.811  0.00  0.00     0.000 HD
ENDBRANCH  10  11
ENDBRANCH   5  10
ENDBRANCH   1   5
BRANCH   2  13
HETATM   13  C           1     -35.322  -1.047 -11.539  0.00  0.00     0.185 C 
BRANCH  13  14
HETATM   14  C           1     -35.813  -1.227 -12.955  0.00  0.00     0.196 C 
HETATM   15  O           1     -36.994  -0.940 -13.248  0.00  0.00    -0.646 OA
HETATM   16  O           1     -35.039  -1.665 -13.833  0.00  0.00    -0.646 OA
ENDBRANCH  13  14
BRANCH  13  17
HETATM   17  C           1     -34.449  -2.232 -11.149  0.00  0.00     0.036 C 
BRANCH  17  18
HETATM   18  C           1     -35.315  -3.475 -11.001  0.00  0.00     0.003 C 
BRANCH  18  19
HETATM   19 Se           1     -34.178  -5.056 -10.934  0.00  0.00     0.000 Se
HETATM   20  C           1     -32.719  -4.251 -11.944  0.00  0.00     0.000 C 
ENDBRANCH  18  19
ENDBRANCH  17  18
ENDBRANCH  13  17
ENDBRANCH   2  13
TORSDOF 9
ENDMDL
MODEL 8
REMARK VINA RESULT:      -4.2     15.252     16.903
REMARK  9 active torsions:
REMARK  status: ('A' for Active; 'I' for Inactive)
REMARK    1  A    between atoms: N_1  and  C_4 
REMARK    2  A    between atoms: Se_2  and  C_3 
REMARK    3  A    between atoms: C_3  and  C_4 
REMARK    4  A    between atoms: C_4  and  C_5 
REMARK       I    between atoms: C_5  and  N_6 
REMARK    5  A    between atoms: N_6  and  C_10 
REMARK    6  A    between atoms: C_9  and  C_10 
REMARK    7  A    between atoms: C_10  and  C_19 
REMARK    8  A    between atoms: Se_17  and  C_20 
REMARK    9  A    between atoms: C_19  and  C_20 
ROOT
HETATM    1  C           1     -21.381  -5.784  -5.668  0.00  0.00     0.249 C 
HETATM    2  N           1     -20.843  -6.711  -4.816  0.00  0.00    -0.345 N 
HETATM    3  H           1     -19.843  -6.866  -4.801  0.00  0.00     0.163 HD
HETATM    4  O           1     -22.574  -5.600  -5.685  0.00  0.00    -0.271 OA
ENDROOT
BRANCH   1   5
HETATM    5  C           1     -20.482  -4.992  -6.586  0.00  0.00     0.274 C 
BRANCH   5   6
HETATM    6  N           1     -19.974  -5.886  -7.679  0.00  0.00    -0.067 N 
HETATM    7  H           1     -19.060  -6.304  -7.391  0.00  0.00     0.275 HD
HETATM    8  H           1     -20.665  -6.648  -7.855  0.00  0.00     0.275 HD
HETATM    9  H           1     -19.841  -5.326  -8.551  0.00  0.00     0.275 HD
ENDBRANCH   5   6
BRANCH   5  10
HETATM   10  C           1     -21.268  -3.840  -7.197  0.00  0.00     0.045 C 
BRANCH  10  11
HETATM   11 Se           1     -21.787  -4.300  -9.019  0.00  0.00     0.000 Se
HETATM   12  H           1     -23.026  -4.984  -8.617  0.00  0.00     0.000 HD
ENDBRANCH  10  11
ENDBRANCH   5  10
ENDBRANCH   1   5
BRANCH   2  13
HETATM   13  C           1     -21.706  -7.472  -3.933  0.00  0.00     0.185 C 
BRANCH  13  14
HETATM   14  C           1     -21.634  -6.896  -2.541  0.00  0.00     0.196 C 
HETATM   15  O           1     -22.340  -5.911  -2.234  0.00  0.00    -0.646 OA
HETATM   16  O           1     -20.867  -7.403  -1.694  0.00  0.00    -0.646 OA
ENDBRANCH  13  14
BRANCH  13  17
HETATM   17  C           1     -21.249  -8.925  -3.906  0.00  0.00     0.036 C 
BRANCH  17  18
HETATM   18  C           1     -19.992  -9.079  -4.751  0.00  0.00     0.003 C 
BRANCH  18  19
HETATM   19 Se           1     -18.468  -9.437  -3.591  0.00  0.00     0.000 Se
HETATM   20  C           1     -19.454 -10.603  -2.381  0.00  0.00     0.000 C 
ENDBRANCH  18  19
ENDBRANCH  17  18
ENDBRANCH  13  17
ENDBRANCH   2  13
TORSDOF 9
ENDMDL
MODEL 9
REMARK VINA RESULT:      -4.1     15.193     16.530
REMARK  9 active torsions:
REMARK  status: ('A' for Active; 'I' for Inactive)
REMARK    1  A    between atoms: N_1  and  C_4 
REMARK    2  A    between atoms: Se_2  and  C_3 
REMARK    3  A    between atoms: C_3  and  C_4 
REMARK    4  A    between atoms: C_4  and  C_5 
REMARK       I    between atoms: C_5  and  N_6 
REMARK    5  A    between atoms: N_6  and  C_10 
REMARK    6  A    between atoms: C_9  and  C_10 
REMARK    7  A    between atoms: C_10  and  C_19 
REMARK    8  A    between atoms: Se_17  and  C_20 
REMARK    9  A    between atoms: C_19  and  C_20 
ROOT
HETATM    1  C           1     -21.432  -5.874  -5.568  0.00  0.00     0.249 C 
HETATM    2  N           1     -20.817  -6.746  -4.710  0.00  0.00    -0.345 N 
HETATM    3  H           1     -19.809  -6.826  -4.706  0.00  0.00     0.163 HD
HETATM    4  O           1     -22.636  -5.779  -5.572  0.00  0.00    -0.271 OA
ENDROOT
BRANCH   1   5
HETATM    5  C           1     -20.606  -5.030  -6.508  0.00  0.00     0.274 C 
BRANCH   5   6
HETATM    6  N           1     -19.984  -5.911  -7.552  0.00  0.00    -0.067 N 
HETATM    7  H           1     -19.519  -5.318  -8.276  0.00  0.00     0.275 HD
HETATM    8  H           1     -19.276  -6.534  -7.105  0.00  0.00     0.275 HD
HETATM    9  H           1     -20.726  -6.493  -8.002  0.00  0.00     0.275 HD
ENDBRANCH   5   6
BRANCH   5  10
HETATM   10  C           1     -21.498  -3.997  -7.181  0.00  0.00     0.045 C 
BRANCH  10  11
HETATM   11 Se           1     -21.523  -4.313  -9.104  0.00  0.00     0.000 Se
HETATM   12  H           1     -20.318  -3.509  -9.368  0.00  0.00     0.000 HD
ENDBRANCH  10  11
ENDBRANCH   5  10
ENDBRANCH   1   5
BRANCH   2  13
HETATM   13  C           1     -21.611  -7.556  -3.807  0.00  0.00     0.185 C 
BRANCH  13  14
HETATM   14  C           1     -21.620  -6.921  -2.438  0.00  0.00     0.196 C 
HETATM   15  O           1     -22.282  -5.880  -2.236  0.00  0.00    -0.646 OA
HETATM   16  O           1     -20.963  -7.435  -1.507  0.00  0.00    -0.646 OA
ENDBRANCH  13  14
BRANCH  13  17
HETATM   17  C           1     -21.009  -8.952  -3.715  0.00  0.00     0.036 C 
BRANCH  17  18
HETATM   18  C           1     -21.035  -9.608  -5.088  0.00  0.00     0.003 C 
BRANCH  18  19
HETATM   19 Se           1     -21.524 -11.486  -4.903  0.00  0.00     0.000 Se
HETATM   20  C           1     -22.738 -11.191  -3.407  0.00  0.00     0.000 C 
ENDBRANCH  18  19
ENDBRANCH  17  18
ENDBRANCH  13  17
ENDBRANCH   2  13
TORSDOF 9
ENDMDL
