MODEL 1
REMARK VINA RESULT:      -6.3      0.000      0.000
REMARK  10 active torsions:
REMARK  status: ('A' for Active; 'I' for Inactive)
REMARK    1  A    between atoms: C_2  and  O_16 
REMARK    2  A    between atoms: C_2  and  C_10 
REMARK    3  A    between atoms: C_3  and  C_8 
REMARK    4  A    between atoms: C_3  and  C_15 
REMARK       I    between atoms: C_5  and  N_6 
REMARK    5  A    between atoms: C_5  and  C_11 
REMARK    6  A    between atoms: N_6  and  C_10 
REMARK    7  A    between atoms: C_8  and  C_11 
REMARK    8  A    between atoms: C_10  and  C_12 
REMARK    9  A    between atoms: C_11  and  N_13 
REMARK   10  A    between atoms: C_15  and  N_19 
ROOT
HETATM    1  C           1     -34.327  -2.344 -12.015  0.00  0.00     0.274 C 
ENDROOT
BRANCH   1   2
HETATM    2  C           1     -35.301  -1.579 -12.876  0.00  0.00     0.249 C 
HETATM    3  N           1     -34.895  -1.066 -14.079  0.00  0.00    -0.343 N 
HETATM    4  H           1     -33.941  -1.200 -14.390  0.00  0.00     0.163 HD
HETATM    5  O           1     -36.440  -1.419 -12.505  0.00  0.00    -0.271 OA
BRANCH   3   6
HETATM    6  C           1     -35.832  -0.331 -14.907  0.00  0.00     0.209 C 
BRANCH   6   7
HETATM    7  C           1     -35.391   1.124 -14.999  0.00  0.00     0.200 C 
BRANCH   7   8
HETATM    8  O           1     -36.175   1.790 -15.951  0.00  0.00    -0.398 OA
HETATM    9  H           1     -36.754   1.149 -16.327  0.00  0.00     0.209 HD
ENDBRANCH   7   8
ENDBRANCH   6   7
BRANCH   6  10
HETATM   10  C           1     -35.863  -0.936 -16.288  0.00  0.00     0.198 C 
HETATM   11  O           1     -34.906  -1.634 -16.687  0.00  0.00    -0.646 OA
HETATM   12  O           1     -36.847  -0.741 -17.034  0.00  0.00    -0.646 OA
ENDBRANCH   6  10
ENDBRANCH   3   6
ENDBRANCH   1   2
BRANCH   1  13
HETATM   13  C           1     -35.011  -3.583 -11.450  0.00  0.00     0.044 C 
BRANCH  13  14
HETATM   14  C           1     -34.019  -4.372 -10.605  0.00  0.00     0.030 C 
BRANCH  14  15
HETATM   15  C           1     -34.037  -5.834 -11.033  0.00  0.00     0.230 C 
BRANCH  15  16
HETATM   16  N           1     -34.779  -5.967 -12.330  0.00  0.00    -0.079 N 
HETATM   17  H           1     -34.862  -5.029 -12.781  0.00  0.00     0.274 HD
HETATM   18  H           1     -34.258  -6.614 -12.964  0.00  0.00     0.274 HD
HETATM   19  H           1     -35.733  -6.352 -12.147  0.00  0.00     0.274 HD
ENDBRANCH  15  16
ENDBRANCH  14  15
ENDBRANCH  13  14
ENDBRANCH   1  13
BRANCH   1  20
HETATM   20  N           1     -33.866  -1.471 -10.886  0.00  0.00    -0.067 N 
HETATM   21  H           1     -32.837  -1.306 -10.971  0.00  0.00     0.275 HD
HETATM   22  H           1     -34.369  -0.555 -10.925  0.00  0.00     0.275 HD
HETATM   23  H           1     -34.071  -1.941  -9.976  0.00  0.00     0.275 HD
ENDBRANCH   1  20
TORSDOF 10
ENDMDL
MODEL 2
REMARK VINA RESULT:      -6.0      1.967      2.498
REMARK  10 active torsions:
REMARK  status: ('A' for Active; 'I' for Inactive)
REMARK    1  A    between atoms: C_2  and  O_16 
REMARK    2  A    between atoms: C_2  and  C_10 
REMARK    3  A    between atoms: C_3  and  C_8 
REMARK    4  A    between atoms: C_3  and  C_15 
REMARK       I    between atoms: C_5  and  N_6 
REMARK    5  A    between atoms: C_5  and  C_11 
REMARK    6  A    between atoms: N_6  and  C_10 
REMARK    7  A    between atoms: C_8  and  C_11 
REMARK    8  A    between atoms: C_10  and  C_12 
REMARK    9  A    between atoms: C_11  and  N_13 
REMARK   10  A    between atoms: C_15  and  N_19 
ROOT
HETATM    1  C           1     -34.137  -3.897 -12.715  0.00  0.00     0.274 C 
ENDROOT
BRANCH   1   2
HETATM    2  C           1     -34.594  -2.482 -12.453  0.00  0.00     0.249 C 
HETATM    3  N           1     -34.923  -1.664 -13.500  0.00  0.00    -0.343 N 
HETATM    4  H           1     -34.858  -2.008 -14.450  0.00  0.00     0.163 HD
HETATM    5  O           1     -34.671  -2.072 -11.319  0.00  0.00    -0.271 OA
BRANCH   3   6
HETATM    6  C           1     -35.362  -0.306 -13.249  0.00  0.00     0.209 C 
BRANCH   6   7
HETATM    7  C           1     -34.847   0.606 -14.355  0.00  0.00     0.200 C 
BRANCH   7   8
HETATM    8  O           1     -35.889   1.425 -14.810  0.00  0.00    -0.398 OA
HETATM    9  H           1     -36.041   2.072 -14.142  0.00  0.00     0.209 HD
ENDBRANCH   7   8
ENDBRANCH   6   7
BRANCH   6  10
HETATM   10  C           1     -36.870  -0.262 -13.222  0.00  0.00     0.198 C 
HETATM   11  O           1     -37.462   0.292 -12.272  0.00  0.00    -0.646 OA
HETATM   12  O           1     -37.527  -0.781 -14.151  0.00  0.00    -0.646 OA
ENDBRANCH   6  10
ENDBRANCH   3   6
ENDBRANCH   1   2
BRANCH   1  13
HETATM   13  C           1     -32.966  -4.230 -11.798  0.00  0.00     0.044 C 
BRANCH  13  14
HETATM   14  C           1     -33.189  -5.598 -11.167  0.00  0.00     0.030 C 
BRANCH  14  15
HETATM   15  C           1     -34.652  -5.995 -11.316  0.00  0.00     0.230 C 
BRANCH  15  16
HETATM   16  N           1     -34.792  -7.475 -11.115  0.00  0.00    -0.079 N 
HETATM   17  H           1     -35.404  -7.871 -11.863  0.00  0.00     0.274 HD
HETATM   18  H           1     -33.849  -7.923 -11.162  0.00  0.00     0.274 HD
HETATM   19  H           1     -35.219  -7.660 -10.179  0.00  0.00     0.274 HD
ENDBRANCH  15  16
ENDBRANCH  14  15
ENDBRANCH  13  14
ENDBRANCH   1  13
BRANCH   1  20
HETATM   20  N           1     -33.703  -4.024 -14.145  0.00  0.00    -0.067 N 
HETATM   21  H           1     -33.171  -4.915 -14.269  0.00  0.00     0.275 HD
HETATM   22  H           1     -34.544  -4.032 -14.765  0.00  0.00     0.275 HD
HETATM   23  H           1     -33.093  -3.214 -14.397  0.00  0.00     0.275 HD
ENDBRANCH   1  20
TORSDOF 10
ENDMDL
MODEL 3
REMARK VINA RESULT:      -6.0     13.312     14.652
REMARK  10 active torsions:
REMARK  status: ('A' for Active; 'I' for Inactive)
REMARK    1  A    between atoms: C_2  and  O_16 
REMARK    2  A    between atoms: C_2  and  C_10 
REMARK    3  A    between atoms: C_3  and  C_8 
REMARK    4  A    between atoms: C_3  and  C_15 
REMARK       I    between atoms: C_5  and  N_6 
REMARK    5  A    between atoms: C_5  and  C_11 
REMARK    6  A    between atoms: N_6  and  C_10 
REMARK    7  A    between atoms: C_8  and  C_11 
REMARK    8  A    between atoms: C_10  and  C_12 
REMARK    9  A    between atoms: C_11  and  N_13 
REMARK   10  A    between atoms: C_15  and  N_19 
ROOT
HETATM    1  C           1     -21.211  -5.786  -7.010  0.00  0.00     0.274 C 
ENDROOT
BRANCH   1   2
HETATM    2  C           1     -21.668  -4.618  -7.849  0.00  0.00     0.249 C 
HETATM    3  N           1     -22.112  -4.826  -9.128  0.00  0.00    -0.343 N 
HETATM    4  H           1     -22.133  -5.762  -9.510  0.00  0.00     0.163 HD
HETATM    5  O           1     -21.641  -3.499  -7.393  0.00  0.00    -0.271 OA
BRANCH   3   6
HETATM    6  C           1     -22.550  -3.703  -9.934  0.00  0.00     0.209 C 
BRANCH   6   7
HETATM    7  C           1     -21.732  -3.652 -11.218  0.00  0.00     0.200 C 
BRANCH   7   8
HETATM    8  O           1     -22.414  -4.337 -12.234  0.00  0.00    -0.398 OA
HETATM    9  H           1     -21.974  -5.161 -12.352  0.00  0.00     0.209 HD
ENDBRANCH   7   8
ENDBRANCH   6   7
BRANCH   6  10
HETATM   10  C           1     -24.011  -3.869 -10.273  0.00  0.00     0.198 C 
HETATM   11  O           1     -24.644  -2.923 -10.790  0.00  0.00    -0.646 OA
HETATM   12  O           1     -24.588  -4.953 -10.038  0.00  0.00    -0.646 OA
ENDBRANCH   6  10
ENDBRANCH   3   6
ENDBRANCH   1   2
BRANCH   1  13
HETATM   13  C           1     -21.132  -5.362  -5.549  0.00  0.00     0.044 C 
BRANCH  13  14
HETATM   14  C           1     -21.990  -6.293  -4.702  0.00  0.00     0.030 C 
BRANCH  14  15
HETATM   15  C           1     -21.395  -6.400  -3.303  0.00  0.00     0.230 C 
BRANCH  15  16
HETATM   16  N           1     -22.395  -5.914  -2.296  0.00  0.00    -0.079 N 
HETATM   17  H           1     -21.896  -5.432  -1.515  0.00  0.00     0.274 HD
HETATM   18  H           1     -23.053  -5.244  -2.755  0.00  0.00     0.274 HD
HETATM   19  H           1     -22.932  -6.726  -1.918  0.00  0.00     0.274 HD
ENDBRANCH  15  16
ENDBRANCH  14  15
ENDBRANCH  13  14
ENDBRANCH   1  13
BRANCH   1  20
HETATM   20  N           1     -19.857  -6.235  -7.474  0.00  0.00    -0.067 N 
HETATM   21  H           1     -19.127  -5.597  -7.083  0.00  0.00     0.275 HD
HETATM   22  H           1     -19.680  -7.210  -7.142  0.00  0.00     0.275 HD
HETATM   23  H           1     -19.821  -6.210  -8.518  0.00  0.00     0.275 HD
ENDBRANCH   1  20
TORSDOF 10
ENDMDL
MODEL 4
REMARK VINA RESULT:      -5.7     11.335     12.440
REMARK  10 active torsions:
REMARK  status: ('A' for Active; 'I' for Inactive)
REMARK    1  A    between atoms: C_2  and  O_16 
REMARK    2  A    between atoms: C_2  and  C_10 
REMARK    3  A    between atoms: C_3  and  C_8 
REMARK    4  A    between atoms: C_3  and  C_15 
REMARK       I    between atoms: C_5  and  N_6 
REMARK    5  A    between atoms: C_5  and  C_11 
REMARK    6  A    between atoms: N_6  and  C_10 
REMARK    7  A    between atoms: C_8  and  C_11 
REMARK    8  A    between atoms: C_10  and  C_12 
REMARK    9  A    between atoms: C_11  and  N_13 
REMARK   10  A    between atoms: C_15  and  N_19 
ROOT
HETATM    1  C           1     -24.978  -6.897 -19.716  0.00  0.00     0.274 C 
ENDROOT
BRANCH   1   2
HETATM    2  C           1     -26.369  -6.666 -19.177  0.00  0.00     0.249 C 
HETATM    3  N           1     -26.560  -6.473 -17.835  0.00  0.00    -0.343 N 
HETATM    4  H           1     -25.769  -6.486 -17.205  0.00  0.00     0.163 HD
HETATM    5  O           1     -27.314  -6.651 -19.930  0.00  0.00    -0.271 OA
BRANCH   3   6
HETATM    6  C           1     -27.896  -6.251 -17.318  0.00  0.00     0.209 C 
BRANCH   6   7
HETATM    7  C           1     -27.999  -6.834 -15.915  0.00  0.00     0.200 C 
BRANCH   7   8
HETATM    8  O           1     -26.791  -7.462 -15.580  0.00  0.00    -0.398 OA
HETATM    9  H           1     -26.107  -7.002 -16.035  0.00  0.00     0.209 HD
ENDBRANCH   7   8
ENDBRANCH   6   7
BRANCH   6  10
HETATM   10  C           1     -28.176  -4.769 -17.269  0.00  0.00     0.198 C 
HETATM   11  O           1     -27.570  -4.046 -16.450  0.00  0.00    -0.646 OA
HETATM   12  O           1     -29.013  -4.265 -18.049  0.00  0.00    -0.646 OA
ENDBRANCH   6  10
ENDBRANCH   3   6
ENDBRANCH   1   2
BRANCH   1  13
HETATM   13  C           1     -25.037  -7.905 -20.857  0.00  0.00     0.044 C 
BRANCH  13  14
HETATM   14  C           1     -24.257  -7.367 -22.051  0.00  0.00     0.030 C 
BRANCH  14  15
HETATM   15  C           1     -23.233  -8.403 -22.498  0.00  0.00     0.230 C 
BRANCH  15  16
HETATM   16  N           1     -22.682  -9.112 -21.296  0.00  0.00    -0.079 N 
HETATM   17  H           1     -22.041  -8.470 -20.778  0.00  0.00     0.274 HD
HETATM   18  H           1     -23.468  -9.399 -20.670  0.00  0.00     0.274 HD
HETATM   19  H           1     -22.155  -9.959 -21.604  0.00  0.00     0.274 HD
ENDBRANCH  15  16
ENDBRANCH  14  15
ENDBRANCH  13  14
ENDBRANCH   1  13
BRANCH   1  20
HETATM   20  N           1     -24.102  -7.431 -18.622  0.00  0.00    -0.067 N 
HETATM   21  H           1     -24.045  -6.731 -17.848  0.00  0.00     0.275 HD
HETATM   22  H           1     -24.506  -8.322 -18.255  0.00  0.00     0.275 HD
HETATM   23  H           1     -23.145  -7.613 -19.000  0.00  0.00     0.275 HD
ENDBRANCH   1  20
TORSDOF 10
ENDMDL
MODEL 5
REMARK VINA RESULT:      -5.6      1.620      2.118
REMARK  10 active torsions:
REMARK  status: ('A' for Active; 'I' for Inactive)
REMARK    1  A    between atoms: C_2  and  O_16 
REMARK    2  A    between atoms: C_2  and  C_10 
REMARK    3  A    between atoms: C_3  and  C_8 
REMARK    4  A    between atoms: C_3  and  C_15 
REMARK       I    between atoms: C_5  and  N_6 
REMARK    5  A    between atoms: C_5  and  C_11 
REMARK    6  A    between atoms: N_6  and  C_10 
REMARK    7  A    between atoms: C_8  and  C_11 
REMARK    8  A    between atoms: C_10  and  C_12 
REMARK    9  A    between atoms: C_11  and  N_13 
REMARK   10  A    between atoms: C_15  and  N_19 
ROOT
HETATM    1  C           1     -34.065  -3.872 -11.958  0.00  0.00     0.274 C 
ENDROOT
BRANCH   1   2
HETATM    2  C           1     -34.975  -2.703 -12.245  0.00  0.00     0.249 C 
HETATM    3  N           1     -34.729  -1.893 -13.321  0.00  0.00    -0.343 N 
HETATM    4  H           1     -33.937  -2.078 -13.923  0.00  0.00     0.163 HD
HETATM    5  O           1     -35.920  -2.482 -11.525  0.00  0.00    -0.271 OA
BRANCH   3   6
HETATM    6  C           1     -35.603  -0.770 -13.597  0.00  0.00     0.209 C 
BRANCH   6   7
HETATM    7  C           1     -35.059   0.476 -12.910  0.00  0.00     0.200 C 
BRANCH   7   8
HETATM    8  O           1     -35.492   0.501 -11.576  0.00  0.00    -0.398 OA
HETATM    9  H           1     -36.367   0.153 -11.565  0.00  0.00     0.209 HD
ENDBRANCH   7   8
ENDBRANCH   6   7
BRANCH   6  10
HETATM   10  C           1     -35.667  -0.536 -15.086  0.00  0.00     0.198 C 
HETATM   11  O           1     -35.362  -1.456 -15.876  0.00  0.00    -0.646 OA
HETATM   12  O           1     -36.024   0.576 -15.530  0.00  0.00    -0.646 OA
ENDBRANCH   6  10
ENDBRANCH   3   6
ENDBRANCH   1   2
BRANCH   1  13
HETATM   13  C           1     -34.716  -4.781 -10.922  0.00  0.00     0.044 C 
BRANCH  13  14
HETATM   14  C           1     -33.945  -6.091 -10.839  0.00  0.00     0.030 C 
BRANCH  14  15
HETATM   15  C           1     -34.748  -7.104 -10.032  0.00  0.00     0.230 C 
BRANCH  15  16
HETATM   16  N           1     -34.165  -8.473 -10.224  0.00  0.00    -0.079 N 
HETATM   17  H           1     -34.934  -9.156 -10.405  0.00  0.00     0.274 HD
HETATM   18  H           1     -33.511  -8.461 -11.039  0.00  0.00     0.274 HD
HETATM   19  H           1     -33.644  -8.753  -9.364  0.00  0.00     0.274 HD
ENDBRANCH  15  16
ENDBRANCH  14  15
ENDBRANCH  13  14
ENDBRANCH   1  13
BRANCH   1  20
HETATM   20  N           1     -32.756  -3.367 -11.426  0.00  0.00    -0.067 N 
HETATM   21  H           1     -32.390  -4.035 -10.710  0.00  0.00     0.275 HD
HETATM   22  H           1     -32.069  -3.287 -12.210  0.00  0.00     0.275 HD
HETATM   23  H           1     -32.897  -2.429 -10.989  0.00  0.00     0.275 HD
ENDBRANCH   1  20
TORSDOF 10
ENDMDL
MODEL 6
REMARK VINA RESULT:      -5.5      2.882      4.219
REMARK  10 active torsions:
REMARK  status: ('A' for Active; 'I' for Inactive)
REMARK    1  A    between atoms: C_2  and  O_16 
REMARK    2  A    between atoms: C_2  and  C_10 
REMARK    3  A    between atoms: C_3  and  C_8 
REMARK    4  A    between atoms: C_3  and  C_15 
REMARK       I    between atoms: C_5  and  N_6 
REMARK    5  A    between atoms: C_5  and  C_11 
REMARK    6  A    between atoms: N_6  and  C_10 
REMARK    7  A    between atoms: C_8  and  C_11 
REMARK    8  A    between atoms: C_10  and  C_12 
REMARK    9  A    between atoms: C_11  and  N_13 
REMARK   10  A    between atoms: C_15  and  N_19 
ROOT
HETATM    1  C           1     -34.914  -5.252 -11.480  0.00  0.00     0.274 C 
ENDROOT
BRANCH   1   2
HETATM    2  C           1     -34.612  -3.792 -11.246  0.00  0.00     0.249 C 
HETATM    3  N           1     -35.593  -2.854 -11.421  0.00  0.00    -0.343 N 
HETATM    4  H           1     -36.521  -3.139 -11.708  0.00  0.00     0.163 HD
HETATM    5  O           1     -33.504  -3.451 -10.905  0.00  0.00    -0.271 OA
BRANCH   3   6
HETATM    6  C           1     -35.303  -1.451 -11.197  0.00  0.00     0.209 C 
BRANCH   6   7
HETATM    7  C           1     -34.914  -0.797 -12.517  0.00  0.00     0.200 C 
BRANCH   7   8
HETATM    8  O           1     -34.892   0.596 -12.360  0.00  0.00    -0.398 OA
HETATM    9  H           1     -33.987   0.857 -12.365  0.00  0.00     0.209 HD
ENDBRANCH   7   8
ENDBRANCH   6   7
BRANCH   6  10
HETATM   10  C           1     -36.527  -0.768 -10.638  0.00  0.00     0.198 C 
HETATM   11  O           1     -36.403   0.246  -9.919  0.00  0.00    -0.646 OA
HETATM   12  O           1     -37.665  -1.217 -10.896  0.00  0.00    -0.646 OA
ENDBRANCH   6  10
ENDBRANCH   3   6
ENDBRANCH   1   2
BRANCH   1  13
HETATM   13  C           1     -33.962  -6.107 -10.652  0.00  0.00     0.044 C 
BRANCH  13  14
HETATM   14  C           1     -34.755  -6.895  -9.617  0.00  0.00     0.030 C 
BRANCH  14  15
HETATM   15  C           1     -34.640  -8.384  -9.916  0.00  0.00     0.230 C 
BRANCH  15  16
HETATM   16  N           1     -33.228  -8.709 -10.305  0.00  0.00    -0.079 N 
HETATM   17  H           1     -32.869  -9.481  -9.699  0.00  0.00     0.274 HD
HETATM   18  H           1     -33.203  -9.011 -11.305  0.00  0.00     0.274 HD
HETATM   19  H           1     -32.629  -7.862 -10.183  0.00  0.00     0.274 HD
ENDBRANCH  15  16
ENDBRANCH  14  15
ENDBRANCH  13  14
ENDBRANCH   1  13
BRANCH   1  20
HETATM   20  N           1     -34.736  -5.572 -12.934  0.00  0.00    -0.067 N 
HETATM   21  H           1     -34.726  -4.685 -13.487  0.00  0.00     0.275 HD
HETATM   22  H           1     -33.832  -6.078 -13.072  0.00  0.00     0.275 HD
HETATM   23  H           1     -35.525  -6.176 -13.257  0.00  0.00     0.275 HD
ENDBRANCH   1  20
TORSDOF 10
ENDMDL
MODEL 7
REMARK VINA RESULT:      -5.5     10.464     11.515
REMARK  10 active torsions:
REMARK  status: ('A' for Active; 'I' for Inactive)
REMARK    1  A    between atoms: C_2  and  O_16 
REMARK    2  A    between atoms: C_2  and  C_10 
REMARK    3  A    between atoms: C_3  and  C_8 
REMARK    4  A    between atoms: C_3  and  C_15 
REMARK       I    between atoms: C_5  and  N_6 
REMARK    5  A    between atoms: C_5  and  C_11 
REMARK    6  A    between atoms: N_6  and  C_10 
REMARK    7  A    between atoms: C_8  and  C_11 
REMARK    8  A    between atoms: C_10  and  C_12 
REMARK    9  A    between atoms: C_11  and  N_13 
REMARK   10  A    between atoms: C_15  and  N_19 
ROOT
HETATM    1  C           1     -24.646  -6.756 -17.263  0.00  0.00     0.274 C 
ENDROOT
BRANCH   1   2
HETATM    2  C           1     -25.896  -6.892 -16.428  0.00  0.00     0.249 C 
HETATM    3  N           1     -27.103  -6.486 -16.931  0.00  0.00    -0.343 N 
HETATM    4  H           1     -27.157  -6.094 -17.862  0.00  0.00     0.163 HD
HETATM    5  O           1     -25.832  -7.360 -15.316  0.00  0.00    -0.271 OA
BRANCH   3   6
HETATM    6  C           1     -28.304  -6.618 -16.129  0.00  0.00     0.209 C 
BRANCH   6   7
HETATM    7  C           1     -28.614  -5.285 -15.460  0.00  0.00     0.200 C 
BRANCH   7   8
HETATM    8  O           1     -28.142  -4.237 -16.264  0.00  0.00    -0.398 OA
HETATM    9  H           1     -28.839  -3.607 -16.329  0.00  0.00     0.209 HD
ENDBRANCH   7   8
ENDBRANCH   6   7
BRANCH   6  10
HETATM   10  C           1     -29.458  -7.018 -17.015  0.00  0.00     0.198 C 
HETATM   11  O           1     -29.636  -8.220 -17.303  0.00  0.00    -0.646 OA
HETATM   12  O           1     -30.236  -6.146 -17.459  0.00  0.00    -0.646 OA
ENDBRANCH   6  10
ENDBRANCH   3   6
ENDBRANCH   1   2
BRANCH   1  13
HETATM   13  C           1     -25.012  -6.828 -18.741  0.00  0.00     0.044 C 
BRANCH  13  14
HETATM   14  C           1     -23.877  -7.487 -19.514  0.00  0.00     0.030 C 
BRANCH  14  15
HETATM   15  C           1     -24.388  -7.950 -20.872  0.00  0.00     0.230 C 
BRANCH  15  16
HETATM   16  N           1     -23.296  -8.681 -21.595  0.00  0.00    -0.079 N 
HETATM   17  H           1     -22.754  -9.258 -20.914  0.00  0.00     0.274 HD
HETATM   18  H           1     -23.716  -9.304 -22.322  0.00  0.00     0.274 HD
HETATM   19  H           1     -22.660  -7.991 -22.053  0.00  0.00     0.274 HD
ENDBRANCH  15  16
ENDBRANCH  14  15
ENDBRANCH  13  14
ENDBRANCH   1  13
BRANCH   1  20
HETATM   20  N           1     -23.698  -7.868 -16.929  0.00  0.00    -0.067 N 
HETATM   21  H           1     -24.219  -8.774 -16.904  0.00  0.00     0.275 HD
HETATM   22  H           1     -22.949  -7.918 -17.655  0.00  0.00     0.275 HD
HETATM   23  H           1     -23.266  -7.689 -15.994  0.00  0.00     0.275 HD
ENDBRANCH   1  20
TORSDOF 10
ENDMDL
MODEL 8
REMARK VINA RESULT:      -5.4     11.888     13.066
REMARK  10 active torsions:
REMARK  status: ('A' for Active; 'I' for Inactive)
REMARK    1  A    between atoms: C_2  and  O_16 
REMARK    2  A    between atoms: C_2  and  C_10 
REMARK    3  A    between atoms: C_3  and  C_8 
REMARK    4  A    between atoms: C_3  and  C_15 
REMARK       I    between atoms: C_5  and  N_6 
REMARK    5  A    between atoms: C_5  and  C_11 
REMARK    6  A    between atoms: N_6  and  C_10 
REMARK    7  A    between atoms: C_8  and  C_11 
REMARK    8  A    between atoms: C_10  and  C_12 
REMARK    9  A    between atoms: C_11  and  N_13 
REMARK   10  A    between atoms: C_15  and  N_19 
ROOT
HETATM    1  C           1     -25.361  -7.632 -20.251  0.00  0.00     0.274 C 
ENDROOT
BRANCH   1   2
HETATM    2  C           1     -25.302  -6.886 -18.940  0.00  0.00     0.249 C 
HETATM    3  N           1     -26.450  -6.665 -18.227  0.00  0.00    -0.343 N 
HETATM    4  H           1     -27.337  -7.000 -18.579  0.00  0.00     0.163 HD
HETATM    5  O           1     -24.243  -6.485 -18.520  0.00  0.00    -0.271 OA
BRANCH   3   6
HETATM    6  C           1     -26.393  -5.948 -16.968  0.00  0.00     0.209 C 
BRANCH   6   7
HETATM    7  C           1     -27.629  -5.069 -16.830  0.00  0.00     0.200 C 
BRANCH   7   8
HETATM    8  O           1     -28.726  -5.708 -17.424  0.00  0.00    -0.398 OA
HETATM    9  H           1     -29.198  -5.051 -17.906  0.00  0.00     0.209 HD
ENDBRANCH   7   8
ENDBRANCH   6   7
BRANCH   6  10
HETATM   10  C           1     -26.349  -6.937 -15.829  0.00  0.00     0.198 C 
HETATM   11  O           1     -27.412  -7.385 -15.349  0.00  0.00    -0.646 OA
HETATM   12  O           1     -25.248  -7.308 -15.366  0.00  0.00    -0.646 OA
ENDBRANCH   6  10
ENDBRANCH   3   6
ENDBRANCH   1   2
BRANCH   1  13
HETATM   13  C           1     -24.548  -6.882 -21.299  0.00  0.00     0.044 C 
BRANCH  13  14
HETATM   14  C           1     -24.222  -7.818 -22.456  0.00  0.00     0.030 C 
BRANCH  14  15
HETATM   15  C           1     -22.768  -8.262 -22.357  0.00  0.00     0.230 C 
BRANCH  15  16
HETATM   16  N           1     -22.621  -9.245 -21.233  0.00  0.00    -0.079 N 
HETATM   17  H           1     -21.731  -9.056 -20.720  0.00  0.00     0.274 HD
HETATM   18  H           1     -23.429  -9.147 -20.577  0.00  0.00     0.274 HD
HETATM   19  H           1     -22.603 -10.215 -21.619  0.00  0.00     0.274 HD
ENDBRANCH  15  16
ENDBRANCH  14  15
ENDBRANCH  13  14
ENDBRANCH   1  13
BRANCH   1  20
HETATM   20  N           1     -26.787  -7.733 -20.704  0.00  0.00    -0.067 N 
HETATM   21  H           1     -27.269  -8.491 -20.169  0.00  0.00     0.275 HD
HETATM   22  H           1     -27.273  -6.824 -20.533  0.00  0.00     0.275 HD
HETATM   23  H           1     -26.813  -7.956 -21.725  0.00  0.00     0.275 HD
ENDBRANCH   1  20
TORSDOF 10
ENDMDL
MODEL 9
REMARK VINA RESULT:      -5.4     13.951     15.739
REMARK  10 active torsions:
REMARK  status: ('A' for Active; 'I' for Inactive)
REMARK    1  A    between atoms: C_2  and  O_16 
REMARK    2  A    between atoms: C_2  and  C_10 
REMARK    3  A    between atoms: C_3  and  C_8 
REMARK    4  A    between atoms: C_3  and  C_15 
REMARK       I    between atoms: C_5  and  N_6 
REMARK    5  A    between atoms: C_5  and  C_11 
REMARK    6  A    between atoms: N_6  and  C_10 
REMARK    7  A    between atoms: C_8  and  C_11 
REMARK    8  A    between atoms: C_10  and  C_12 
REMARK    9  A    between atoms: C_11  and  N_13 
REMARK   10  A    between atoms: C_15  and  N_19 
ROOT
HETATM    1  C           1     -21.591  -3.629 -10.755  0.00  0.00     0.274 C 
ENDROOT
BRANCH   1   2
HETATM    2  C           1     -20.763  -4.500  -9.844  0.00  0.00     0.249 C 
HETATM    3  N           1     -21.108  -4.636  -8.526  0.00  0.00    -0.343 N 
HETATM    4  H           1     -21.919  -4.151  -8.163  0.00  0.00     0.163 HD
HETATM    5  O           1     -19.794  -5.079 -10.277  0.00  0.00    -0.271 OA
BRANCH   3   6
HETATM    6  C           1     -20.312  -5.473  -7.650  0.00  0.00     0.209 C 
BRANCH   6   7
HETATM    7  C           1     -19.321  -4.606  -6.884  0.00  0.00     0.200 C 
BRANCH   7   8
HETATM    8  O           1     -19.681  -4.569  -5.530  0.00  0.00    -0.398 OA
HETATM    9  H           1     -19.953  -3.688  -5.342  0.00  0.00     0.209 HD
ENDBRANCH   7   8
ENDBRANCH   6   7
BRANCH   6  10
HETATM   10  C           1     -21.217  -6.184  -6.675  0.00  0.00     0.198 C 
HETATM   11  O           1     -22.200  -5.587  -6.187  0.00  0.00    -0.646 OA
HETATM   12  O           1     -20.984  -7.370  -6.357  0.00  0.00    -0.646 OA
ENDBRANCH   6  10
ENDBRANCH   3   6
ENDBRANCH   1   2
BRANCH   1  13
HETATM   13  C           1     -22.527  -4.503 -11.581  0.00  0.00     0.044 C 
BRANCH  13  14
HETATM   14  C           1     -23.768  -4.835 -10.761  0.00  0.00     0.030 C 
BRANCH  14  15
HETATM   15  C           1     -24.372  -3.549 -10.211  0.00  0.00     0.230 C 
BRANCH  15  16
HETATM   16  N           1     -24.450  -3.633  -8.715  0.00  0.00    -0.079 N 
HETATM   17  H           1     -24.182  -4.594  -8.406  0.00  0.00     0.274 HD
HETATM   18  H           1     -23.794  -2.937  -8.293  0.00  0.00     0.274 HD
HETATM   19  H           1     -25.425  -3.425  -8.405  0.00  0.00     0.274 HD
ENDBRANCH  15  16
ENDBRANCH  14  15
ENDBRANCH  13  14
ENDBRANCH   1  13
BRANCH   1  20
HETATM   20  N           1     -20.685  -2.862 -11.672  0.00  0.00    -0.067 N 
HETATM   21  H           1     -19.983  -2.334 -11.106  0.00  0.00     0.275 HD
HETATM   22  H           1     -20.190  -3.527 -12.309  0.00  0.00     0.275 HD
HETATM   23  H           1     -21.251  -2.192 -12.241  0.00  0.00     0.275 HD
ENDBRANCH   1  20
TORSDOF 10
ENDMDL
