MODEL 1
REMARK VINA RESULT:      -7.8      0.000      0.000
REMARK  11 active torsions:
REMARK  status: ('A' for Active; 'I' for Inactive)
REMARK    1  A    between atoms: C_2  and  C_4 
REMARK    2  A    between atoms: C_4  and  C_5 
REMARK    3  A    between atoms: C_5  and  C_6 
REMARK    4  A    between atoms: C_5  and  N_9 
REMARK       I    between atoms: N_9  and  C_10 
REMARK    5  A    between atoms: C_10  and  C_11 
REMARK    6  A    between atoms: C_11  and  C_12 
REMARK    7  A    between atoms: C_11  and  N_24 
REMARK    8  A    between atoms: C_12  and  C_13 
REMARK    9  A    between atoms: C_16  and  O_17 
REMARK   10  A    between atoms: O_17  and  P_18 
REMARK   11  A    between atoms: P_18  and  O_19 
ROOT
HETATM    1  C           1     -22.415  -5.086  -6.169  0.00  0.00     0.278 C 
ENDROOT
BRANCH   1   2
HETATM    2  C           1     -22.297  -4.315  -7.460  0.00  0.00     0.249 C 
HETATM    3  N           1     -23.294  -4.392  -8.396  0.00  0.00    -0.344 N 
HETATM    4  H           1     -24.109  -4.966  -8.222  0.00  0.00     0.163 HD
HETATM    5  O           1     -21.324  -3.632  -7.669  0.00  0.00    -0.271 OA
BRANCH   3   6
HETATM    6  C           1     -23.181  -3.652  -9.638  0.00  0.00     0.195 C 
BRANCH   6   7
HETATM    7  C           1     -22.420  -4.486 -10.660  0.00  0.00     0.149 C 
BRANCH   7   8
HETATM    8  C           1     -21.295  -3.667 -11.242  0.00  0.00     0.175 C 
HETATM    9  O           1     -21.531  -2.540 -11.732  0.00  0.00    -0.648 OA
HETATM   10  O           1     -20.128  -4.113 -11.235  0.00  0.00    -0.648 OA
ENDBRANCH   7   8
ENDBRANCH   6   7
BRANCH   6  11
HETATM   11  C           1     -24.560  -3.345 -10.167  0.00  0.00     0.197 C 
HETATM   12  O           1     -24.870  -3.676 -11.333  0.00  0.00    -0.646 OA
HETATM   13  O           1     -25.393  -2.762  -9.440  0.00  0.00    -0.646 OA
ENDBRANCH   6  11
ENDBRANCH   3   6
ENDBRANCH   1   2
BRANCH   1  14
HETATM   14  C           1     -21.593  -6.365  -6.263  0.00  0.00     0.081 C 
BRANCH  14  15
HETATM   15  C           1     -21.438  -6.960  -4.898  0.00  0.00    -0.056 A 
HETATM   16  C           1     -21.550  -8.339  -4.721  0.00  0.00     0.010 A 
HETATM   17  C           1     -21.407  -8.893  -3.449  0.00  0.00     0.038 A 
HETATM   18  C           1     -21.149  -8.069  -2.354  0.00  0.00     0.081 A 
HETATM   19  C           1     -21.037  -6.689  -2.531  0.00  0.00     0.038 A 
HETATM   20  C           1     -21.181  -6.135  -3.803  0.00  0.00     0.010 A 
BRANCH  18  21
HETATM   21  O           1     -21.010  -8.607  -1.118  0.00  0.00    -0.247 OA
BRANCH  21  22
HETATM   22  P           1     -22.213  -8.400  -0.061  0.00  0.00     0.411 P 
HETATM   23  O           1     -23.113  -9.574  -0.103  0.00  0.00    -0.624 OA
HETATM   24  O           1     -21.654  -8.253   1.302  0.00  0.00    -0.624 OA
BRANCH  22  25
HETATM   25  O           1     -23.046  -7.070  -0.446  0.00  0.00    -0.300 OA
HETATM   26  H           1     -23.731  -7.368  -1.019  0.00  0.00     0.223 HD
ENDBRANCH  22  25
ENDBRANCH  21  22
ENDBRANCH  18  21
ENDBRANCH  14  15
ENDBRANCH   1  14
BRANCH   1  27
HETATM   27  N           1     -23.853  -5.434  -5.923  0.00  0.00    -0.066 N 
HETATM   28  H           1     -24.202  -6.044  -6.696  0.00  0.00     0.275 HD
HETATM   29  H           1     -23.938  -5.942  -5.014  0.00  0.00     0.275 HD
HETATM   30  H           1     -24.422  -4.558  -5.887  0.00  0.00     0.275 HD
ENDBRANCH   1  27
TORSDOF 11
ENDMDL
MODEL 2
REMARK VINA RESULT:      -7.7      3.511      8.719
REMARK  11 active torsions:
REMARK  status: ('A' for Active; 'I' for Inactive)
REMARK    1  A    between atoms: C_2  and  C_4 
REMARK    2  A    between atoms: C_4  and  C_5 
REMARK    3  A    between atoms: C_5  and  C_6 
REMARK    4  A    between atoms: C_5  and  N_9 
REMARK       I    between atoms: N_9  and  C_10 
REMARK    5  A    between atoms: C_10  and  C_11 
REMARK    6  A    between atoms: C_11  and  C_12 
REMARK    7  A    between atoms: C_11  and  N_24 
REMARK    8  A    between atoms: C_12  and  C_13 
REMARK    9  A    between atoms: C_16  and  O_17 
REMARK   10  A    between atoms: O_17  and  P_18 
REMARK   11  A    between atoms: P_18  and  O_19 
ROOT
HETATM    1  C           1     -21.287  -6.270  -5.016  0.00  0.00     0.278 C 
ENDROOT
BRANCH   1   2
HETATM    2  C           1     -20.629  -7.626  -5.073  0.00  0.00     0.249 C 
HETATM    3  N           1     -21.104  -8.651  -4.300  0.00  0.00    -0.344 N 
HETATM    4  H           1     -21.897  -8.499  -3.690  0.00  0.00     0.163 HD
HETATM    5  O           1     -19.681  -7.808  -5.800  0.00  0.00    -0.271 OA
BRANCH   3   6
HETATM    6  C           1     -20.472  -9.955  -4.355  0.00  0.00     0.195 C 
BRANCH   6   7
HETATM    7  C           1     -20.376 -10.533  -2.949  0.00  0.00     0.149 C 
BRANCH   7   8
HETATM    8  C           1     -20.983  -9.564  -1.964  0.00  0.00     0.175 C 
HETATM    9  O           1     -22.188  -9.668  -1.646  0.00  0.00    -0.648 OA
HETATM   10  O           1     -20.282  -8.658  -1.466  0.00  0.00    -0.648 OA
ENDBRANCH   7   8
ENDBRANCH   6   7
BRANCH   6  11
HETATM   11  C           1     -21.294 -10.876  -5.222  0.00  0.00     0.197 C 
HETATM   12  O           1     -21.156 -10.853  -6.464  0.00  0.00    -0.646 OA
HETATM   13  O           1     -22.112 -11.663  -4.698  0.00  0.00    -0.646 OA
ENDBRANCH   6  11
ENDBRANCH   3   6
ENDBRANCH   1   2
BRANCH   1  14
HETATM   14  C           1     -20.357  -5.227  -5.622  0.00  0.00     0.081 C 
BRANCH  14  15
HETATM   15  C           1     -20.882  -4.808  -6.961  0.00  0.00    -0.056 A 
HETATM   16  C           1     -20.074  -4.915  -8.092  0.00  0.00     0.010 A 
HETATM   17  C           1     -20.562  -4.524  -9.337  0.00  0.00     0.038 A 
HETATM   18  C           1     -21.861  -4.028  -9.453  0.00  0.00     0.081 A 
HETATM   19  C           1     -22.670  -3.922  -8.321  0.00  0.00     0.038 A 
HETATM   20  C           1     -22.180  -4.312  -7.075  0.00  0.00     0.010 A 
BRANCH  18  21
HETATM   21  O           1     -22.336  -3.648 -10.664  0.00  0.00    -0.247 OA
BRANCH  21  22
HETATM   22  P           1     -23.715  -4.311 -11.180  0.00  0.00     0.411 P 
HETATM   23  O           1     -24.016  -5.514 -10.371  0.00  0.00    -0.624 OA
HETATM   24  O           1     -24.817  -3.333 -11.039  0.00  0.00    -0.624 OA
BRANCH  22  25
HETATM   25  O           1     -23.564  -4.731 -12.732  0.00  0.00    -0.300 OA
HETATM   26  H           1     -24.267  -5.336 -12.891  0.00  0.00     0.223 HD
ENDBRANCH  22  25
ENDBRANCH  21  22
ENDBRANCH  18  21
ENDBRANCH  14  15
ENDBRANCH   1  14
BRANCH   1  27
HETATM   27  N           1     -21.572  -5.913  -3.587  0.00  0.00    -0.066 N 
HETATM   28  H           1     -21.324  -4.912  -3.421  0.00  0.00     0.275 HD
HETATM   29  H           1     -22.588  -6.057  -3.388  0.00  0.00     0.275 HD
HETATM   30  H           1     -21.004  -6.522  -2.956  0.00  0.00     0.275 HD
ENDBRANCH   1  27
TORSDOF 11
ENDMDL
MODEL 3
REMARK VINA RESULT:      -7.7     12.983     15.080
REMARK  11 active torsions:
REMARK  status: ('A' for Active; 'I' for Inactive)
REMARK    1  A    between atoms: C_2  and  C_4 
REMARK    2  A    between atoms: C_4  and  C_5 
REMARK    3  A    between atoms: C_5  and  C_6 
REMARK    4  A    between atoms: C_5  and  N_9 
REMARK       I    between atoms: N_9  and  C_10 
REMARK    5  A    between atoms: C_10  and  C_11 
REMARK    6  A    between atoms: C_11  and  C_12 
REMARK    7  A    between atoms: C_11  and  N_24 
REMARK    8  A    between atoms: C_12  and  C_13 
REMARK    9  A    between atoms: C_16  and  O_17 
REMARK   10  A    between atoms: O_17  and  P_18 
REMARK   11  A    between atoms: P_18  and  O_19 
ROOT
HETATM    1  C           1     -33.665  -4.844 -15.463  0.00  0.00     0.278 C 
ENDROOT
BRANCH   1   2
HETATM    2  C           1     -34.205  -4.028 -14.315  0.00  0.00     0.249 C 
HETATM    3  N           1     -34.158  -4.525 -13.040  0.00  0.00    -0.344 N 
HETATM    4  H           1     -33.760  -5.440 -12.867  0.00  0.00     0.163 HD
HETATM    5  O           1     -34.681  -2.937 -14.520  0.00  0.00    -0.271 OA
BRANCH   3   6
HETATM    6  C           1     -34.677  -3.741 -11.936  0.00  0.00     0.195 C 
BRANCH   6   7
HETATM    7  C           1     -35.034  -4.666 -10.779  0.00  0.00     0.149 C 
BRANCH   7   8
HETATM    8  C           1     -34.439  -6.030 -11.025  0.00  0.00     0.175 C 
HETATM    9  O           1     -35.180  -6.989 -11.331  0.00  0.00    -0.648 OA
HETATM   10  O           1     -33.205  -6.202 -10.921  0.00  0.00    -0.648 OA
ENDBRANCH   7   8
ENDBRANCH   6   7
BRANCH   6  11
HETATM   11  C           1     -33.630  -2.753 -11.485  0.00  0.00     0.197 C 
HETATM   12  O           1     -32.434  -3.108 -11.395  0.00  0.00    -0.646 OA
HETATM   13  O           1     -33.957  -1.580 -11.203  0.00  0.00    -0.646 OA
ENDBRANCH   6  11
ENDBRANCH   3   6
ENDBRANCH   1   2
BRANCH   1  14
HETATM   14  C           1     -33.094  -3.913 -16.525  0.00  0.00     0.081 C 
BRANCH  14  15
HETATM   15  C           1     -31.784  -4.452 -17.009  0.00  0.00    -0.056 A 
HETATM   16  C           1     -30.834  -3.590 -17.556  0.00  0.00     0.010 A 
HETATM   17  C           1     -29.615  -4.093 -18.008  0.00  0.00     0.038 A 
HETATM   18  C           1     -29.343  -5.457 -17.911  0.00  0.00     0.081 A 
HETATM   19  C           1     -30.294  -6.320 -17.364  0.00  0.00     0.038 A 
HETATM   20  C           1     -31.514  -5.817 -16.913  0.00  0.00     0.010 A 
BRANCH  18  21
HETATM   21  O           1     -28.158  -5.946 -18.350  0.00  0.00    -0.247 OA
BRANCH  21  22
HETATM   22  P           1     -26.967  -6.124 -17.275  0.00  0.00     0.411 P 
HETATM   23  O           1     -25.692  -6.364 -17.987  0.00  0.00    -0.624 OA
HETATM   24  O           1     -26.852  -4.896 -16.456  0.00  0.00    -0.624 OA
BRANCH  22  25
HETATM   25  O           1     -27.291  -7.382 -16.315  0.00  0.00    -0.300 OA
HETATM   26  H           1     -27.521  -7.002 -15.484  0.00  0.00     0.223 HD
ENDBRANCH  22  25
ENDBRANCH  21  22
ENDBRANCH  18  21
ENDBRANCH  14  15
ENDBRANCH   1  14
BRANCH   1  27
HETATM   27  N           1     -34.772  -5.662 -16.059  0.00  0.00    -0.066 N 
HETATM   28  H           1     -35.497  -5.853 -15.331  0.00  0.00     0.275 HD
HETATM   29  H           1     -35.205  -5.137 -16.852  0.00  0.00     0.275 HD
HETATM   30  H           1     -34.385  -6.567 -16.410  0.00  0.00     0.275 HD
ENDBRANCH   1  27
TORSDOF 11
ENDMDL
MODEL 4
REMARK VINA RESULT:      -7.6      1.296      1.685
REMARK  11 active torsions:
REMARK  status: ('A' for Active; 'I' for Inactive)
REMARK    1  A    between atoms: C_2  and  C_4 
REMARK    2  A    between atoms: C_4  and  C_5 
REMARK    3  A    between atoms: C_5  and  C_6 
REMARK    4  A    between atoms: C_5  and  N_9 
REMARK       I    between atoms: N_9  and  C_10 
REMARK    5  A    between atoms: C_10  and  C_11 
REMARK    6  A    between atoms: C_11  and  C_12 
REMARK    7  A    between atoms: C_11  and  N_24 
REMARK    8  A    between atoms: C_12  and  C_13 
REMARK    9  A    between atoms: C_16  and  O_17 
REMARK   10  A    between atoms: O_17  and  P_18 
REMARK   11  A    between atoms: P_18  and  O_19 
ROOT
HETATM    1  C           1     -21.156  -5.439  -6.512  0.00  0.00     0.278 C 
ENDROOT
BRANCH   1   2
HETATM    2  C           1     -21.659  -4.411  -7.496  0.00  0.00     0.249 C 
HETATM    3  N           1     -22.272  -4.814  -8.652  0.00  0.00    -0.344 N 
HETATM    4  H           1     -22.387  -5.800  -8.848  0.00  0.00     0.163 HD
HETATM    5  O           1     -21.521  -3.234  -7.264  0.00  0.00    -0.271 OA
BRANCH   3   6
HETATM    6  C           1     -22.755  -3.827  -9.598  0.00  0.00     0.195 C 
BRANCH   6   7
HETATM    7  C           1     -22.191  -4.129 -10.981  0.00  0.00     0.149 C 
BRANCH   7   8
HETATM    8  C           1     -20.701  -3.893 -10.979  0.00  0.00     0.175 C 
HETATM    9  O           1     -20.243  -2.785 -11.336  0.00  0.00    -0.648 OA
HETATM   10  O           1     -19.924  -4.804 -10.622  0.00  0.00    -0.648 OA
ENDBRANCH   7   8
ENDBRANCH   6   7
BRANCH   6  11
HETATM   11  C           1     -24.263  -3.876  -9.649  0.00  0.00     0.197 C 
HETATM   12  O           1     -24.846  -4.965  -9.845  0.00  0.00    -0.646 OA
HETATM   13  O           1     -24.928  -2.829  -9.495  0.00  0.00    -0.646 OA
ENDBRANCH   6  11
ENDBRANCH   3   6
ENDBRANCH   1   2
BRANCH   1  14
HETATM   14  C           1     -22.309  -5.912  -5.637  0.00  0.00     0.081 C 
BRANCH  14  15
HETATM   15  C           1     -21.776  -6.768  -4.530  0.00  0.00    -0.056 A 
HETATM   16  C           1     -21.776  -6.294  -3.219  0.00  0.00     0.010 A 
HETATM   17  C           1     -21.279  -7.091  -2.188  0.00  0.00     0.038 A 
HETATM   18  C           1     -20.783  -8.364  -2.468  0.00  0.00     0.081 A 
HETATM   19  C           1     -20.782  -8.839  -3.780  0.00  0.00     0.038 A 
HETATM   20  C           1     -21.279  -8.041  -4.811  0.00  0.00     0.010 A 
BRANCH  18  21
HETATM   21  O           1     -20.300  -9.138  -1.467  0.00  0.00    -0.247 OA
BRANCH  21  22
HETATM   22  P           1     -21.349  -9.723  -0.387  0.00  0.00     0.411 P 
HETATM   23  O           1     -20.849 -11.014   0.135  0.00  0.00    -0.624 OA
HETATM   24  O           1     -21.497  -8.762   0.729  0.00  0.00    -0.624 OA
BRANCH  22  25
HETATM   25  O           1     -22.783  -9.948  -1.097  0.00  0.00    -0.300 OA
HETATM   26  H           1     -22.657  -9.683  -1.991  0.00  0.00     0.223 HD
ENDBRANCH  22  25
ENDBRANCH  21  22
ENDBRANCH  18  21
ENDBRANCH  14  15
ENDBRANCH   1  14
BRANCH   1  27
HETATM   27  N           1     -20.092  -4.826  -5.650  0.00  0.00    -0.066 N 
HETATM   28  H           1     -19.812  -3.901  -6.046  0.00  0.00     0.275 HD
HETATM   29  H           1     -20.463  -4.693  -4.682  0.00  0.00     0.275 HD
HETATM   30  H           1     -19.261  -5.459  -5.621  0.00  0.00     0.275 HD
ENDBRANCH   1  27
TORSDOF 11
ENDMDL
MODEL 5
REMARK VINA RESULT:      -7.6      3.134      9.011
REMARK  11 active torsions:
REMARK  status: ('A' for Active; 'I' for Inactive)
REMARK    1  A    between atoms: C_2  and  C_4 
REMARK    2  A    between atoms: C_4  and  C_5 
REMARK    3  A    between atoms: C_5  and  C_6 
REMARK    4  A    between atoms: C_5  and  N_9 
REMARK       I    between atoms: N_9  and  C_10 
REMARK    5  A    between atoms: C_10  and  C_11 
REMARK    6  A    between atoms: C_11  and  C_12 
REMARK    7  A    between atoms: C_11  and  N_24 
REMARK    8  A    between atoms: C_12  and  C_13 
REMARK    9  A    between atoms: C_16  and  O_17 
REMARK   10  A    between atoms: O_17  and  P_18 
REMARK   11  A    between atoms: P_18  and  O_19 
ROOT
HETATM    1  C           1     -20.383  -7.579  -5.308  0.00  0.00     0.278 C 
ENDROOT
BRANCH   1   2
HETATM    2  C           1     -20.133  -8.257  -3.983  0.00  0.00     0.249 C 
HETATM    3  N           1     -21.106  -8.256  -3.020  0.00  0.00    -0.344 N 
HETATM    4  H           1     -21.993  -7.801  -3.196  0.00  0.00     0.163 HD
HETATM    5  O           1     -19.075  -8.799  -3.772  0.00  0.00    -0.271 OA
BRANCH   3   6
HETATM    6  C           1     -20.866  -8.907  -1.746  0.00  0.00     0.195 C 
BRANCH   6   7
HETATM    7  C           1     -21.037  -7.897  -0.619  0.00  0.00     0.149 C 
BRANCH   7   8
HETATM    8  C           1     -22.363  -7.194  -0.770  0.00  0.00     0.175 C 
HETATM    9  O           1     -23.333  -7.528  -0.055  0.00  0.00    -0.648 OA
HETATM   10  O           1     -22.492  -6.277  -1.609  0.00  0.00    -0.648 OA
ENDBRANCH   7   8
ENDBRANCH   6   7
BRANCH   6  11
HETATM   11  C           1     -21.853 -10.034  -1.564  0.00  0.00     0.197 C 
HETATM   12  O           1     -21.963 -10.594  -0.451  0.00  0.00    -0.646 OA
HETATM   13  O           1     -22.561 -10.407  -2.524  0.00  0.00    -0.646 OA
ENDBRANCH   6  11
ENDBRANCH   3   6
ENDBRANCH   1   2
BRANCH   1  14
HETATM   14  C           1     -20.801  -6.135  -5.069  0.00  0.00     0.081 C 
BRANCH  14  15
HETATM   15  C           1     -21.086  -5.474  -6.382  0.00  0.00    -0.056 A 
HETATM   16  C           1     -20.145  -5.526  -7.409  0.00  0.00     0.010 A 
HETATM   17  C           1     -20.411  -4.910  -8.631  0.00  0.00     0.038 A 
HETATM   18  C           1     -21.619  -4.242  -8.827  0.00  0.00     0.081 A 
HETATM   19  C           1     -22.562  -4.190  -7.800  0.00  0.00     0.038 A 
HETATM   20  C           1     -22.295  -4.806  -6.577  0.00  0.00     0.010 A 
BRANCH  18  21
HETATM   21  O           1     -21.877  -3.643 -10.015  0.00  0.00    -0.247 OA
BRANCH  21  22
HETATM   22  P           1     -23.173  -4.133 -10.845  0.00  0.00     0.411 P 
HETATM   23  O           1     -23.711  -5.369 -10.235  0.00  0.00    -0.624 OA
HETATM   24  O           1     -24.209  -3.075 -10.814  0.00  0.00    -0.624 OA
BRANCH  22  25
HETATM   25  O           1     -22.753  -4.427 -12.377  0.00  0.00    -0.300 OA
HETATM   26  H           1     -21.817  -4.528 -12.358  0.00  0.00     0.223 HD
ENDBRANCH  22  25
ENDBRANCH  21  22
ENDBRANCH  18  21
ENDBRANCH  14  15
ENDBRANCH   1  14
BRANCH   1  27
HETATM   27  N           1     -21.475  -8.301  -6.040  0.00  0.00    -0.066 N 
HETATM   28  H           1     -21.176  -8.479  -7.025  0.00  0.00     0.275 HD
HETATM   29  H           1     -21.670  -9.211  -5.566  0.00  0.00     0.275 HD
HETATM   30  H           1     -22.340  -7.715  -6.040  0.00  0.00     0.275 HD
ENDBRANCH   1  27
TORSDOF 11
ENDMDL
MODEL 6
REMARK VINA RESULT:      -7.5      3.809      8.787
REMARK  11 active torsions:
REMARK  status: ('A' for Active; 'I' for Inactive)
REMARK    1  A    between atoms: C_2  and  C_4 
REMARK    2  A    between atoms: C_4  and  C_5 
REMARK    3  A    between atoms: C_5  and  C_6 
REMARK    4  A    between atoms: C_5  and  N_9 
REMARK       I    between atoms: N_9  and  C_10 
REMARK    5  A    between atoms: C_10  and  C_11 
REMARK    6  A    between atoms: C_11  and  C_12 
REMARK    7  A    between atoms: C_11  and  N_24 
REMARK    8  A    between atoms: C_12  and  C_13 
REMARK    9  A    between atoms: C_16  and  O_17 
REMARK   10  A    between atoms: O_17  and  P_18 
REMARK   11  A    between atoms: P_18  and  O_19 
ROOT
HETATM    1  C           1     -21.483  -6.437  -4.878  0.00  0.00     0.278 C 
ENDROOT
BRANCH   1   2
HETATM    2  C           1     -20.901  -7.829  -4.863  0.00  0.00     0.249 C 
HETATM    3  N           1     -20.127  -8.235  -3.810  0.00  0.00    -0.344 N 
HETATM    4  H           1     -19.945  -7.603  -3.041  0.00  0.00     0.163 HD
HETATM    5  O           1     -21.117  -8.584  -5.780  0.00  0.00    -0.271 OA
BRANCH   3   6
HETATM    6  C           1     -19.568  -9.573  -3.795  0.00  0.00     0.195 C 
BRANCH   6   7
HETATM    7  C           1     -18.087  -9.509  -4.148  0.00  0.00     0.149 C 
BRANCH   7   8
HETATM    8  C           1     -17.831 -10.326  -5.390  0.00  0.00     0.175 C 
HETATM    9  O           1     -17.270 -11.440  -5.302  0.00  0.00    -0.648 OA
HETATM   10  O           1     -18.180  -9.889  -6.508  0.00  0.00    -0.648 OA
ENDBRANCH   7   8
ENDBRANCH   6   7
BRANCH   6  11
HETATM   11  C           1     -19.730 -10.170  -2.418  0.00  0.00     0.197 C 
HETATM   12  O           1     -18.851 -10.933  -1.961  0.00  0.00    -0.646 OA
HETATM   13  O           1     -20.742  -9.902  -1.735  0.00  0.00    -0.646 OA
ENDBRANCH   6  11
ENDBRANCH   3   6
ENDBRANCH   1   2
BRANCH   1  14
HETATM   14  C           1     -20.472  -5.470  -5.480  0.00  0.00     0.081 C 
BRANCH  14  15
HETATM   15  C           1     -20.976  -4.978  -6.801  0.00  0.00    -0.056 A 
HETATM   16  C           1     -22.253  -4.430  -6.901  0.00  0.00     0.010 A 
HETATM   17  C           1     -22.723  -3.973  -8.132  0.00  0.00     0.038 A 
HETATM   18  C           1     -21.914  -4.064  -9.264  0.00  0.00     0.081 A 
HETATM   19  C           1     -20.634  -4.612  -9.165  0.00  0.00     0.038 A 
HETATM   20  C           1     -20.166  -5.070  -7.933  0.00  0.00     0.010 A 
BRANCH  18  21
HETATM   21  O           1     -22.370  -3.620 -10.461  0.00  0.00    -0.247 OA
BRANCH  21  22
HETATM   22  P           1     -23.705  -4.300 -11.062  0.00  0.00     0.411 P 
HETATM   23  O           1     -24.009  -5.538 -10.310  0.00  0.00    -0.624 OA
HETATM   24  O           1     -24.839  -3.356 -10.940  0.00  0.00    -0.624 OA
BRANCH  22  25
HETATM   25  O           1     -23.472  -4.660 -12.620  0.00  0.00    -0.300 OA
HETATM   26  H           1     -23.911  -5.483 -12.748  0.00  0.00     0.223 HD
ENDBRANCH  22  25
ENDBRANCH  21  22
ENDBRANCH  18  21
ENDBRANCH  14  15
ENDBRANCH   1  14
BRANCH   1  27
HETATM   27  N           1     -21.805  -6.013  -3.476  0.00  0.00    -0.066 N 
HETATM   28  H           1     -21.564  -5.004  -3.352  0.00  0.00     0.275 HD
HETATM   29  H           1     -22.824  -6.153  -3.295  0.00  0.00     0.275 HD
HETATM   30  H           1     -21.250  -6.589  -2.803  0.00  0.00     0.275 HD
ENDBRANCH   1  27
TORSDOF 11
ENDMDL
MODEL 7
REMARK VINA RESULT:      -7.3      3.235      8.775
REMARK  11 active torsions:
REMARK  status: ('A' for Active; 'I' for Inactive)
REMARK    1  A    between atoms: C_2  and  C_4 
REMARK    2  A    between atoms: C_4  and  C_5 
REMARK    3  A    between atoms: C_5  and  C_6 
REMARK    4  A    between atoms: C_5  and  N_9 
REMARK       I    between atoms: N_9  and  C_10 
REMARK    5  A    between atoms: C_10  and  C_11 
REMARK    6  A    between atoms: C_11  and  C_12 
REMARK    7  A    between atoms: C_11  and  N_24 
REMARK    8  A    between atoms: C_12  and  C_13 
REMARK    9  A    between atoms: C_16  and  O_17 
REMARK   10  A    between atoms: O_17  and  P_18 
REMARK   11  A    between atoms: P_18  and  O_19 
ROOT
HETATM    1  C           1     -20.180  -6.360  -5.394  0.00  0.00     0.278 C 
ENDROOT
BRANCH   1   2
HETATM    2  C           1     -21.212  -6.953  -4.467  0.00  0.00     0.249 C 
HETATM    3  N           1     -20.817  -7.622  -3.340  0.00  0.00    -0.344 N 
HETATM    4  H           1     -19.832  -7.719  -3.128  0.00  0.00     0.163 HD
HETATM    5  O           1     -22.388  -6.839  -4.721  0.00  0.00    -0.271 OA
BRANCH   3   6
HETATM    6  C           1     -21.809  -8.192  -2.450  0.00  0.00     0.195 C 
BRANCH   6   7
HETATM    7  C           1     -21.405  -9.615  -2.084  0.00  0.00     0.149 C 
BRANCH   7   8
HETATM    8  C           1     -20.114  -9.966  -2.779  0.00  0.00     0.175 C 
HETATM    9  O           1     -19.025  -9.838  -2.178  0.00  0.00    -0.648 OA
HETATM   10  O           1     -20.131 -10.385  -3.957  0.00  0.00    -0.648 OA
ENDBRANCH   7   8
ENDBRANCH   6   7
BRANCH   6  11
HETATM   11  C           1     -21.899  -7.358  -1.196  0.00  0.00     0.197 C 
HETATM   12  O           1     -21.434  -7.794  -0.120  0.00  0.00    -0.646 OA
HETATM   13  O           1     -22.436  -6.230  -1.233  0.00  0.00    -0.646 OA
ENDBRANCH   6  11
ENDBRANCH   3   6
ENDBRANCH   1   2
BRANCH   1  14
HETATM   14  C           1     -20.390  -4.855  -5.492  0.00  0.00     0.081 C 
BRANCH  14  15
HETATM   15  C           1     -20.915  -4.512  -6.852  0.00  0.00    -0.056 A 
HETATM   16  C           1     -20.037  -4.389  -7.928  0.00  0.00     0.010 A 
HETATM   17  C           1     -20.527  -4.068  -9.194  0.00  0.00     0.038 A 
HETATM   18  C           1     -21.894  -3.873  -9.385  0.00  0.00     0.081 A 
HETATM   19  C           1     -22.773  -3.997  -8.308  0.00  0.00     0.038 A 
HETATM   20  C           1     -22.283  -4.316  -7.041  0.00  0.00     0.010 A 
BRANCH  18  21
HETATM   21  O           1     -22.370  -3.562 -10.615  0.00  0.00    -0.247 OA
BRANCH  21  22
HETATM   22  P           1     -23.716  -4.299 -11.116  0.00  0.00     0.411 P 
HETATM   23  O           1     -23.946  -5.512 -10.301  0.00  0.00    -0.624 OA
HETATM   24  O           1     -24.867  -3.379 -10.969  0.00  0.00    -0.624 OA
BRANCH  22  25
HETATM   25  O           1     -23.557  -4.716 -12.668  0.00  0.00    -0.300 OA
HETATM   26  H           1     -22.809  -5.288 -12.692  0.00  0.00     0.223 HD
ENDBRANCH  22  25
ENDBRANCH  21  22
ENDBRANCH  18  21
ENDBRANCH  14  15
ENDBRANCH   1  14
BRANCH   1  27
HETATM   27  N           1     -20.318  -6.974  -6.755  0.00  0.00    -0.066 N 
HETATM   28  H           1     -19.392  -7.345  -7.066  0.00  0.00     0.275 HD
HETATM   29  H           1     -21.011  -7.755  -6.716  0.00  0.00     0.275 HD
HETATM   30  H           1     -20.647  -6.249  -7.432  0.00  0.00     0.275 HD
ENDBRANCH   1  27
TORSDOF 11
ENDMDL
MODEL 8
REMARK VINA RESULT:      -7.1      3.937      8.700
REMARK  11 active torsions:
REMARK  status: ('A' for Active; 'I' for Inactive)
REMARK    1  A    between atoms: C_2  and  C_4 
REMARK    2  A    between atoms: C_4  and  C_5 
REMARK    3  A    between atoms: C_5  and  C_6 
REMARK    4  A    between atoms: C_5  and  N_9 
REMARK       I    between atoms: N_9  and  C_10 
REMARK    5  A    between atoms: C_10  and  C_11 
REMARK    6  A    between atoms: C_11  and  C_12 
REMARK    7  A    between atoms: C_11  and  N_24 
REMARK    8  A    between atoms: C_12  and  C_13 
REMARK    9  A    between atoms: C_16  and  O_17 
REMARK   10  A    between atoms: O_17  and  P_18 
REMARK   11  A    between atoms: P_18  and  O_19 
ROOT
HETATM    1  C           1     -21.570  -6.727  -4.781  0.00  0.00     0.278 C 
ENDROOT
BRANCH   1   2
HETATM    2  C           1     -21.226  -8.176  -4.540  0.00  0.00     0.249 C 
HETATM    3  N           1     -20.500  -8.871  -5.470  0.00  0.00    -0.344 N 
HETATM    4  H           1     -20.194  -8.413  -6.319  0.00  0.00     0.163 HD
HETATM    5  O           1     -21.592  -8.723  -3.528  0.00  0.00    -0.271 OA
BRANCH   3   6
HETATM    6  C           1     -20.170 -10.264  -5.239  0.00  0.00     0.195 C 
BRANCH   6   7
HETATM    7  C           1     -21.093 -11.149  -6.067  0.00  0.00     0.149 C 
BRANCH   7   8
HETATM    8  C           1     -21.724 -12.190  -5.176  0.00  0.00     0.175 C 
HETATM    9  O           1     -22.758 -11.914  -4.528  0.00  0.00    -0.648 OA
HETATM   10  O           1     -21.215 -13.327  -5.086  0.00  0.00    -0.648 OA
ENDBRANCH   7   8
ENDBRANCH   6   7
BRANCH   6  11
HETATM   11  C           1     -18.738 -10.514  -5.643  0.00  0.00     0.197 C 
HETATM   12  O           1     -18.181  -9.758  -6.469  0.00  0.00    -0.646 OA
HETATM   13  O           1     -18.108 -11.476  -5.152  0.00  0.00    -0.646 OA
ENDBRANCH   6  11
ENDBRANCH   3   6
ENDBRANCH   1   2
BRANCH   1  14
HETATM   14  C           1     -20.431  -6.052  -5.534  0.00  0.00     0.081 C 
BRANCH  14  15
HETATM   15  C           1     -20.972  -5.370  -6.752  0.00  0.00    -0.056 A 
HETATM   16  C           1     -22.217  -4.745  -6.707  0.00  0.00     0.010 A 
HETATM   17  C           1     -22.721  -4.110  -7.842  0.00  0.00     0.038 A 
HETATM   18  C           1     -21.979  -4.100  -9.022  0.00  0.00     0.081 A 
HETATM   19  C           1     -20.732  -4.725  -9.068  0.00  0.00     0.038 A 
HETATM   20  C           1     -20.229  -5.360  -7.933  0.00  0.00     0.010 A 
BRANCH  18  21
HETATM   21  O           1     -22.469  -3.483 -10.125  0.00  0.00    -0.247 OA
BRANCH  21  22
HETATM   22  P           1     -23.656  -4.217 -10.939  0.00  0.00     0.411 P 
HETATM   23  O           1     -24.008  -5.484 -10.261  0.00  0.00    -0.624 OA
HETATM   24  O           1     -24.843  -3.333 -10.984  0.00  0.00    -0.624 OA
BRANCH  22  25
HETATM   25  O           1     -23.162  -4.531 -12.445  0.00  0.00    -0.300 OA
HETATM   26  H           1     -22.670  -5.331 -12.379  0.00  0.00     0.223 HD
ENDBRANCH  22  25
ENDBRANCH  21  22
ENDBRANCH  18  21
ENDBRANCH  14  15
ENDBRANCH   1  14
BRANCH   1  27
HETATM   27  N           1     -21.777  -6.037  -3.466  0.00  0.00    -0.066 N 
HETATM   28  H           1     -20.934  -5.465  -3.235  0.00  0.00     0.275 HD
HETATM   29  H           1     -22.613  -5.413  -3.527  0.00  0.00     0.275 HD
HETATM   30  H           1     -21.929  -6.751  -2.719  0.00  0.00     0.275 HD
ENDBRANCH   1  27
TORSDOF 11
ENDMDL
MODEL 9
REMARK VINA RESULT:      -7.1      1.534      2.738
REMARK  11 active torsions:
REMARK  status: ('A' for Active; 'I' for Inactive)
REMARK    1  A    between atoms: C_2  and  C_4 
REMARK    2  A    between atoms: C_4  and  C_5 
REMARK    3  A    between atoms: C_5  and  C_6 
REMARK    4  A    between atoms: C_5  and  N_9 
REMARK       I    between atoms: N_9  and  C_10 
REMARK    5  A    between atoms: C_10  and  C_11 
REMARK    6  A    between atoms: C_11  and  C_12 
REMARK    7  A    between atoms: C_11  and  N_24 
REMARK    8  A    between atoms: C_12  and  C_13 
REMARK    9  A    between atoms: C_16  and  O_17 
REMARK   10  A    between atoms: O_17  and  P_18 
REMARK   11  A    between atoms: P_18  and  O_19 
ROOT
HETATM    1  C           1     -21.239  -4.541  -6.960  0.00  0.00     0.278 C 
ENDROOT
BRANCH   1   2
HETATM    2  C           1     -21.109  -4.825  -8.437  0.00  0.00     0.249 C 
HETATM    3  N           1     -22.065  -4.373  -9.306  0.00  0.00    -0.344 N 
HETATM    4  H           1     -22.858  -3.848  -8.960  0.00  0.00     0.163 HD
HETATM    5  O           1     -20.164  -5.452  -8.850  0.00  0.00    -0.271 OA
BRANCH   3   6
HETATM    6  C           1     -21.941  -4.646 -10.726  0.00  0.00     0.195 C 
BRANCH   6   7
HETATM    7  C           1     -23.327  -4.713 -11.353  0.00  0.00     0.149 C 
BRANCH   7   8
HETATM    8  C           1     -24.341  -4.136 -10.396  0.00  0.00     0.175 C 
HETATM    9  O           1     -24.579  -2.908 -10.403  0.00  0.00    -0.648 OA
HETATM   10  O           1     -24.944  -4.884  -9.598  0.00  0.00    -0.648 OA
ENDBRANCH   7   8
ENDBRANCH   6   7
BRANCH   6  11
HETATM   11  C           1     -21.145  -3.544 -11.382  0.00  0.00     0.197 C 
HETATM   12  O           1     -19.919  -3.691 -11.578  0.00  0.00    -0.646 OA
HETATM   13  O           1     -21.712  -2.486 -11.731  0.00  0.00    -0.646 OA
ENDBRANCH   6  11
ENDBRANCH   3   6
ENDBRANCH   1   2
BRANCH   1  14
HETATM   14  C           1     -22.291  -5.462  -6.355  0.00  0.00     0.081 C 
BRANCH  14  15
HETATM   15  C           1     -21.643  -6.372  -5.358  0.00  0.00    -0.056 A 
HETATM   16  C           1     -20.910  -7.475  -5.793  0.00  0.00     0.010 A 
HETATM   17  C           1     -20.308  -8.323  -4.864  0.00  0.00     0.038 A 
HETATM   18  C           1     -20.438  -8.067  -3.499  0.00  0.00     0.081 A 
HETATM   19  C           1     -21.172  -6.963  -3.063  0.00  0.00     0.038 A 
HETATM   20  C           1     -21.775  -6.115  -3.994  0.00  0.00     0.010 A 
BRANCH  18  21
HETATM   21  O           1     -19.853  -8.891  -2.596  0.00  0.00    -0.247 OA
BRANCH  21  22
HETATM   22  P           1     -20.807  -9.862  -1.727  0.00  0.00     0.411 P 
HETATM   23  O           1     -20.080 -11.110  -1.408  0.00  0.00    -0.624 OA
HETATM   24  O           1     -21.193  -9.180  -0.471  0.00  0.00    -0.624 OA
BRANCH  22  25
HETATM   25  O           1     -22.135 -10.215  -2.577  0.00  0.00    -0.300 OA
HETATM   26  H           1     -22.844 -10.144  -1.962  0.00  0.00     0.223 HD
ENDBRANCH  22  25
ENDBRANCH  21  22
ENDBRANCH  18  21
ENDBRANCH  14  15
ENDBRANCH   1  14
BRANCH   1  27
HETATM   27  N           1     -21.651  -3.113  -6.760  0.00  0.00    -0.066 N 
HETATM   28  H           1     -20.887  -2.594  -6.271  0.00  0.00     0.275 HD
HETATM   29  H           1     -21.833  -2.669  -7.689  0.00  0.00     0.275 HD
HETATM   30  H           1     -22.521  -3.080  -6.182  0.00  0.00     0.275 HD
ENDBRANCH   1  27
TORSDOF 11
ENDMDL
