MODEL 1
REMARK VINA RESULT:      -6.0      0.000      0.000
REMARK  7 active torsions:
REMARK  status: ('A' for Active; 'I' for Inactive)
REMARK    1  A    between atoms: N_1  and  C_12 
REMARK    2  A    between atoms: C_6  and  C_8 
REMARK    3  A    between atoms: C_8  and  C_11 
REMARK    4  A    between atoms: C_8  and  N_20 
REMARK    5  A    between atoms: C_9  and  C_11 
REMARK    6  A    between atoms: C_12  and  C_13 
REMARK    7  A    between atoms: C_12  and  C_14 
REMARK       I    between atoms: C_13  and  N_20 
ROOT
HETATM    1  C           1     -22.078  -4.170  -7.537  0.00  0.00     0.249 C 
HETATM    2  H           1     -23.229  -5.455  -8.683  0.00  0.00     0.163 HD
HETATM    3  O           1     -21.538  -3.090  -7.501  0.00  0.00    -0.271 OA
HETATM    4  N           1     -22.775  -4.550  -8.653  0.00  0.00    -0.344 N 
ENDROOT
BRANCH   1   5
HETATM    5  C           1     -21.986  -5.100  -6.352  0.00  0.00     0.278 C 
BRANCH   5   6
HETATM    6  N           1     -23.365  -5.520  -5.940  0.00  0.00    -0.066 N 
HETATM    7  H           1     -23.404  -5.615  -4.899  0.00  0.00     0.275 HD
HETATM    8  H           1     -24.056  -4.799  -6.249  0.00  0.00     0.275 HD
HETATM    9  H           1     -23.596  -6.438  -6.381  0.00  0.00     0.275 HD
ENDBRANCH   5   6
BRANCH   5  10
HETATM   10  C           1     -21.173  -6.330  -6.734  0.00  0.00     0.017 C 
HETATM   11  C           1     -19.717  -5.935  -6.936  0.00  0.00     0.012 C 
HETATM   12  C           1     -21.268  -7.365  -5.621  0.00  0.00     0.012 C 
ENDBRANCH   5  10
ENDBRANCH   1   5
BRANCH   4  13
HETATM   13  C           1     -22.864  -3.656  -9.792  0.00  0.00     0.195 C 
BRANCH  13  14
HETATM   14  C           1     -24.314  -3.429 -10.140  0.00  0.00     0.197 C 
HETATM   15  O           1     -24.763  -3.824 -11.237  0.00  0.00    -0.646 OA
HETATM   16  O           1     -25.067  -2.844  -9.331  0.00  0.00    -0.646 OA
ENDBRANCH  13  14
BRANCH  13  17
HETATM   17  C           1     -22.147  -4.281 -10.982  0.00  0.00     0.149 C 
BRANCH  17  18
HETATM   18  C           1     -20.666  -4.014 -10.874  0.00  0.00     0.175 C 
HETATM   19  O           1     -20.191  -2.940 -11.304  0.00  0.00    -0.648 OA
HETATM   20  O           1     -19.914  -4.867 -10.356  0.00  0.00    -0.648 OA
ENDBRANCH  17  18
ENDBRANCH  13  17
ENDBRANCH   4  13
TORSDOF 7
ENDMDL
MODEL 2
REMARK VINA RESULT:      -5.4      5.110      7.534
REMARK  7 active torsions:
REMARK  status: ('A' for Active; 'I' for Inactive)
REMARK    1  A    between atoms: N_1  and  C_12 
REMARK    2  A    between atoms: C_6  and  C_8 
REMARK    3  A    between atoms: C_8  and  C_11 
REMARK    4  A    between atoms: C_8  and  N_20 
REMARK    5  A    between atoms: C_9  and  C_11 
REMARK    6  A    between atoms: C_12  and  C_13 
REMARK    7  A    between atoms: C_12  and  C_14 
REMARK       I    between atoms: C_13  and  N_20 
ROOT
HETATM    1  C           1     -21.321  -8.495  -2.204  0.00  0.00     0.249 C 
HETATM    2  H           1     -20.462  -6.920  -3.239  0.00  0.00     0.163 HD
HETATM    3  O           1     -21.707  -9.637  -2.282  0.00  0.00    -0.271 OA
HETATM    4  N           1     -20.787  -7.877  -3.304  0.00  0.00    -0.344 N 
ENDROOT
BRANCH   1   5
HETATM    5  C           1     -21.426  -7.750  -0.897  0.00  0.00     0.278 C 
BRANCH   5   6
HETATM    6  N           1     -22.330  -6.565  -1.069  0.00  0.00    -0.066 N 
HETATM    7  H           1     -21.752  -5.699  -1.170  0.00  0.00     0.275 HD
HETATM    8  H           1     -22.914  -6.695  -1.927  0.00  0.00     0.275 HD
HETATM    9  H           1     -22.950  -6.475  -0.233  0.00  0.00     0.275 HD
ENDBRANCH   5   6
BRANCH   5  10
HETATM   10  C           1     -22.000  -8.674   0.170  0.00  0.00     0.017 C 
HETATM   11  C           1     -21.056  -8.720   1.363  0.00  0.00     0.012 C 
HETATM   12  C           1     -23.358  -8.150   0.618  0.00  0.00     0.012 C 
ENDBRANCH   5  10
ENDBRANCH   1   5
BRANCH   4  13
HETATM   13  C           1     -20.686  -8.594  -4.561  0.00  0.00     0.195 C 
BRANCH  13  14
HETATM   14  C           1     -19.235  -8.873  -4.864  0.00  0.00     0.197 C 
HETATM   15  O           1     -18.826  -8.847  -6.045  0.00  0.00    -0.646 OA
HETATM   16  O           1     -18.440  -9.131  -3.934  0.00  0.00    -0.646 OA
ENDBRANCH  13  14
BRANCH  13  17
HETATM   17  C           1     -21.284  -7.746  -5.676  0.00  0.00     0.149 C 
BRANCH  17  18
HETATM   18  C           1     -21.652  -6.387  -5.132  0.00  0.00     0.175 C 
HETATM   19  O           1     -20.786  -5.489  -5.054  0.00  0.00    -0.648 OA
HETATM   20  O           1     -22.823  -6.159  -4.760  0.00  0.00    -0.648 OA
ENDBRANCH  17  18
ENDBRANCH  13  17
ENDBRANCH   4  13
TORSDOF 7
ENDMDL
MODEL 3
REMARK VINA RESULT:      -5.2      4.701      7.468
REMARK  7 active torsions:
REMARK  status: ('A' for Active; 'I' for Inactive)
REMARK    1  A    between atoms: N_1  and  C_12 
REMARK    2  A    between atoms: C_6  and  C_8 
REMARK    3  A    between atoms: C_8  and  C_11 
REMARK    4  A    between atoms: C_8  and  N_20 
REMARK    5  A    between atoms: C_9  and  C_11 
REMARK    6  A    between atoms: C_12  and  C_13 
REMARK    7  A    between atoms: C_12  and  C_14 
REMARK       I    between atoms: C_13  and  N_20 
ROOT
HETATM    1  C           1     -20.778  -7.476  -5.231  0.00  0.00     0.249 C 
HETATM    2  H           1     -22.313  -7.171  -3.875  0.00  0.00     0.163 HD
HETATM    3  O           1     -19.726  -8.036  -5.426  0.00  0.00    -0.271 OA
HETATM    4  N           1     -21.431  -7.639  -4.038  0.00  0.00    -0.344 N 
ENDROOT
BRANCH   1   5
HETATM    5  C           1     -21.375  -6.598  -6.303  0.00  0.00     0.278 C 
BRANCH   5   6
HETATM    6  N           1     -22.425  -5.715  -5.697  0.00  0.00    -0.066 N 
HETATM    7  H           1     -23.362  -5.974  -6.081  0.00  0.00     0.275 HD
HETATM    8  H           1     -22.428  -5.840  -4.659  0.00  0.00     0.275 HD
HETATM    9  H           1     -22.218  -4.717  -5.928  0.00  0.00     0.275 HD
ENDBRANCH   5   6
BRANCH   5  10
HETATM   10  C           1     -20.282  -5.736  -6.921  0.00  0.00     0.017 C 
HETATM   11  C           1     -20.792  -5.117  -8.214  0.00  0.00     0.012 C 
HETATM   12  C           1     -19.898  -4.630  -5.947  0.00  0.00     0.012 C 
ENDBRANCH   5  10
ENDBRANCH   1   5
BRANCH   4  13
HETATM   13  C           1     -20.857  -8.484  -3.008  0.00  0.00     0.195 C 
BRANCH  13  14
HETATM   14  C           1     -21.726  -9.702  -2.816  0.00  0.00     0.197 C 
HETATM   15  O           1     -22.291 -10.229  -3.798  0.00  0.00    -0.646 OA
HETATM   16  O           1     -21.881 -10.185  -1.673  0.00  0.00    -0.646 OA
ENDBRANCH  13  14
BRANCH  13  17
HETATM   17  C           1     -20.778  -7.705  -1.701  0.00  0.00     0.149 C 
BRANCH  17  18
HETATM   18  C           1     -21.978  -6.798  -1.583  0.00  0.00     0.175 C 
HETATM   19  O           1     -22.097  -5.815  -2.345  0.00  0.00    -0.648 OA
HETATM   20  O           1     -22.854  -7.030  -0.722  0.00  0.00    -0.648 OA
ENDBRANCH  17  18
ENDBRANCH  13  17
ENDBRANCH   4  13
TORSDOF 7
ENDMDL
MODEL 4
REMARK VINA RESULT:      -5.1      5.759      7.786
REMARK  7 active torsions:
REMARK  status: ('A' for Active; 'I' for Inactive)
REMARK    1  A    between atoms: N_1  and  C_12 
REMARK    2  A    between atoms: C_6  and  C_8 
REMARK    3  A    between atoms: C_8  and  C_11 
REMARK    4  A    between atoms: C_8  and  N_20 
REMARK    5  A    between atoms: C_9  and  C_11 
REMARK    6  A    between atoms: C_12  and  C_13 
REMARK    7  A    between atoms: C_12  and  C_14 
REMARK       I    between atoms: C_13  and  N_20 
ROOT
HETATM    1  C           1     -21.087  -8.903  -1.535  0.00  0.00     0.249 C 
HETATM    2  H           1     -22.205  -9.302  -3.231  0.00  0.00     0.163 HD
HETATM    3  O           1     -20.244  -8.185  -1.051  0.00  0.00    -0.271 OA
HETATM    4  N           1     -21.499  -8.702  -2.826  0.00  0.00    -0.344 N 
ENDROOT
BRANCH   1   5
HETATM    5  C           1     -21.686 -10.021  -0.718  0.00  0.00     0.278 C 
BRANCH   5   6
HETATM    6  N           1     -20.995 -10.093   0.611  0.00  0.00    -0.066 N 
HETATM    7  H           1     -20.806 -11.093   0.852  0.00  0.00     0.275 HD
HETATM    8  H           1     -20.090  -9.571   0.562  0.00  0.00     0.275 HD
HETATM    9  H           1     -21.605  -9.668   1.345  0.00  0.00     0.275 HD
ENDBRANCH   5   6
BRANCH   5  10
HETATM   10  C           1     -23.170  -9.755  -0.504  0.00  0.00     0.017 C 
HETATM   11  C           1     -23.842 -11.017   0.018  0.00  0.00     0.012 C 
HETATM   12  C           1     -23.343  -8.632   0.509  0.00  0.00     0.012 C 
ENDBRANCH   5  10
ENDBRANCH   1   5
BRANCH   4  13
HETATM   13  C           1     -20.923  -7.627  -3.611  0.00  0.00     0.195 C 
BRANCH  13  14
HETATM   14  C           1     -21.908  -6.488  -3.703  0.00  0.00     0.197 C 
HETATM   15  O           1     -22.268  -6.061  -4.821  0.00  0.00    -0.646 OA
HETATM   16  O           1     -22.364  -5.970  -2.660  0.00  0.00    -0.646 OA
ENDBRANCH  13  14
BRANCH  13  17
HETATM   17  C           1     -20.604  -8.137  -5.010  0.00  0.00     0.149 C 
BRANCH  17  18
HETATM   18  C           1     -19.302  -8.900  -4.983  0.00  0.00     0.175 C 
HETATM   19  O           1     -18.890  -9.471  -6.016  0.00  0.00    -0.648 OA
HETATM   20  O           1     -18.636  -8.960  -3.927  0.00  0.00    -0.648 OA
ENDBRANCH  17  18
ENDBRANCH  13  17
ENDBRANCH   4  13
TORSDOF 7
ENDMDL
MODEL 5
REMARK VINA RESULT:      -5.0      5.732      8.202
REMARK  7 active torsions:
REMARK  status: ('A' for Active; 'I' for Inactive)
REMARK    1  A    between atoms: N_1  and  C_12 
REMARK    2  A    between atoms: C_6  and  C_8 
REMARK    3  A    between atoms: C_8  and  C_11 
REMARK    4  A    between atoms: C_8  and  N_20 
REMARK    5  A    between atoms: C_9  and  C_11 
REMARK    6  A    between atoms: C_12  and  C_13 
REMARK    7  A    between atoms: C_12  and  C_14 
REMARK       I    between atoms: C_13  and  N_20 
ROOT
HETATM    1  C           1     -21.602  -9.582  -2.144  0.00  0.00     0.249 C 
HETATM    2  H           1     -20.243  -8.030  -1.970  0.00  0.00     0.163 HD
HETATM    3  O           1     -22.231 -10.266  -2.917  0.00  0.00    -0.271 OA
HETATM    4  N           1     -20.770  -8.602  -2.617  0.00  0.00    -0.344 N 
ENDROOT
BRANCH   1   5
HETATM    5  C           1     -21.732  -9.808  -0.658  0.00  0.00     0.278 C 
BRANCH   5   6
HETATM    6  N           1     -20.586 -10.651  -0.180  0.00  0.00    -0.066 N 
HETATM    7  H           1     -20.943 -11.589   0.112  0.00  0.00     0.275 HD
HETATM    8  H           1     -19.894 -10.768  -0.954  0.00  0.00     0.275 HD
HETATM    9  H           1     -20.127 -10.184   0.634  0.00  0.00     0.275 HD
ENDBRANCH   5   6
BRANCH   5  10
HETATM   10  C           1     -21.712  -8.468   0.064  0.00  0.00     0.017 C 
HETATM   11  C           1     -23.139  -7.985   0.281  0.00  0.00     0.012 C 
HETATM   12  C           1     -21.020  -8.628   1.411  0.00  0.00     0.012 C 
ENDBRANCH   5  10
ENDBRANCH   1   5
BRANCH   4  13
HETATM   13  C           1     -20.646  -8.384  -4.046  0.00  0.00     0.195 C 
BRANCH  13  14
HETATM   14  C           1     -19.332  -8.948  -4.527  0.00  0.00     0.197 C 
HETATM   15  O           1     -18.411  -9.171  -3.712  0.00  0.00    -0.646 OA
HETATM   16  O           1     -19.163  -9.190  -5.742  0.00  0.00    -0.646 OA
ENDBRANCH  13  14
BRANCH  13  17
HETATM   17  C           1     -20.695  -6.890  -4.336  0.00  0.00     0.149 C 
BRANCH  17  18
HETATM   18  C           1     -22.063  -6.355  -3.990  0.00  0.00     0.175 C 
HETATM   19  O           1     -22.346  -6.081  -2.804  0.00  0.00    -0.648 OA
HETATM   20  O           1     -22.914  -6.186  -4.890  0.00  0.00    -0.648 OA
ENDBRANCH  17  18
ENDBRANCH  13  17
ENDBRANCH   4  13
TORSDOF 7
ENDMDL
MODEL 6
REMARK VINA RESULT:      -4.8      4.868      7.194
REMARK  7 active torsions:
REMARK  status: ('A' for Active; 'I' for Inactive)
REMARK    1  A    between atoms: N_1  and  C_12 
REMARK    2  A    between atoms: C_6  and  C_8 
REMARK    3  A    between atoms: C_8  and  C_11 
REMARK    4  A    between atoms: C_8  and  N_20 
REMARK    5  A    between atoms: C_9  and  C_11 
REMARK    6  A    between atoms: C_12  and  C_13 
REMARK    7  A    between atoms: C_12  and  C_14 
REMARK       I    between atoms: C_13  and  N_20 
ROOT
HETATM    1  C           1     -20.003  -9.249  -4.728  0.00  0.00     0.249 C 
HETATM    2  H           1     -19.241  -7.337  -4.499  0.00  0.00     0.163 HD
HETATM    3  O           1     -21.011  -9.915  -4.772  0.00  0.00    -0.271 OA
HETATM    4  N           1     -20.085  -7.895  -4.535  0.00  0.00    -0.344 N 
ENDROOT
BRANCH   1   5
HETATM    5  C           1     -18.655  -9.908  -4.886  0.00  0.00     0.278 C 
BRANCH   5   6
HETATM    6  N           1     -18.037  -9.474  -6.182  0.00  0.00    -0.066 N 
HETATM    7  H           1     -17.915  -8.436  -6.179  0.00  0.00     0.275 HD
HETATM    8  H           1     -17.105  -9.934  -6.295  0.00  0.00     0.275 HD
HETATM    9  H           1     -18.661  -9.749  -6.975  0.00  0.00     0.275 HD
ENDBRANCH   5   6
BRANCH   5  10
HETATM   10  C           1     -17.751  -9.500  -3.731  0.00  0.00     0.017 C 
HETATM   11  C           1     -18.170 -10.243  -2.470  0.00  0.00     0.012 C 
HETATM   12  C           1     -16.308  -9.848  -4.070  0.00  0.00     0.012 C 
ENDBRANCH   5  10
ENDBRANCH   1   5
BRANCH   4  13
HETATM   13  C           1     -21.381  -7.262  -4.382  0.00  0.00     0.195 C 
BRANCH  13  14
HETATM   14  C           1     -21.721  -6.504  -5.642  0.00  0.00     0.197 C 
HETATM   15  O           1     -21.092  -6.732  -6.698  0.00  0.00    -0.646 OA
HETATM   16  O           1     -22.631  -5.647  -5.629  0.00  0.00    -0.646 OA
ENDBRANCH  13  14
BRANCH  13  17
HETATM   17  C           1     -21.337  -6.297  -3.204  0.00  0.00     0.149 C 
BRANCH  17  18
HETATM   18  C           1     -21.732  -7.025  -1.943  0.00  0.00     0.175 C 
HETATM   19  O           1     -22.622  -6.555  -1.201  0.00  0.00    -0.648 OA
HETATM   20  O           1     -21.168  -8.098  -1.639  0.00  0.00    -0.648 OA
ENDBRANCH  17  18
ENDBRANCH  13  17
ENDBRANCH   4  13
TORSDOF 7
ENDMDL
MODEL 7
REMARK VINA RESULT:      -4.7      6.422      8.685
REMARK  7 active torsions:
REMARK  status: ('A' for Active; 'I' for Inactive)
REMARK    1  A    between atoms: N_1  and  C_12 
REMARK    2  A    between atoms: C_6  and  C_8 
REMARK    3  A    between atoms: C_8  and  C_11 
REMARK    4  A    between atoms: C_8  and  N_20 
REMARK    5  A    between atoms: C_9  and  C_11 
REMARK    6  A    between atoms: C_12  and  C_13 
REMARK    7  A    between atoms: C_12  and  C_14 
REMARK       I    between atoms: C_13  and  N_20 
ROOT
HETATM    1  C           1     -20.563  -8.700  -1.902  0.00  0.00     0.249 C 
HETATM    2  H           1     -20.210 -10.497  -2.867  0.00  0.00     0.163 HD
HETATM    3  O           1     -20.330  -7.514  -1.901  0.00  0.00    -0.271 OA
HETATM    4  N           1     -20.015  -9.504  -2.866  0.00  0.00    -0.344 N 
ENDROOT
BRANCH   1   5
HETATM    5  C           1     -21.458  -9.294  -0.843  0.00  0.00     0.278 C 
BRANCH   5   6
HETATM    6  N           1     -20.800 -10.508  -0.257  0.00  0.00    -0.066 N 
HETATM    7  H           1     -20.849 -10.461   0.786  0.00  0.00     0.275 HD
HETATM    8  H           1     -21.294 -11.367  -0.591  0.00  0.00     0.275 HD
HETATM    9  H           1     -19.799 -10.540  -0.557  0.00  0.00     0.275 HD
ENDBRANCH   5   6
BRANCH   5  10
HETATM   10  C           1     -21.697  -8.266   0.255  0.00  0.00     0.017 C 
HETATM   11  C           1     -23.192  -8.126   0.503  0.00  0.00     0.012 C 
HETATM   12  C           1     -21.011  -8.724   1.536  0.00  0.00     0.012 C 
ENDBRANCH   5  10
ENDBRANCH   1   5
BRANCH   4  13
HETATM   13  C           1     -19.154  -8.933  -3.884  0.00  0.00     0.195 C 
BRANCH  13  14
HETATM   14  C           1     -19.938  -8.750  -5.160  0.00  0.00     0.197 C 
HETATM   15  O           1     -19.848  -7.682  -5.803  0.00  0.00    -0.646 OA
HETATM   16  O           1     -20.680  -9.668  -5.574  0.00  0.00    -0.646 OA
ENDBRANCH  13  14
BRANCH  13  17
HETATM   17  C           1     -17.980  -9.870  -4.138  0.00  0.00     0.149 C 
BRANCH  17  18
HETATM   18  C           1     -17.130  -9.959  -2.895  0.00  0.00     0.175 C 
HETATM   19  O           1     -16.100  -9.258  -2.789  0.00  0.00    -0.648 OA
HETATM   20  O           1     -17.455 -10.735  -1.971  0.00  0.00    -0.648 OA
ENDBRANCH  17  18
ENDBRANCH  13  17
ENDBRANCH   4  13
TORSDOF 7
ENDMDL
MODEL 8
REMARK VINA RESULT:      -4.6     19.766     21.263
REMARK  7 active torsions:
REMARK  status: ('A' for Active; 'I' for Inactive)
REMARK    1  A    between atoms: N_1  and  C_12 
REMARK    2  A    between atoms: C_6  and  C_8 
REMARK    3  A    between atoms: C_8  and  C_11 
REMARK    4  A    between atoms: C_8  and  N_20 
REMARK    5  A    between atoms: C_9  and  C_11 
REMARK    6  A    between atoms: C_12  and  C_13 
REMARK    7  A    between atoms: C_12  and  C_14 
REMARK       I    between atoms: C_13  and  N_20 
ROOT
HETATM    1  C           1     -16.374   9.820   3.633  0.00  0.00     0.249 C 
HETATM    2  H           1     -14.948  10.448   4.996  0.00  0.00     0.163 HD
HETATM    3  O           1     -17.480   9.353   3.501  0.00  0.00    -0.271 OA
HETATM    4  N           1     -15.874  10.056   4.886  0.00  0.00    -0.344 N 
ENDROOT
BRANCH   1   5
HETATM    5  C           1     -15.543  10.144   2.416  0.00  0.00     0.278 C 
BRANCH   5   6
HETATM    6  N           1     -15.283  11.621   2.368  0.00  0.00    -0.066 N 
HETATM    7  H           1     -14.342  11.822   2.778  0.00  0.00     0.275 HD
HETATM    8  H           1     -15.307  11.947   1.375  0.00  0.00     0.275 HD
HETATM    9  H           1     -16.017  12.121   2.919  0.00  0.00     0.275 HD
ENDBRANCH   5   6
BRANCH   5  10
HETATM   10  C           1     -14.217   9.398   2.493  0.00  0.00     0.017 C 
HETATM   11  C           1     -14.450   7.918   2.224  0.00  0.00     0.012 C 
HETATM   12  C           1     -13.259   9.958   1.449  0.00  0.00     0.012 C 
ENDBRANCH   5  10
ENDBRANCH   1   5
BRANCH   4  13
HETATM   13  C           1     -16.674   9.744   6.055  0.00  0.00     0.195 C 
BRANCH  13  14
HETATM   14  C           1     -17.246  11.017   6.627  0.00  0.00     0.197 C 
HETATM   15  O           1     -16.551  12.055   6.661  0.00  0.00    -0.646 OA
HETATM   16  O           1     -18.416  11.035   7.068  0.00  0.00    -0.646 OA
ENDBRANCH  13  14
BRANCH  13  17
HETATM   17  C           1     -15.798   9.066   7.101  0.00  0.00     0.149 C 
BRANCH  17  18
HETATM   18  C           1     -14.346   9.232   6.724  0.00  0.00     0.175 C 
HETATM   19  O           1     -13.748   8.317   6.118  0.00  0.00    -0.648 OA
HETATM   20  O           1     -13.741  10.285   7.020  0.00  0.00    -0.648 OA
ENDBRANCH  17  18
ENDBRANCH  13  17
ENDBRANCH   4  13
TORSDOF 7
ENDMDL
MODEL 9
REMARK VINA RESULT:      -4.6      7.428      9.431
REMARK  7 active torsions:
REMARK  status: ('A' for Active; 'I' for Inactive)
REMARK    1  A    between atoms: N_1  and  C_12 
REMARK    2  A    between atoms: C_6  and  C_8 
REMARK    3  A    between atoms: C_8  and  C_11 
REMARK    4  A    between atoms: C_8  and  N_20 
REMARK    5  A    between atoms: C_9  and  C_11 
REMARK    6  A    between atoms: C_12  and  C_13 
REMARK    7  A    between atoms: C_12  and  C_14 
REMARK       I    between atoms: C_13  and  N_20 
ROOT
HETATM    1  C           1     -22.231 -10.833  -2.245  0.00  0.00     0.249 C 
HETATM    2  H           1     -20.861  -9.982  -0.946  0.00  0.00     0.163 HD
HETATM    3  O           1     -22.801 -10.709  -3.303  0.00  0.00    -0.271 OA
HETATM    4  N           1     -21.340  -9.878  -1.831  0.00  0.00    -0.344 N 
ENDROOT
BRANCH   1   5
HETATM    5  C           1     -22.498 -12.041  -1.380  0.00  0.00     0.278 C 
BRANCH   5   6
HETATM    6  N           1     -21.254 -12.874  -1.289  0.00  0.00    -0.066 N 
HETATM    7  H           1     -20.787 -12.702  -0.370  0.00  0.00     0.275 HD
HETATM    8  H           1     -21.507 -13.886  -1.367  0.00  0.00     0.275 HD
HETATM    9  H           1     -20.604 -12.615  -2.064  0.00  0.00     0.275 HD
ENDBRANCH   5   6
BRANCH   5  10
HETATM   10  C           1     -22.907 -11.586   0.015  0.00  0.00     0.017 C 
HETATM   11  C           1     -24.160 -10.725  -0.078  0.00  0.00     0.012 C 
HETATM   12  C           1     -23.192 -12.804   0.882  0.00  0.00     0.012 C 
ENDBRANCH   5  10
ENDBRANCH   1   5
BRANCH   4  13
HETATM   13  C           1     -21.083  -8.718  -2.663  0.00  0.00     0.195 C 
BRANCH  13  14
HETATM   14  C           1     -19.858  -8.967  -3.507  0.00  0.00     0.197 C 
HETATM   15  O           1     -19.672  -8.305  -4.551  0.00  0.00    -0.646 OA
HETATM   16  O           1     -19.028  -9.836  -3.163  0.00  0.00    -0.646 OA
ENDBRANCH  13  14
BRANCH  13  17
HETATM   17  C           1     -20.851  -7.501  -1.776  0.00  0.00     0.149 C 
BRANCH  17  18
HETATM   18  C           1     -22.175  -6.846  -1.465  0.00  0.00     0.175 C 
HETATM   19  O           1     -22.857  -7.245  -0.496  0.00  0.00    -0.648 OA
HETATM   20  O           1     -22.588  -5.905  -2.175  0.00  0.00    -0.648 OA
ENDBRANCH  17  18
ENDBRANCH  13  17
ENDBRANCH   4  13
TORSDOF 7
ENDMDL
