MODEL 1
REMARK VINA RESULT:      -7.7      0.000      0.000
REMARK  11 active torsions:
REMARK  status: ('A' for Active; 'I' for Inactive)
REMARK    1  A    between atoms: C_2  and  C_9 
REMARK    2  A    between atoms: C_5  and  C_9 
REMARK    3  A    between atoms: C_5  and  C_28 
REMARK    4  A    between atoms: O_6  and  C_12 
REMARK    5  A    between atoms: O_6  and  P_7 
REMARK    6  A    between atoms: P_7  and  O_19 
REMARK    7  A    between atoms: C_8  and  C_24 
REMARK    8  A    between atoms: C_8  and  C_11 
REMARK    9  A    between atoms: C_8  and  N_16 
REMARK   10  A    between atoms: C_9  and  N_14 
REMARK   11  A    between atoms: C_11  and  O_15 
REMARK       I    between atoms: N_14  and  C_24 
ROOT
HETATM    1  C           1     -36.554  -0.587 -12.148  0.00  0.00     0.189 C 
ENDROOT
BRANCH   1   2
HETATM    2  C           1     -36.965   0.035 -10.837  0.00  0.00     0.197 C 
HETATM    3  O           1     -36.213   0.862 -10.275  0.00  0.00    -0.646 OA
HETATM    4  O           1     -38.056  -0.274 -10.312  0.00  0.00    -0.646 OA
ENDBRANCH   1   2
BRANCH   1   5
HETATM    5  C           1     -35.034  -0.648 -12.228  0.00  0.00     0.074 C 
BRANCH   5   6
HETATM    6  C           1     -34.573  -2.038 -11.919  0.00  0.00    -0.056 A 
HETATM    7  C           1     -34.639  -3.029 -12.899  0.00  0.00     0.010 A 
HETATM    8  C           1     -34.209  -4.325 -12.611  0.00  0.00     0.038 A 
HETATM    9  C           1     -33.712  -4.629 -11.343  0.00  0.00     0.081 A 
HETATM   10  C           1     -33.645  -3.638 -10.364  0.00  0.00     0.038 A 
HETATM   11  C           1     -34.075  -2.343 -10.652  0.00  0.00     0.010 A 
BRANCH   9  12
HETATM   12  O           1     -33.294  -5.887 -11.065  0.00  0.00    -0.247 OA
BRANCH  12  13
HETATM   13  P           1     -34.406  -6.979 -10.641  0.00  0.00     0.411 P 
HETATM   14  O           1     -33.735  -8.174 -10.080  0.00  0.00    -0.624 OA
HETATM   15  O           1     -35.309  -6.398  -9.623  0.00  0.00    -0.624 OA
BRANCH  13  16
HETATM   16  O           1     -35.264  -7.404 -11.941  0.00  0.00    -0.300 OA
HETATM   17  H           1     -35.687  -8.212 -11.701  0.00  0.00     0.223 HD
ENDBRANCH  13  16
ENDBRANCH  12  13
ENDBRANCH   9  12
ENDBRANCH   5   6
ENDBRANCH   1   5
BRANCH   1  18
HETATM   18  N           1     -37.062   0.214 -13.244  0.00  0.00    -0.344 N 
HETATM   19  C           1     -37.097  -0.301 -14.511  0.00  0.00     0.251 C 
HETATM   20  O           1     -38.075  -0.898 -14.894  0.00  0.00    -0.271 OA
HETATM   21  H           1     -37.392   1.156 -13.072  0.00  0.00     0.163 HD
BRANCH  19  22
HETATM   22  C           1     -35.914  -0.124 -15.431  0.00  0.00     0.297 C 
BRANCH  22  23
HETATM   23  C           1     -35.504   1.342 -15.458  0.00  0.00     0.206 C 
BRANCH  23  24
HETATM   24  O           1     -36.443   2.078 -16.196  0.00  0.00    -0.398 OA
HETATM   25  H           1     -37.066   1.460 -16.540  0.00  0.00     0.209 HD
ENDBRANCH  23  24
ENDBRANCH  22  23
BRANCH  22  26
HETATM   26  N           1     -36.289  -0.563 -16.817  0.00  0.00    -0.064 N 
HETATM   27  H           1     -36.642   0.258 -17.359  0.00  0.00     0.275 HD
HETATM   28  H           1     -35.450  -0.960 -17.294  0.00  0.00     0.275 HD
HETATM   29  H           1     -37.037  -1.291 -16.761  0.00  0.00     0.275 HD
ENDBRANCH  22  26
ENDBRANCH  19  22
ENDBRANCH   1  18
TORSDOF 11
ENDMDL
MODEL 2
REMARK VINA RESULT:      -7.6      6.466      8.207
REMARK  11 active torsions:
REMARK  status: ('A' for Active; 'I' for Inactive)
REMARK    1  A    between atoms: C_2  and  C_9 
REMARK    2  A    between atoms: C_5  and  C_9 
REMARK    3  A    between atoms: C_5  and  C_28 
REMARK    4  A    between atoms: O_6  and  C_12 
REMARK    5  A    between atoms: O_6  and  P_7 
REMARK    6  A    between atoms: P_7  and  O_19 
REMARK    7  A    between atoms: C_8  and  C_24 
REMARK    8  A    between atoms: C_8  and  C_11 
REMARK    9  A    between atoms: C_8  and  N_16 
REMARK   10  A    between atoms: C_9  and  N_14 
REMARK   11  A    between atoms: C_11  and  O_15 
REMARK       I    between atoms: N_14  and  C_24 
ROOT
HETATM    1  C           1     -32.448  -4.340 -16.223  0.00  0.00     0.189 C 
ENDROOT
BRANCH   1   2
HETATM    2  C           1     -32.629  -3.318 -17.318  0.00  0.00     0.197 C 
HETATM    3  O           1     -31.658  -2.988 -18.032  0.00  0.00    -0.646 OA
HETATM    4  O           1     -33.751  -2.801 -17.512  0.00  0.00    -0.646 OA
ENDBRANCH   1   2
BRANCH   1   5
HETATM    5  C           1     -31.933  -5.642 -16.822  0.00  0.00     0.074 C 
BRANCH   5   6
HETATM    6  C           1     -30.436  -5.633 -16.824  0.00  0.00    -0.056 A 
HETATM    7  C           1     -29.740  -5.185 -15.701  0.00  0.00     0.010 A 
HETATM    8  C           1     -28.345  -5.177 -15.702  0.00  0.00     0.038 A 
HETATM    9  C           1     -27.646  -5.617 -16.826  0.00  0.00     0.081 A 
HETATM   10  C           1     -28.342  -6.066 -17.948  0.00  0.00     0.038 A 
HETATM   11  C           1     -29.737  -6.074 -17.947  0.00  0.00     0.010 A 
BRANCH   9  12
HETATM   12  O           1     -26.292  -5.610 -16.827  0.00  0.00    -0.247 OA
BRANCH  12  13
HETATM   13  P           1     -25.527  -6.699 -15.913  0.00  0.00     0.411 P 
HETATM   14  O           1     -26.507  -7.673 -15.382  0.00  0.00    -0.624 OA
HETATM   15  O           1     -24.518  -7.411 -16.730  0.00  0.00    -0.624 OA
BRANCH  13  16
HETATM   16  O           1     -24.793  -5.950 -14.685  0.00  0.00    -0.300 OA
HETATM   17  H           1     -23.982  -5.631 -15.043  0.00  0.00     0.223 HD
ENDBRANCH  13  16
ENDBRANCH  12  13
ENDBRANCH   9  12
ENDBRANCH   5   6
ENDBRANCH   1   5
BRANCH   1  18
HETATM   18  N           1     -33.721  -4.580 -15.571  0.00  0.00    -0.344 N 
HETATM   19  C           1     -34.081  -3.839 -14.478  0.00  0.00     0.251 C 
HETATM   20  O           1     -34.694  -2.808 -14.622  0.00  0.00    -0.271 OA
HETATM   21  H           1     -34.343  -5.296 -15.924  0.00  0.00     0.163 HD
BRANCH  19  22
HETATM   22  C           1     -33.713  -4.309 -13.092  0.00  0.00     0.297 C 
BRANCH  22  23
HETATM   23  C           1     -34.760  -5.296 -12.593  0.00  0.00     0.206 C 
BRANCH  23  24
HETATM   24  O           1     -35.359  -5.936 -13.687  0.00  0.00    -0.398 OA
HETATM   25  H           1     -34.663  -6.211 -14.259  0.00  0.00     0.209 HD
ENDBRANCH  23  24
ENDBRANCH  22  23
BRANCH  22  26
HETATM   26  N           1     -33.655  -3.131 -12.164  0.00  0.00    -0.064 N 
HETATM   27  H           1     -33.508  -2.257 -12.719  0.00  0.00     0.275 HD
HETATM   28  H           1     -34.554  -3.060 -11.637  0.00  0.00     0.275 HD
HETATM   29  H           1     -32.865  -3.255 -11.492  0.00  0.00     0.275 HD
ENDBRANCH  22  26
ENDBRANCH  19  22
ENDBRANCH   1  18
TORSDOF 11
ENDMDL
MODEL 3
REMARK VINA RESULT:      -6.7     14.077     17.297
REMARK  11 active torsions:
REMARK  status: ('A' for Active; 'I' for Inactive)
REMARK    1  A    between atoms: C_2  and  C_9 
REMARK    2  A    between atoms: C_5  and  C_9 
REMARK    3  A    between atoms: C_5  and  C_28 
REMARK    4  A    between atoms: O_6  and  C_12 
REMARK    5  A    between atoms: O_6  and  P_7 
REMARK    6  A    between atoms: P_7  and  O_19 
REMARK    7  A    between atoms: C_8  and  C_24 
REMARK    8  A    between atoms: C_8  and  C_11 
REMARK    9  A    between atoms: C_8  and  N_16 
REMARK   10  A    between atoms: C_9  and  N_14 
REMARK   11  A    between atoms: C_11  and  O_15 
REMARK       I    between atoms: N_14  and  C_24 
ROOT
HETATM    1  C           1     -20.816  -7.446  -4.994  0.00  0.00     0.189 C 
ENDROOT
BRANCH   1   2
HETATM    2  C           1     -20.577  -8.923  -5.188  0.00  0.00     0.197 C 
HETATM    3  O           1     -21.507  -9.736  -4.999  0.00  0.00    -0.646 OA
HETATM    4  O           1     -19.450  -9.334  -5.538  0.00  0.00    -0.646 OA
ENDBRANCH   1   2
BRANCH   1   5
HETATM    5  C           1     -19.914  -6.657  -5.935  0.00  0.00     0.074 C 
BRANCH   5   6
HETATM    6  C           1     -20.751  -5.771  -6.803  0.00  0.00    -0.056 A 
HETATM    7  C           1     -20.265  -5.344  -8.039  0.00  0.00     0.010 A 
HETATM    8  C           1     -21.045  -4.518  -8.848  0.00  0.00     0.038 A 
HETATM    9  C           1     -22.312  -4.118  -8.421  0.00  0.00     0.081 A 
HETATM   10  C           1     -22.798  -4.545  -7.185  0.00  0.00     0.038 A 
HETATM   11  C           1     -22.018  -5.371  -6.377  0.00  0.00     0.010 A 
BRANCH   9  12
HETATM   12  O           1     -23.070  -3.316  -9.207  0.00  0.00    -0.247 OA
BRANCH  12  13
HETATM   13  P           1     -23.776  -3.972 -10.502  0.00  0.00     0.411 P 
HETATM   14  O           1     -24.126  -5.381 -10.213  0.00  0.00    -0.624 OA
HETATM   15  O           1     -25.005  -3.217 -10.832  0.00  0.00    -0.624 OA
BRANCH  13  16
HETATM   16  O           1     -22.758  -3.916 -11.755  0.00  0.00    -0.300 OA
HETATM   17  H           1     -21.909  -3.766 -11.373  0.00  0.00     0.223 HD
ENDBRANCH  13  16
ENDBRANCH  12  13
ENDBRANCH   9  12
ENDBRANCH   5   6
ENDBRANCH   1   5
BRANCH   1  18
HETATM   18  N           1     -20.516  -7.084  -3.623  0.00  0.00    -0.344 N 
HETATM   19  C           1     -20.670  -8.004  -2.622  0.00  0.00     0.251 C 
HETATM   20  O           1     -19.749  -8.722  -2.314  0.00  0.00    -0.271 OA
HETATM   21  H           1     -20.193  -6.150  -3.405  0.00  0.00     0.163 HD
BRANCH  19  22
HETATM   22  C           1     -21.991  -8.123  -1.902  0.00  0.00     0.297 C 
BRANCH  22  23
HETATM   23  C           1     -22.246  -6.859  -1.092  0.00  0.00     0.206 C 
BRANCH  23  24
HETATM   24  O           1     -22.586  -5.809  -1.956  0.00  0.00    -0.398 OA
HETATM   25  H           1     -22.401  -5.007  -1.498  0.00  0.00     0.209 HD
ENDBRANCH  23  24
ENDBRANCH  22  23
BRANCH  22  26
HETATM   26  N           1     -21.952  -9.307  -0.981  0.00  0.00    -0.064 N 
HETATM   27  H           1     -21.696 -10.163  -1.523  0.00  0.00     0.275 HD
HETATM   28  H           1     -21.241  -9.143  -0.234  0.00  0.00     0.275 HD
HETATM   29  H           1     -22.892  -9.440  -0.545  0.00  0.00     0.275 HD
ENDBRANCH  22  26
ENDBRANCH  19  22
ENDBRANCH   1  18
TORSDOF 11
ENDMDL
MODEL 4
REMARK VINA RESULT:      -6.4     14.132     16.415
REMARK  11 active torsions:
REMARK  status: ('A' for Active; 'I' for Inactive)
REMARK    1  A    between atoms: C_2  and  C_9 
REMARK    2  A    between atoms: C_5  and  C_9 
REMARK    3  A    between atoms: C_5  and  C_28 
REMARK    4  A    between atoms: O_6  and  C_12 
REMARK    5  A    between atoms: O_6  and  P_7 
REMARK    6  A    between atoms: P_7  and  O_19 
REMARK    7  A    between atoms: C_8  and  C_24 
REMARK    8  A    between atoms: C_8  and  C_11 
REMARK    9  A    between atoms: C_8  and  N_16 
REMARK   10  A    between atoms: C_9  and  N_14 
REMARK   11  A    between atoms: C_11  and  O_15 
REMARK       I    between atoms: N_14  and  C_24 
ROOT
HETATM    1  C           1     -21.003  -4.797  -6.553  0.00  0.00     0.189 C 
ENDROOT
BRANCH   1   2
HETATM    2  C           1     -19.725  -5.264  -7.204  0.00  0.00     0.197 C 
HETATM    3  O           1     -18.888  -4.429  -7.609  0.00  0.00    -0.646 OA
HETATM    4  O           1     -19.503  -6.487  -7.339  0.00  0.00    -0.646 OA
ENDBRANCH   1   2
BRANCH   1   5
HETATM    5  C           1     -21.927  -5.988  -6.333  0.00  0.00     0.074 C 
BRANCH   5   6
HETATM    6  C           1     -21.654  -6.592  -4.992  0.00  0.00    -0.056 A 
HETATM    7  C           1     -21.730  -7.974  -4.821  0.00  0.00     0.010 A 
HETATM    8  C           1     -21.475  -8.538  -3.570  0.00  0.00     0.038 A 
HETATM    9  C           1     -21.142  -7.719  -2.491  0.00  0.00     0.081 A 
HETATM   10  C           1     -21.065  -6.337  -2.662  0.00  0.00     0.038 A 
HETATM   11  C           1     -21.320  -5.774  -3.912  0.00  0.00     0.010 A 
BRANCH   9  12
HETATM   12  O           1     -20.894  -8.266  -1.277  0.00  0.00    -0.247 OA
BRANCH  12  13
HETATM   13  P           1     -22.110  -8.347  -0.218  0.00  0.00     0.411 P 
HETATM   14  O           1     -21.563  -8.439   1.155  0.00  0.00    -0.624 OA
HETATM   15  O           1     -22.949  -7.133  -0.334  0.00  0.00    -0.624 OA
BRANCH  13  16
HETATM   16  O           1     -23.007  -9.653  -0.529  0.00  0.00    -0.300 OA
HETATM   17  H           1     -22.769 -10.277   0.136  0.00  0.00     0.223 HD
ENDBRANCH  13  16
ENDBRANCH  12  13
ENDBRANCH   9  12
ENDBRANCH   5   6
ENDBRANCH   1   5
BRANCH   1  18
HETATM   18  N           1     -21.658  -3.830  -7.412  0.00  0.00    -0.344 N 
HETATM   19  C           1     -22.683  -4.223  -8.228  0.00  0.00     0.251 C 
HETATM   20  O           1     -23.823  -4.186  -7.828  0.00  0.00    -0.271 OA
HETATM   21  H           1     -21.357  -2.864  -7.407  0.00  0.00     0.163 HD
BRANCH  19  22
HETATM   22  C           1     -22.392  -4.703  -9.629  0.00  0.00     0.297 C 
BRANCH  22  23
HETATM   23  C           1     -21.663  -3.612 -10.400  0.00  0.00     0.206 C 
BRANCH  23  24
HETATM   24  O           1     -20.282  -3.731 -10.188  0.00  0.00    -0.398 OA
HETATM   25  H           1     -19.922  -4.150 -10.951  0.00  0.00     0.209 HD
ENDBRANCH  23  24
ENDBRANCH  22  23
BRANCH  22  26
HETATM   26  N           1     -23.683  -5.027 -10.324  0.00  0.00    -0.064 N 
HETATM   27  H           1     -23.778  -6.064 -10.416  0.00  0.00     0.275 HD
HETATM   28  H           1     -24.482  -4.653  -9.765  0.00  0.00     0.275 HD
HETATM   29  H           1     -23.686  -4.591 -11.273  0.00  0.00     0.275 HD
ENDBRANCH  22  26
ENDBRANCH  19  22
ENDBRANCH   1  18
TORSDOF 11
ENDMDL
MODEL 5
REMARK VINA RESULT:      -6.3     15.351     18.087
REMARK  11 active torsions:
REMARK  status: ('A' for Active; 'I' for Inactive)
REMARK    1  A    between atoms: C_2  and  C_9 
REMARK    2  A    between atoms: C_5  and  C_9 
REMARK    3  A    between atoms: C_5  and  C_28 
REMARK    4  A    between atoms: O_6  and  C_12 
REMARK    5  A    between atoms: O_6  and  P_7 
REMARK    6  A    between atoms: P_7  and  O_19 
REMARK    7  A    between atoms: C_8  and  C_24 
REMARK    8  A    between atoms: C_8  and  C_11 
REMARK    9  A    between atoms: C_8  and  N_16 
REMARK   10  A    between atoms: C_9  and  N_14 
REMARK   11  A    between atoms: C_11  and  O_15 
REMARK       I    between atoms: N_14  and  C_24 
ROOT
HETATM    1  C           1     -20.979  -7.369  -3.729  0.00  0.00     0.189 C 
ENDROOT
BRANCH   1   2
HETATM    2  C           1     -21.519  -6.853  -2.417  0.00  0.00     0.197 C 
HETATM    3  O           1     -22.303  -5.879  -2.404  0.00  0.00    -0.646 OA
HETATM    4  O           1     -21.183  -7.400  -1.345  0.00  0.00    -0.646 OA
ENDBRANCH   1   2
BRANCH   1   5
HETATM    5  C           1     -22.058  -7.263  -4.799  0.00  0.00     0.074 C 
BRANCH   5   6
HETATM    6  C           1     -21.612  -6.312  -5.865  0.00  0.00    -0.056 A 
HETATM    7  C           1     -20.329  -6.416  -6.401  0.00  0.00     0.010 A 
HETATM    8  C           1     -19.913  -5.529  -7.394  0.00  0.00     0.038 A 
HETATM    9  C           1     -20.782  -4.538  -7.853  0.00  0.00     0.081 A 
HETATM   10  C           1     -22.066  -4.435  -7.317  0.00  0.00     0.038 A 
HETATM   11  C           1     -22.481  -5.322  -6.324  0.00  0.00     0.010 A 
BRANCH   9  12
HETATM   12  O           1     -20.379  -3.678  -8.818  0.00  0.00    -0.247 OA
BRANCH  12  13
HETATM   13  P           1     -20.639  -4.089 -10.358  0.00  0.00     0.411 P 
HETATM   14  O           1     -19.725  -5.190 -10.735  0.00  0.00    -0.624 OA
HETATM   15  O           1     -22.041  -4.535 -10.521  0.00  0.00    -0.624 OA
BRANCH  13  16
HETATM   16  O           1     -20.366  -2.813 -11.308  0.00  0.00    -0.300 OA
HETATM   17  H           1     -20.410  -2.067 -10.734  0.00  0.00     0.223 HD
ENDBRANCH  13  16
ENDBRANCH  12  13
ENDBRANCH   9  12
ENDBRANCH   5   6
ENDBRANCH   1   5
BRANCH   1  18
HETATM   18  N           1     -20.584  -8.756  -3.577  0.00  0.00    -0.344 N 
HETATM   19  C           1     -19.280  -9.121  -3.771  0.00  0.00     0.251 C 
HETATM   20  O           1     -18.506  -9.116  -2.844  0.00  0.00    -0.271 OA
HETATM   21  H           1     -21.273  -9.453  -3.327  0.00  0.00     0.163 HD
BRANCH  19  22
HETATM   22  C           1     -18.807  -9.532  -5.144  0.00  0.00     0.297 C 
BRANCH  22  23
HETATM   23  C           1     -19.582 -10.760  -5.604  0.00  0.00     0.206 C 
BRANCH  23  24
HETATM   24  O           1     -20.859 -10.373  -6.037  0.00  0.00    -0.398 OA
HETATM   25  H           1     -20.866  -9.431  -6.061  0.00  0.00     0.209 HD
ENDBRANCH  23  24
ENDBRANCH  22  23
BRANCH  22  26
HETATM   26  N           1     -17.343  -9.858  -5.091  0.00  0.00    -0.064 N 
HETATM   27  H           1     -16.942  -9.515  -4.189  0.00  0.00     0.275 HD
HETATM   28  H           1     -17.215 -10.892  -5.158  0.00  0.00     0.275 HD
HETATM   29  H           1     -16.854  -9.393  -5.889  0.00  0.00     0.275 HD
ENDBRANCH  22  26
ENDBRANCH  19  22
ENDBRANCH   1  18
TORSDOF 11
ENDMDL
MODEL 6
REMARK VINA RESULT:      -6.1     14.718     17.586
REMARK  11 active torsions:
REMARK  status: ('A' for Active; 'I' for Inactive)
REMARK    1  A    between atoms: C_2  and  C_9 
REMARK    2  A    between atoms: C_5  and  C_9 
REMARK    3  A    between atoms: C_5  and  C_28 
REMARK    4  A    between atoms: O_6  and  C_12 
REMARK    5  A    between atoms: O_6  and  P_7 
REMARK    6  A    between atoms: P_7  and  O_19 
REMARK    7  A    between atoms: C_8  and  C_24 
REMARK    8  A    between atoms: C_8  and  C_11 
REMARK    9  A    between atoms: C_8  and  N_16 
REMARK   10  A    between atoms: C_9  and  N_14 
REMARK   11  A    between atoms: C_11  and  O_15 
REMARK       I    between atoms: N_14  and  C_24 
ROOT
HETATM    1  C           1     -20.951  -6.942  -3.994  0.00  0.00     0.189 C 
ENDROOT
BRANCH   1   2
HETATM    2  C           1     -21.469  -6.731  -2.593  0.00  0.00     0.197 C 
HETATM    3  O           1     -22.410  -5.934  -2.388  0.00  0.00    -0.646 OA
HETATM    4  O           1     -20.958  -7.354  -1.637  0.00  0.00    -0.646 OA
ENDBRANCH   1   2
BRANCH   1   5
HETATM    5  C           1     -22.123  -7.005  -4.965  0.00  0.00     0.074 C 
BRANCH   5   6
HETATM    6  C           1     -21.897  -6.038  -6.085  0.00  0.00    -0.056 A 
HETATM    7  C           1     -22.925  -5.187  -6.491  0.00  0.00     0.010 A 
HETATM    8  C           1     -22.714  -4.286  -7.534  0.00  0.00     0.038 A 
HETATM    9  C           1     -21.474  -4.235  -8.172  0.00  0.00     0.081 A 
HETATM   10  C           1     -20.446  -5.085  -7.765  0.00  0.00     0.038 A 
HETATM   11  C           1     -20.657  -5.986  -6.722  0.00  0.00     0.010 A 
BRANCH   9  12
HETATM   12  O           1     -21.269  -3.359  -9.184  0.00  0.00    -0.247 OA
BRANCH  12  13
HETATM   13  P           1     -21.429  -3.898 -10.698  0.00  0.00     0.411 P 
HETATM   14  O           1     -21.597  -2.749 -11.616  0.00  0.00    -0.624 OA
HETATM   15  O           1     -20.222  -4.663 -11.082  0.00  0.00    -0.624 OA
BRANCH  13  16
HETATM   16  O           1     -22.726  -4.857 -10.792  0.00  0.00    -0.300 OA
HETATM   17  H           1     -23.447  -4.275 -10.964  0.00  0.00     0.223 HD
ENDBRANCH  13  16
ENDBRANCH  12  13
ENDBRANCH   9  12
ENDBRANCH   5   6
ENDBRANCH   1   5
BRANCH   1  18
HETATM   18  N           1     -20.209  -8.187  -4.053  0.00  0.00    -0.344 N 
HETATM   19  C           1     -20.806  -9.318  -4.538  0.00  0.00     0.251 C 
HETATM   20  O           1     -20.744  -9.578  -5.716  0.00  0.00    -0.271 OA
HETATM   21  H           1     -19.249  -8.218  -3.736  0.00  0.00     0.163 HD
BRANCH  19  22
HETATM   22  C           1     -21.544 -10.243  -3.601  0.00  0.00     0.297 C 
BRANCH  22  23
HETATM   23  C           1     -20.554 -10.903  -2.652  0.00  0.00     0.206 C 
BRANCH  23  24
HETATM   24  O           1     -20.201 -10.000  -1.640  0.00  0.00    -0.398 OA
HETATM   25  H           1     -19.289 -10.143  -1.450  0.00  0.00     0.209 HD
ENDBRANCH  23  24
ENDBRANCH  22  23
BRANCH  22  26
HETATM   26  N           1     -22.251 -11.300  -4.399  0.00  0.00    -0.064 N 
HETATM   27  H           1     -22.249 -12.199  -3.866  0.00  0.00     0.275 HD
HETATM   28  H           1     -23.237 -11.002  -4.573  0.00  0.00     0.275 HD
HETATM   29  H           1     -21.760 -11.435  -5.311  0.00  0.00     0.275 HD
ENDBRANCH  22  26
ENDBRANCH  19  22
ENDBRANCH   1  18
TORSDOF 11
ENDMDL
MODEL 7
REMARK VINA RESULT:      -5.9     16.406     19.105
REMARK  11 active torsions:
REMARK  status: ('A' for Active; 'I' for Inactive)
REMARK    1  A    between atoms: C_2  and  C_9 
REMARK    2  A    between atoms: C_5  and  C_9 
REMARK    3  A    between atoms: C_5  and  C_28 
REMARK    4  A    between atoms: O_6  and  C_12 
REMARK    5  A    between atoms: O_6  and  P_7 
REMARK    6  A    between atoms: P_7  and  O_19 
REMARK    7  A    between atoms: C_8  and  C_24 
REMARK    8  A    between atoms: C_8  and  C_11 
REMARK    9  A    between atoms: C_8  and  N_16 
REMARK   10  A    between atoms: C_9  and  N_14 
REMARK   11  A    between atoms: C_11  and  O_15 
REMARK       I    between atoms: N_14  and  C_24 
ROOT
HETATM    1  C           1     -21.645 -10.503  -2.549  0.00  0.00     0.189 C 
ENDROOT
BRANCH   1   2
HETATM    2  C           1     -21.613 -11.888  -3.147  0.00  0.00     0.197 C 
HETATM    3  O           1     -21.003 -12.808  -2.561  0.00  0.00    -0.646 OA
HETATM    4  O           1     -22.197 -12.115  -4.229  0.00  0.00    -0.646 OA
ENDBRANCH   1   2
BRANCH   1   5
HETATM    5  C           1     -20.440  -9.709  -3.038  0.00  0.00     0.074 C 
BRANCH   5   6
HETATM    6  C           1     -20.908  -8.520  -3.816  0.00  0.00    -0.056 A 
HETATM    7  C           1     -21.169  -7.317  -3.161  0.00  0.00     0.010 A 
HETATM    8  C           1     -21.605  -6.207  -3.886  0.00  0.00     0.038 A 
HETATM    9  C           1     -21.779  -6.301  -5.267  0.00  0.00     0.081 A 
HETATM   10  C           1     -21.517  -7.504  -5.922  0.00  0.00     0.038 A 
HETATM   11  C           1     -21.081  -8.613  -5.197  0.00  0.00     0.010 A 
BRANCH   9  12
HETATM   12  O           1     -22.201  -5.224  -5.971  0.00  0.00    -0.247 OA
BRANCH  12  13
HETATM   13  P           1     -21.146  -4.502  -6.958  0.00  0.00     0.411 P 
HETATM   14  O           1     -19.791  -4.569  -6.367  0.00  0.00    -0.624 OA
HETATM   15  O           1     -21.147  -5.187  -8.270  0.00  0.00    -0.624 OA
BRANCH  13  16
HETATM   16  O           1     -21.570  -2.956  -7.159  0.00  0.00    -0.300 OA
HETATM   17  H           1     -20.936  -2.606  -7.762  0.00  0.00     0.223 HD
ENDBRANCH  13  16
ENDBRANCH  12  13
ENDBRANCH   9  12
ENDBRANCH   5   6
ENDBRANCH   1   5
BRANCH   1  18
HETATM   18  N           1     -21.604 -10.600  -1.103  0.00  0.00    -0.344 N 
HETATM   19  C           1     -22.554  -9.969  -0.347  0.00  0.00     0.251 C 
HETATM   20  O           1     -23.574 -10.546  -0.054  0.00  0.00    -0.271 OA
HETATM   21  H           1     -20.872 -11.134  -0.653  0.00  0.00     0.163 HD
BRANCH  19  22
HETATM   22  C           1     -22.329  -8.552   0.121  0.00  0.00     0.297 C 
BRANCH  22  23
HETATM   23  C           1     -21.228  -8.531   1.172  0.00  0.00     0.206 C 
BRANCH  23  24
HETATM   24  O           1     -20.829  -9.845   1.459  0.00  0.00    -0.398 OA
HETATM   25  H           1     -19.891  -9.870   1.374  0.00  0.00     0.209 HD
ENDBRANCH  23  24
ENDBRANCH  22  23
BRANCH  22  26
HETATM   26  N           1     -23.598  -8.016   0.717  0.00  0.00    -0.064 N 
HETATM   27  H           1     -23.367  -7.367   1.503  0.00  0.00     0.275 HD
HETATM   28  H           1     -24.134  -7.499  -0.015  0.00  0.00     0.275 HD
HETATM   29  H           1     -24.175  -8.809   1.077  0.00  0.00     0.275 HD
ENDBRANCH  22  26
ENDBRANCH  19  22
ENDBRANCH   1  18
TORSDOF 11
ENDMDL
MODEL 8
REMARK VINA RESULT:      -5.9      8.524     10.765
REMARK  11 active torsions:
REMARK  status: ('A' for Active; 'I' for Inactive)
REMARK    1  A    between atoms: C_2  and  C_9 
REMARK    2  A    between atoms: C_5  and  C_9 
REMARK    3  A    between atoms: C_5  and  C_28 
REMARK    4  A    between atoms: O_6  and  C_12 
REMARK    5  A    between atoms: O_6  and  P_7 
REMARK    6  A    between atoms: P_7  and  O_19 
REMARK    7  A    between atoms: C_8  and  C_24 
REMARK    8  A    between atoms: C_8  and  C_11 
REMARK    9  A    between atoms: C_8  and  N_16 
REMARK   10  A    between atoms: C_9  and  N_14 
REMARK   11  A    between atoms: C_11  and  O_15 
REMARK       I    between atoms: N_14  and  C_24 
ROOT
HETATM    1  C           1     -27.380  -5.981 -17.355  0.00  0.00     0.189 C 
ENDROOT
BRANCH   1   2
HETATM    2  C           1     -27.952  -5.841 -15.966  0.00  0.00     0.197 C 
HETATM    3  O           1     -28.329  -6.855 -15.340  0.00  0.00    -0.646 OA
HETATM    4  O           1     -28.048  -4.711 -15.440  0.00  0.00    -0.646 OA
ENDBRANCH   1   2
BRANCH   1   5
HETATM    5  C           1     -28.499  -6.308 -18.335  0.00  0.00     0.074 C 
BRANCH   5   6
HETATM    6  C           1     -29.738  -5.565 -17.946  0.00  0.00    -0.056 A 
HETATM    7  C           1     -29.774  -4.173 -18.038  0.00  0.00     0.010 A 
HETATM    8  C           1     -30.929  -3.479 -17.676  0.00  0.00     0.038 A 
HETATM    9  C           1     -32.048  -4.178 -17.221  0.00  0.00     0.081 A 
HETATM   10  C           1     -32.012  -5.569 -17.130  0.00  0.00     0.038 A 
HETATM   11  C           1     -30.857  -6.262 -17.493  0.00  0.00     0.010 A 
BRANCH   9  12
HETATM   12  O           1     -33.169  -3.504 -16.870  0.00  0.00    -0.247 OA
BRANCH  12  13
HETATM   13  P           1     -33.922  -3.941 -15.510  0.00  0.00     0.411 P 
HETATM   14  O           1     -32.917  -4.297 -14.483  0.00  0.00    -0.624 OA
HETATM   15  O           1     -34.750  -2.816 -15.020  0.00  0.00    -0.624 OA
BRANCH  13  16
HETATM   16  O           1     -34.867  -5.217 -15.805  0.00  0.00    -0.300 OA
HETATM   17  H           1     -35.466  -4.927 -16.472  0.00  0.00     0.223 HD
ENDBRANCH  13  16
ENDBRANCH  12  13
ENDBRANCH   9  12
ENDBRANCH   5   6
ENDBRANCH   1   5
BRANCH   1  18
HETATM   18  N           1     -26.399  -7.048 -17.369  0.00  0.00    -0.344 N 
HETATM   19  C           1     -25.063  -6.751 -17.344  0.00  0.00     0.251 C 
HETATM   20  O           1     -24.487  -6.646 -16.287  0.00  0.00    -0.271 OA
HETATM   21  H           1     -26.702  -8.013 -17.396  0.00  0.00     0.163 HD
BRANCH  19  22
HETATM   22  C           1     -24.309  -6.555 -18.636  0.00  0.00     0.297 C 
BRANCH  22  23
HETATM   23  C           1     -25.032  -7.281 -19.763  0.00  0.00     0.206 C 
BRANCH  23  24
HETATM   24  O           1     -24.154  -8.187 -20.375  0.00  0.00    -0.398 OA
HETATM   25  H           1     -23.542  -8.464 -19.715  0.00  0.00     0.209 HD
ENDBRANCH  23  24
ENDBRANCH  22  23
BRANCH  22  26
HETATM   26  N           1     -22.922  -7.111 -18.494  0.00  0.00    -0.064 N 
HETATM   27  H           1     -22.389  -6.544 -17.796  0.00  0.00     0.275 HD
HETATM   28  H           1     -22.977  -8.102 -18.168  0.00  0.00     0.275 HD
HETATM   29  H           1     -22.436  -7.073 -19.418  0.00  0.00     0.275 HD
ENDBRANCH  22  26
ENDBRANCH  19  22
ENDBRANCH   1  18
TORSDOF 11
ENDMDL
MODEL 9
REMARK VINA RESULT:      -5.8     16.578     19.321
REMARK  11 active torsions:
REMARK  status: ('A' for Active; 'I' for Inactive)
REMARK    1  A    between atoms: C_2  and  C_9 
REMARK    2  A    between atoms: C_5  and  C_9 
REMARK    3  A    between atoms: C_5  and  C_28 
REMARK    4  A    between atoms: O_6  and  C_12 
REMARK    5  A    between atoms: O_6  and  P_7 
REMARK    6  A    between atoms: P_7  and  O_19 
REMARK    7  A    between atoms: C_8  and  C_24 
REMARK    8  A    between atoms: C_8  and  C_11 
REMARK    9  A    between atoms: C_8  and  N_16 
REMARK   10  A    between atoms: C_9  and  N_14 
REMARK   11  A    between atoms: C_11  and  O_15 
REMARK       I    between atoms: N_14  and  C_24 
ROOT
HETATM    1  C           1     -21.238  -9.371  -0.660  0.00  0.00     0.189 C 
ENDROOT
BRANCH   1   2
HETATM    2  C           1     -20.885  -9.716   0.766  0.00  0.00     0.197 C 
HETATM    3  O           1     -21.093  -8.888   1.679  0.00  0.00    -0.646 OA
HETATM    4  O           1     -20.387 -10.830   1.034  0.00  0.00    -0.646 OA
ENDBRANCH   1   2
BRANCH   1   5
HETATM    5  C           1     -20.933  -7.901  -0.918  0.00  0.00     0.074 C 
BRANCH   5   6
HETATM    6  C           1     -20.963  -7.635  -2.390  0.00  0.00    -0.056 A 
HETATM    7  C           1     -21.831  -6.673  -2.908  0.00  0.00     0.010 A 
HETATM    8  C           1     -21.859  -6.425  -4.280  0.00  0.00     0.038 A 
HETATM    9  C           1     -21.019  -7.139  -5.135  0.00  0.00     0.081 A 
HETATM   10  C           1     -20.151  -8.099  -4.617  0.00  0.00     0.038 A 
HETATM   11  C           1     -20.123  -8.347  -3.245  0.00  0.00     0.010 A 
BRANCH   9  12
HETATM   12  O           1     -21.046  -6.897  -6.468  0.00  0.00    -0.247 OA
BRANCH  12  13
HETATM   13  P           1     -20.699  -5.404  -6.975  0.00  0.00     0.411 P 
HETATM   14  O           1     -21.933  -4.587  -6.987  0.00  0.00    -0.624 OA
HETATM   15  O           1     -19.710  -4.788  -6.062  0.00  0.00    -0.624 OA
BRANCH  13  16
HETATM   16  O           1     -20.084  -5.472  -8.467  0.00  0.00    -0.300 OA
HETATM   17  H           1     -19.497  -6.210  -8.455  0.00  0.00     0.223 HD
ENDBRANCH  13  16
ENDBRANCH  12  13
ENDBRANCH   9  12
ENDBRANCH   5   6
ENDBRANCH   1   5
BRANCH   1  18
HETATM   18  N           1     -22.650  -9.616  -0.881  0.00  0.00    -0.344 N 
HETATM   19  C           1     -23.130 -10.898  -0.885  0.00  0.00     0.251 C 
HETATM   20  O           1     -23.514 -11.403   0.143  0.00  0.00    -0.271 OA
HETATM   21  H           1     -23.281  -8.840  -1.033  0.00  0.00     0.163 HD
BRANCH  19  22
HETATM   22  C           1     -23.180 -11.682  -2.174  0.00  0.00     0.297 C 
BRANCH  22  23
HETATM   23  C           1     -22.263 -12.893  -2.069  0.00  0.00     0.206 C 
BRANCH  23  24
HETATM   24  O           1     -21.358 -12.706  -1.014  0.00  0.00    -0.398 OA
HETATM   25  H           1     -20.542 -12.433  -1.399  0.00  0.00     0.209 HD
ENDBRANCH  23  24
ENDBRANCH  22  23
BRANCH  22  26
HETATM   26  N           1     -22.725 -10.809  -3.307  0.00  0.00    -0.064 N 
HETATM   27  H           1     -23.180  -9.871  -3.230  0.00  0.00     0.275 HD
HETATM   28  H           1     -21.687 -10.696  -3.264  0.00  0.00     0.275 HD
HETATM   29  H           1     -22.991 -11.251  -4.216  0.00  0.00     0.275 HD
ENDBRANCH  22  26
ENDBRANCH  19  22
ENDBRANCH   1  18
TORSDOF 11
ENDMDL
