MODEL 1
REMARK VINA RESULT:      -5.2      0.000      0.000
REMARK  6 active torsions:
REMARK  status: ('A' for Active; 'I' for Inactive)
REMARK    1  A    between atoms: Se_2  and  C_3 
REMARK    2  A    between atoms: C_3  and  C_5 
REMARK    3  A    between atoms: C_5  and  C_6 
REMARK    4  A    between atoms: C_5  and  N_9 
REMARK       I    between atoms: N_9  and  C_14 
REMARK    5  A    between atoms: N_11  and  C_15 
REMARK    6  A    between atoms: C_14  and  C_15 
ROOT
HETATM    1  H           1     -27.385  -6.930 -18.622  0.00  0.00     0.163 HD
HETATM    2  N           1     -26.494  -6.629 -18.248  0.00  0.00    -0.345 N 
HETATM    3  O           1     -24.282  -6.473 -18.519  0.00  0.00    -0.271 OA
HETATM    4  C           1     -25.346  -6.832 -18.966  0.00  0.00     0.248 C 
ENDROOT
BRANCH   2   5
HETATM    5  C           1     -26.433  -5.985 -16.950  0.00  0.00     0.185 C 
BRANCH   5   6
HETATM    6  C           1     -27.648  -5.083 -16.775  0.00  0.00     0.039 C 
BRANCH   6   7
HETATM    7 Se           1     -28.812  -5.248 -18.329  0.00  0.00     0.000 Se
HETATM    8  H           1     -27.704  -5.368 -19.290  0.00  0.00     0.000 HD
ENDBRANCH   6   7
ENDBRANCH   5   6
BRANCH   5   9
HETATM    9  C           1     -26.426  -7.036 -15.867  0.00  0.00     0.196 C 
HETATM   10  O           1     -27.504  -7.433 -15.374  0.00  0.00    -0.646 OA
HETATM   11  O           1     -25.342  -7.510 -15.465  0.00  0.00    -0.646 OA
ENDBRANCH   5   9
ENDBRANCH   2   5
BRANCH   4  12
HETATM   12  C           1     -25.409  -7.502 -20.317  0.00  0.00     0.270 C 
HETATM   13  C           1     -24.908  -6.540 -21.385  0.00  0.00     0.050 C 
BRANCH  12  14
HETATM   14  N           1     -26.827  -7.888 -20.616  0.00  0.00    -0.067 N 
HETATM   15  H           1     -26.837  -8.768 -21.180  0.00  0.00     0.275 HD
HETATM   16  H           1     -27.289  -7.123 -21.158  0.00  0.00     0.275 HD
HETATM   17  H           1     -27.343  -8.041 -19.721  0.00  0.00     0.275 HD
ENDBRANCH  12  14
ENDBRANCH   4  12
TORSDOF 6
ENDMDL
MODEL 2
REMARK VINA RESULT:      -5.1      2.512      2.899
REMARK  6 active torsions:
REMARK  status: ('A' for Active; 'I' for Inactive)
REMARK    1  A    between atoms: Se_2  and  C_3 
REMARK    2  A    between atoms: C_3  and  C_5 
REMARK    3  A    between atoms: C_5  and  C_6 
REMARK    4  A    between atoms: C_5  and  N_9 
REMARK       I    between atoms: N_9  and  C_14 
REMARK    5  A    between atoms: N_11  and  C_15 
REMARK    6  A    between atoms: C_14  and  C_15 
ROOT
HETATM    1  H           1     -27.927  -6.928 -20.043  0.00  0.00     0.163 HD
HETATM    2  N           1     -27.671  -6.628 -19.111  0.00  0.00    -0.345 N 
HETATM    3  O           1     -26.045  -6.167 -17.651  0.00  0.00    -0.271 OA
HETATM    4  C           1     -26.350  -6.524 -18.764  0.00  0.00     0.248 C 
ENDROOT
BRANCH   2   5
HETATM    5  C           1     -28.702  -6.308 -18.143  0.00  0.00     0.185 C 
BRANCH   5   6
HETATM    6  C           1     -29.273  -4.929 -18.448  0.00  0.00     0.039 C 
BRANCH   6   7
HETATM    7 Se           1     -28.690  -3.666 -17.082  0.00  0.00     0.000 Se
HETATM    8  H           1     -27.686  -4.576 -16.507  0.00  0.00     0.000 HD
ENDBRANCH   6   7
ENDBRANCH   5   6
BRANCH   5   9
HETATM    9  C           1     -29.802  -7.338 -18.224  0.00  0.00     0.196 C 
HETATM   10  O           1     -30.853  -7.182 -17.565  0.00  0.00    -0.646 OA
HETATM   11  O           1     -29.663  -8.345 -18.950  0.00  0.00    -0.646 OA
ENDBRANCH   5   9
ENDBRANCH   2   5
BRANCH   4  12
HETATM   12  C           1     -25.276  -6.856 -19.771  0.00  0.00     0.270 C 
HETATM   13  C           1     -25.868  -7.714 -20.880  0.00  0.00     0.050 C 
BRANCH  12  14
HETATM   14  N           1     -24.172  -7.610 -19.091  0.00  0.00    -0.067 N 
HETATM   15  H           1     -23.470  -6.934 -18.714  0.00  0.00     0.275 HD
HETATM   16  H           1     -23.710  -8.246 -19.779  0.00  0.00     0.275 HD
HETATM   17  H           1     -24.568  -8.176 -18.307  0.00  0.00     0.275 HD
ENDBRANCH  12  14
ENDBRANCH   4  12
TORSDOF 6
ENDMDL
MODEL 3
REMARK VINA RESULT:      -5.1     11.370     12.291
REMARK  6 active torsions:
REMARK  status: ('A' for Active; 'I' for Inactive)
REMARK    1  A    between atoms: Se_2  and  C_3 
REMARK    2  A    between atoms: C_3  and  C_5 
REMARK    3  A    between atoms: C_5  and  C_6 
REMARK    4  A    between atoms: C_5  and  N_9 
REMARK       I    between atoms: N_9  and  C_14 
REMARK    5  A    between atoms: N_11  and  C_15 
REMARK    6  A    between atoms: C_14  and  C_15 
ROOT
HETATM    1  H           1     -35.002  -0.585 -11.500  0.00  0.00     0.163 HD
HETATM    2  N           1     -35.078  -1.184 -12.313  0.00  0.00    -0.345 N 
HETATM    3  O           1     -34.484  -3.084 -13.326  0.00  0.00    -0.271 OA
HETATM    4  C           1     -34.394  -2.369 -12.355  0.00  0.00     0.248 C 
ENDROOT
BRANCH   2   5
HETATM    5  C           1     -35.909  -0.786 -13.432  0.00  0.00     0.185 C 
BRANCH   5   6
HETATM    6  C           1     -37.178  -0.122 -12.911  0.00  0.00     0.039 C 
BRANCH   6   7
HETATM    7 Se           1     -37.148  -0.101 -10.962  0.00  0.00     0.000 Se
HETATM    8  H           1     -35.724   0.259 -10.873  0.00  0.00     0.000 HD
ENDBRANCH   6   7
ENDBRANCH   5   6
BRANCH   5   9
HETATM    9  C           1     -35.151   0.189 -14.299  0.00  0.00     0.196 C 
HETATM   10  O           1     -34.880   1.330 -13.868  0.00  0.00    -0.646 OA
HETATM   11  O           1     -34.793  -0.146 -15.449  0.00  0.00    -0.646 OA
ENDBRANCH   5   9
ENDBRANCH   2   5
BRANCH   4  12
HETATM   12  C           1     -33.529  -2.784 -11.191  0.00  0.00     0.270 C 
HETATM   13  C           1     -33.970  -4.154 -10.692  0.00  0.00     0.050 C 
BRANCH  12  14
HETATM   14  N           1     -33.667  -1.781 -10.084  0.00  0.00    -0.067 N 
HETATM   15  H           1     -34.316  -1.019 -10.384  0.00  0.00     0.275 HD
HETATM   16  H           1     -32.730  -1.375  -9.864  0.00  0.00     0.275 HD
HETATM   17  H           1     -34.050  -2.252  -9.234  0.00  0.00     0.275 HD
ENDBRANCH  12  14
ENDBRANCH   4  12
TORSDOF 6
ENDMDL
MODEL 4
REMARK VINA RESULT:      -5.0     10.628     12.373
REMARK  6 active torsions:
REMARK  status: ('A' for Active; 'I' for Inactive)
REMARK    1  A    between atoms: Se_2  and  C_3 
REMARK    2  A    between atoms: C_3  and  C_5 
REMARK    3  A    between atoms: C_5  and  C_6 
REMARK    4  A    between atoms: C_5  and  N_9 
REMARK       I    between atoms: N_9  and  C_14 
REMARK    5  A    between atoms: N_11  and  C_15 
REMARK    6  A    between atoms: C_14  and  C_15 
ROOT
HETATM    1  H           1     -35.578  -2.923 -12.250  0.00  0.00     0.163 HD
HETATM    2  N           1     -35.072  -2.182 -11.782  0.00  0.00    -0.345 N 
HETATM    3  O           1     -33.402  -1.600 -10.418  0.00  0.00    -0.271 OA
HETATM    4  C           1     -34.005  -2.484 -10.978  0.00  0.00     0.248 C 
ENDROOT
BRANCH   2   5
HETATM    5  C           1     -35.477  -0.802 -11.960  0.00  0.00     0.185 C 
BRANCH   5   6
HETATM    6  C           1     -35.926  -0.587 -13.400  0.00  0.00     0.039 C 
BRANCH   6   7
HETATM    7 Se           1     -34.892   0.861 -14.195  0.00  0.00     0.000 Se
HETATM    8  H           1     -34.419   0.054 -15.332  0.00  0.00     0.000 HD
ENDBRANCH   6   7
ENDBRANCH   5   6
BRANCH   5   9
HETATM    9  C           1     -36.619  -0.488 -11.025  0.00  0.00     0.196 C 
HETATM   10  O           1     -36.488   0.399 -10.154  0.00  0.00    -0.646 OA
HETATM   11  O           1     -37.696  -1.115 -11.122  0.00  0.00    -0.646 OA
ENDBRANCH   5   9
ENDBRANCH   2   5
BRANCH   4  12
HETATM   12  C           1     -33.583  -3.921 -10.792  0.00  0.00     0.270 C 
HETATM   13  C           1     -32.680  -4.339 -11.944  0.00  0.00     0.050 C 
BRANCH  12  14
HETATM   14  N           1     -34.799  -4.799 -10.767  0.00  0.00    -0.067 N 
HETATM   15  H           1     -34.579  -5.684 -10.257  0.00  0.00     0.275 HD
HETATM   16  H           1     -35.087  -5.023 -11.746  0.00  0.00     0.275 HD
HETATM   17  H           1     -35.579  -4.301 -10.281  0.00  0.00     0.275 HD
ENDBRANCH  12  14
ENDBRANCH   4  12
TORSDOF 6
ENDMDL
MODEL 5
REMARK VINA RESULT:      -5.0      2.232      3.214
REMARK  6 active torsions:
REMARK  status: ('A' for Active; 'I' for Inactive)
REMARK    1  A    between atoms: Se_2  and  C_3 
REMARK    2  A    between atoms: C_3  and  C_5 
REMARK    3  A    between atoms: C_5  and  C_6 
REMARK    4  A    between atoms: C_5  and  N_9 
REMARK       I    between atoms: N_9  and  C_14 
REMARK    5  A    between atoms: N_11  and  C_15 
REMARK    6  A    between atoms: C_14  and  C_15 
ROOT
HETATM    1  H           1     -26.895  -6.054 -17.972  0.00  0.00     0.163 HD
HETATM    2  N           1     -26.971  -6.466 -17.051  0.00  0.00    -0.345 N 
HETATM    3  O           1     -25.947  -7.452 -15.328  0.00  0.00    -0.271 OA
HETATM    4  C           1     -25.856  -6.959 -16.428  0.00  0.00     0.248 C 
ENDROOT
BRANCH   2   5
HETATM    5  C           1     -28.260  -6.535 -16.391  0.00  0.00     0.185 C 
BRANCH   5   6
HETATM    6  C           1     -28.565  -5.195 -15.732  0.00  0.00     0.039 C 
BRANCH   6   7
HETATM    7 Se           1     -28.612  -3.798 -17.090  0.00  0.00     0.000 Se
HETATM    8  H           1     -27.492  -4.354 -17.866  0.00  0.00     0.000 HD
ENDBRANCH   6   7
ENDBRANCH   5   6
BRANCH   5   9
HETATM    9  C           1     -29.329  -6.850 -17.408  0.00  0.00     0.196 C 
HETATM   10  O           1     -30.531  -6.871 -17.066  0.00  0.00    -0.646 OA
HETATM   11  O           1     -29.012  -7.089 -18.594  0.00  0.00    -0.646 OA
ENDBRANCH   5   9
ENDBRANCH   2   5
BRANCH   4  12
HETATM   12  C           1     -24.514  -6.888 -17.114  0.00  0.00     0.270 C 
HETATM   13  C           1     -24.705  -7.020 -18.618  0.00  0.00     0.050 C 
BRANCH  12  14
HETATM   14  N           1     -23.642  -8.004 -16.621  0.00  0.00    -0.067 N 
HETATM   15  H           1     -22.931  -7.624 -15.956  0.00  0.00     0.275 HD
HETATM   16  H           1     -23.158  -8.452 -17.431  0.00  0.00     0.275 HD
HETATM   17  H           1     -24.231  -8.716 -16.132  0.00  0.00     0.275 HD
ENDBRANCH  12  14
ENDBRANCH   4  12
TORSDOF 6
ENDMDL
MODEL 6
REMARK VINA RESULT:      -4.9      9.732     11.339
REMARK  6 active torsions:
REMARK  status: ('A' for Active; 'I' for Inactive)
REMARK    1  A    between atoms: Se_2  and  C_3 
REMARK    2  A    between atoms: C_3  and  C_5 
REMARK    3  A    between atoms: C_5  and  C_6 
REMARK    4  A    between atoms: C_5  and  N_9 
REMARK       I    between atoms: N_9  and  C_14 
REMARK    5  A    between atoms: N_11  and  C_15 
REMARK    6  A    between atoms: C_14  and  C_15 
ROOT
HETATM    1  H           1     -22.269  -5.629  -9.013  0.00  0.00     0.163 HD
HETATM    2  N           1     -22.221  -4.662  -8.717  0.00  0.00    -0.345 N 
HETATM    3  O           1     -21.583  -3.186  -7.166  0.00  0.00    -0.271 OA
HETATM    4  C           1     -21.639  -4.340  -7.520  0.00  0.00     0.248 C 
ENDROOT
BRANCH   2   5
HETATM    5  C           1     -22.770  -3.617  -9.560  0.00  0.00     0.185 C 
BRANCH   5   6
HETATM    6  C           1     -22.156  -3.713 -10.951  0.00  0.00     0.039 C 
BRANCH   6   7
HETATM    7 Se           1     -20.305  -4.306 -10.806  0.00  0.00     0.000 Se
HETATM    8  H           1     -20.101  -3.719  -9.472  0.00  0.00     0.000 HD
ENDBRANCH   6   7
ENDBRANCH   5   6
BRANCH   5   9
HETATM    9  C           1     -24.266  -3.785  -9.657  0.00  0.00     0.196 C 
HETATM   10  O           1     -25.018  -2.801  -9.487  0.00  0.00    -0.646 OA
HETATM   11  O           1     -24.754  -4.908  -9.910  0.00  0.00    -0.646 OA
ENDBRANCH   5   9
ENDBRANCH   2   5
BRANCH   4  12
HETATM   12  C           1     -21.067  -5.427  -6.643  0.00  0.00     0.270 C 
HETATM   13  C           1     -20.324  -4.796  -5.473  0.00  0.00     0.050 C 
BRANCH  12  14
HETATM   14  N           1     -20.118  -6.267  -7.444  0.00  0.00    -0.067 N 
HETATM   15  H           1     -20.647  -6.782  -8.183  0.00  0.00     0.275 HD
HETATM   16  H           1     -19.643  -6.953  -6.814  0.00  0.00     0.275 HD
HETATM   17  H           1     -19.401  -5.653  -7.891  0.00  0.00     0.275 HD
ENDBRANCH  12  14
ENDBRANCH   4  12
TORSDOF 6
ENDMDL
MODEL 7
REMARK VINA RESULT:      -4.9     12.012     14.123
REMARK  6 active torsions:
REMARK  status: ('A' for Active; 'I' for Inactive)
REMARK    1  A    between atoms: Se_2  and  C_3 
REMARK    2  A    between atoms: C_3  and  C_5 
REMARK    3  A    between atoms: C_5  and  C_6 
REMARK    4  A    between atoms: C_5  and  N_9 
REMARK       I    between atoms: N_9  and  C_14 
REMARK    5  A    between atoms: N_11  and  C_15 
REMARK    6  A    between atoms: C_14  and  C_15 
ROOT
HETATM    1  H           1     -35.258   0.735 -10.578  0.00  0.00     0.163 HD
HETATM    2  N           1     -35.929   0.137 -11.043  0.00  0.00    -0.345 N 
HETATM    3  O           1     -37.883  -0.942 -10.957  0.00  0.00    -0.271 OA
HETATM    4  C           1     -37.083  -0.227 -10.402  0.00  0.00     0.248 C 
ENDROOT
BRANCH   2   5
HETATM    5  C           1     -35.668  -0.336 -12.389  0.00  0.00     0.185 C 
BRANCH   5   6
HETATM    6  C           1     -35.001   0.771 -13.195  0.00  0.00     0.039 C 
BRANCH   6   7
HETATM    7 Se           1     -35.611   0.689 -15.044  0.00  0.00     0.000 Se
HETATM    8  H           1     -34.279   0.390 -15.592  0.00  0.00     0.000 HD
ENDBRANCH   6   7
ENDBRANCH   5   6
BRANCH   5   9
HETATM    9  C           1     -34.755  -1.536 -12.331  0.00  0.00     0.196 C 
HETATM   10  O           1     -34.759  -2.371 -13.261  0.00  0.00    -0.646 OA
HETATM   11  O           1     -33.993  -1.695 -11.353  0.00  0.00    -0.646 OA
ENDBRANCH   5   9
ENDBRANCH   2   5
BRANCH   4  12
HETATM   12  C           1     -37.356   0.265  -9.002  0.00  0.00     0.270 C 
HETATM   13  C           1     -37.997   1.645  -9.064  0.00  0.00     0.050 C 
BRANCH  12  14
HETATM   14  N           1     -36.065   0.348  -8.242  0.00  0.00    -0.067 N 
HETATM   15  H           1     -35.882   1.341  -7.974  0.00  0.00     0.275 HD
HETATM   16  H           1     -35.284   0.000  -8.843  0.00  0.00     0.275 HD
HETATM   17  H           1     -36.129  -0.240  -7.381  0.00  0.00     0.275 HD
ENDBRANCH  12  14
ENDBRANCH   4  12
TORSDOF 6
ENDMDL
MODEL 8
REMARK VINA RESULT:      -4.9      2.433      2.815
REMARK  6 active torsions:
REMARK  status: ('A' for Active; 'I' for Inactive)
REMARK    1  A    between atoms: Se_2  and  C_3 
REMARK    2  A    between atoms: C_3  and  C_5 
REMARK    3  A    between atoms: C_5  and  C_6 
REMARK    4  A    between atoms: C_5  and  N_9 
REMARK       I    between atoms: N_9  and  C_14 
REMARK    5  A    between atoms: N_11  and  C_15 
REMARK    6  A    between atoms: C_14  and  C_15 
ROOT
HETATM    1  H           1     -26.162  -6.359 -17.257  0.00  0.00     0.163 HD
HETATM    2  N           1     -26.730  -6.298 -18.093  0.00  0.00    -0.345 N 
HETATM    3  O           1     -26.847  -6.460 -20.318  0.00  0.00    -0.271 OA
HETATM    4  C           1     -26.169  -6.534 -19.320  0.00  0.00     0.248 C 
ENDROOT
BRANCH   2   5
HETATM    5  C           1     -28.136  -5.961 -17.992  0.00  0.00     0.185 C 
BRANCH   5   6
HETATM    6  C           1     -28.837  -6.973 -17.094  0.00  0.00     0.039 C 
BRANCH   6   7
HETATM    7 Se           1     -30.723  -7.074 -17.575  0.00  0.00     0.000 Se
HETATM    8  H           1     -31.179  -7.335 -16.201  0.00  0.00     0.000 HD
ENDBRANCH   6   7
ENDBRANCH   5   6
BRANCH   5   9
HETATM    9  C           1     -28.280  -4.580 -17.401  0.00  0.00     0.196 C 
HETATM   10  O           1     -29.130  -3.788 -17.863  0.00  0.00    -0.646 OA
HETATM   11  O           1     -27.550  -4.229 -16.449  0.00  0.00    -0.646 OA
ENDBRANCH   5   9
ENDBRANCH   2   5
BRANCH   4  12
HETATM   12  C           1     -24.706  -6.886 -19.427  0.00  0.00     0.270 C 
HETATM   13  C           1     -24.498  -7.850 -20.586  0.00  0.00     0.050 C 
BRANCH  12  14
HETATM   14  N           1     -24.254  -7.533 -18.151  0.00  0.00    -0.067 N 
HETATM   15  H           1     -23.388  -8.089 -18.330  0.00  0.00     0.275 HD
HETATM   16  H           1     -25.007  -8.165 -17.796  0.00  0.00     0.275 HD
HETATM   17  H           1     -24.054  -6.795 -17.438  0.00  0.00     0.275 HD
ENDBRANCH  12  14
ENDBRANCH   4  12
TORSDOF 6
ENDMDL
MODEL 9
REMARK VINA RESULT:      -4.7      2.965      4.657
REMARK  6 active torsions:
REMARK  status: ('A' for Active; 'I' for Inactive)
REMARK    1  A    between atoms: Se_2  and  C_3 
REMARK    2  A    between atoms: C_3  and  C_5 
REMARK    3  A    between atoms: C_5  and  C_6 
REMARK    4  A    between atoms: C_5  and  N_9 
REMARK       I    between atoms: N_9  and  C_14 
REMARK    5  A    between atoms: N_11  and  C_15 
REMARK    6  A    between atoms: C_14  and  C_15 
ROOT
HETATM    1  H           1     -28.403  -4.748 -15.998  0.00  0.00     0.163 HD
HETATM    2  N           1     -28.703  -5.450 -16.662  0.00  0.00    -0.345 N 
HETATM    3  O           1     -30.287  -6.181 -18.057  0.00  0.00    -0.271 OA
HETATM    4  C           1     -29.927  -5.341 -17.267  0.00  0.00     0.248 C 
ENDROOT
BRANCH   2   5
HETATM    5  C           1     -27.839  -6.573 -16.971  0.00  0.00     0.185 C 
BRANCH   5   6
HETATM    6  C           1     -26.660  -6.090 -17.806  0.00  0.00     0.039 C 
BRANCH   6   7
HETATM    7 Se           1     -26.973  -6.517 -19.682  0.00  0.00     0.000 Se
HETATM    8  H           1     -27.941  -5.428 -19.888  0.00  0.00     0.000 HD
ENDBRANCH   6   7
ENDBRANCH   5   6
BRANCH   5   9
HETATM    9  C           1     -27.331  -7.184 -15.688  0.00  0.00     0.196 C 
HETATM   10  O           1     -28.139  -7.581 -14.821  0.00  0.00    -0.646 OA
HETATM   11  O           1     -26.101  -7.293 -15.493  0.00  0.00    -0.646 OA
ENDBRANCH   5   9
ENDBRANCH   2   5
BRANCH   4  12
HETATM   12  C           1     -30.827  -4.174 -16.945  0.00  0.00     0.270 C 
HETATM   13  C           1     -32.263  -4.661 -16.808  0.00  0.00     0.050 C 
BRANCH  12  14
HETATM   14  N           1     -30.746  -3.163 -18.051  0.00  0.00    -0.067 N 
HETATM   15  H           1     -31.343  -3.473 -18.850  0.00  0.00     0.275 HD
HETATM   16  H           1     -29.755  -3.074 -18.369  0.00  0.00     0.275 HD
HETATM   17  H           1     -31.083  -2.237 -17.702  0.00  0.00     0.275 HD
ENDBRANCH  12  14
ENDBRANCH   4  12
TORSDOF 6
ENDMDL
