MODEL 1
REMARK VINA RESULT:      -5.7      0.000      0.000
REMARK  8 active torsions:
REMARK  status: ('A' for Active; 'I' for Inactive)
REMARK    1  A    between atoms: C_4  and  C_9 
REMARK    2  A    between atoms: C_5  and  N_17 
REMARK    3  A    between atoms: C_5  and  C_6 
REMARK    4  A    between atoms: C_6  and  C_22 
REMARK       I    between atoms: C_9  and  N_25 
REMARK    5  A    between atoms: C_21  and  C_22 
REMARK    6  A    between atoms: C_21  and  C_29 
REMARK    7  A    between atoms: N_25  and  C_29 
REMARK    8  A    between atoms: C_28  and  C_29 
ROOT
HETATM    1  C           1     -21.552  -6.723  -4.391  0.00  0.00     0.249 C 
HETATM    2  H           1     -20.938  -8.693  -4.546  0.00  0.00     0.163 HD
HETATM    3  O           1     -21.684  -5.781  -3.645  0.00  0.00    -0.271 OA
HETATM    4  N           1     -21.048  -7.905  -3.920  0.00  0.00    -0.345 N 
ENDROOT
BRANCH   1   5
HETATM    5  C           1     -21.943  -6.594  -5.843  0.00  0.00     0.274 C 
HETATM    6  C           1     -20.691  -6.617  -6.710  0.00  0.00     0.042 C 
HETATM    7  C           1     -19.784  -5.456  -6.324  0.00  0.00     0.004 C 
HETATM    8  C           1     -19.574  -4.551  -7.532  0.00  0.00     0.027 C 
HETATM    9  C           1     -20.919  -4.011  -8.002  0.00  0.00     0.229 C 
HETATM   10  N           1     -21.556  -3.225  -6.894  0.00  0.00    -0.079 N 
HETATM   11  H           1     -22.479  -2.854  -7.216  0.00  0.00     0.274 HD
HETATM   12  H           1     -21.701  -3.846  -6.066  0.00  0.00     0.274 HD
HETATM   13  H           1     -20.934  -2.429  -6.629  0.00  0.00     0.274 HD
HETATM   14  H           1     -22.048  -4.503  -5.785  0.00  0.00     0.275 HD
HETATM   15  N           1     -22.671  -5.299  -6.051  0.00  0.00    -0.067 N 
HETATM   16  H           1     -22.941  -5.209  -7.057  0.00  0.00     0.275 HD
HETATM   17  H           1     -23.530  -5.284  -5.457  0.00  0.00     0.275 HD
ENDBRANCH   1   5
BRANCH   4  18
HETATM   18  C           1     -20.673  -8.028  -2.525  0.00  0.00     0.185 C 
BRANCH  18  19
HETATM   19  C           1     -21.896  -8.411  -1.703  0.00  0.00     0.036 C 
BRANCH  19  20
HETATM   20  C           1     -22.064  -7.428  -0.552  0.00  0.00     0.004 C 
BRANCH  20  21
HETATM   21  C           1     -22.379  -8.191   0.728  0.00  0.00     0.027 C 
BRANCH  21  22
HETATM   22  C           1     -21.080  -8.592   1.414  0.00  0.00     0.229 C 
BRANCH  22  23
HETATM   23  N           1     -20.803 -10.043   1.154  0.00  0.00    -0.079 N 
HETATM   24  H           1     -20.760 -10.210   0.124  0.00  0.00     0.274 HD
HETATM   25  H           1     -21.566 -10.622   1.571  0.00  0.00     0.274 HD
HETATM   26  H           1     -19.890 -10.306   1.587  0.00  0.00     0.274 HD
ENDBRANCH  22  23
ENDBRANCH  21  22
ENDBRANCH  20  21
ENDBRANCH  19  20
ENDBRANCH  18  19
BRANCH  18  27
HETATM   27  C           1     -19.617  -9.097  -2.382  0.00  0.00     0.196 C 
HETATM   28  O           1     -19.790 -10.045  -1.586  0.00  0.00    -0.646 OA
HETATM   29  O           1     -18.568  -9.032  -3.060  0.00  0.00    -0.646 OA
ENDBRANCH  18  27
ENDBRANCH   4  18
TORSDOF 8
ENDMDL
MODEL 2
REMARK VINA RESULT:      -5.6      2.653      7.007
REMARK  8 active torsions:
REMARK  status: ('A' for Active; 'I' for Inactive)
REMARK    1  A    between atoms: C_4  and  C_9 
REMARK    2  A    between atoms: C_5  and  N_17 
REMARK    3  A    between atoms: C_5  and  C_6 
REMARK    4  A    between atoms: C_6  and  C_22 
REMARK       I    between atoms: C_9  and  N_25 
REMARK    5  A    between atoms: C_21  and  C_22 
REMARK    6  A    between atoms: C_21  and  C_29 
REMARK    7  A    between atoms: N_25  and  C_29 
REMARK    8  A    between atoms: C_28  and  C_29 
ROOT
HETATM    1  C           1     -20.090  -9.032  -4.842  0.00  0.00     0.249 C 
HETATM    2  H           1     -21.440  -8.573  -6.342  0.00  0.00     0.163 HD
HETATM    3  O           1     -19.350  -8.577  -4.001  0.00  0.00    -0.271 OA
HETATM    4  N           1     -20.821  -8.192  -5.638  0.00  0.00    -0.345 N 
ENDROOT
BRANCH   1   5
HETATM    5  C           1     -20.208 -10.527  -5.013  0.00  0.00     0.274 C 
HETATM    6  C           1     -21.669 -10.938  -4.892  0.00  0.00     0.042 C 
HETATM    7  C           1     -22.196 -10.542  -3.519  0.00  0.00     0.004 C 
HETATM    8  C           1     -22.666 -11.787  -2.775  0.00  0.00     0.027 C 
HETATM    9  C           1     -21.499 -12.752  -2.612  0.00  0.00     0.229 C 
HETATM   10  N           1     -20.405 -12.086  -1.830  0.00  0.00    -0.079 N 
HETATM   11  H           1     -19.604 -12.748  -1.717  0.00  0.00     0.274 HD
HETATM   12  H           1     -20.083 -11.233  -2.340  0.00  0.00     0.274 HD
HETATM   13  H           1     -20.767 -11.813  -0.889  0.00  0.00     0.274 HD
HETATM   14  H           1     -19.767 -10.943  -3.009  0.00  0.00     0.275 HD
HETATM   15  N           1     -19.405 -11.216  -3.951  0.00  0.00    -0.067 N 
HETATM   16  H           1     -19.486 -12.251  -4.068  0.00  0.00     0.275 HD
HETATM   17  H           1     -18.402 -10.934  -4.035  0.00  0.00     0.275 HD
ENDBRANCH   1   5
BRANCH   4  18
HETATM   18  C           1     -20.707  -6.756  -5.473  0.00  0.00     0.185 C 
BRANCH  18  19
HETATM   19  C           1     -20.729  -6.086  -6.841  0.00  0.00     0.036 C 
BRANCH  19  20
HETATM   20  C           1     -20.186  -4.668  -6.721  0.00  0.00     0.004 C 
BRANCH  20  21
HETATM   21  C           1     -21.253  -3.675  -7.162  0.00  0.00     0.027 C 
BRANCH  21  22
HETATM   22  C           1     -22.231  -4.366  -8.103  0.00  0.00     0.229 C 
BRANCH  22  23
HETATM   23  N           1     -23.629  -4.193  -7.589  0.00  0.00    -0.079 N 
HETATM   24  H           1     -23.636  -4.317  -6.552  0.00  0.00     0.274 HD
HETATM   25  H           1     -24.252  -4.906  -8.030  0.00  0.00     0.274 HD
HETATM   26  H           1     -23.973  -3.236  -7.827  0.00  0.00     0.274 HD
ENDBRANCH  22  23
ENDBRANCH  21  22
ENDBRANCH  20  21
ENDBRANCH  19  20
ENDBRANCH  18  19
BRANCH  18  27
HETATM   27  C           1     -21.866  -6.252  -4.647  0.00  0.00     0.196 C 
HETATM   28  O           1     -22.995  -6.125  -5.167  0.00  0.00    -0.646 OA
HETATM   29  O           1     -21.694  -5.961  -3.444  0.00  0.00    -0.646 OA
ENDBRANCH  18  27
ENDBRANCH   4  18
TORSDOF 8
ENDMDL
MODEL 3
REMARK VINA RESULT:      -5.6      1.774      7.218
REMARK  8 active torsions:
REMARK  status: ('A' for Active; 'I' for Inactive)
REMARK    1  A    between atoms: C_4  and  C_9 
REMARK    2  A    between atoms: C_5  and  N_17 
REMARK    3  A    between atoms: C_5  and  C_6 
REMARK    4  A    between atoms: C_6  and  C_22 
REMARK       I    between atoms: C_9  and  N_25 
REMARK    5  A    between atoms: C_21  and  C_22 
REMARK    6  A    between atoms: C_21  and  C_29 
REMARK    7  A    between atoms: N_25  and  C_29 
REMARK    8  A    between atoms: C_28  and  C_29 
ROOT
HETATM    1  C           1     -20.561  -9.216  -3.122  0.00  0.00     0.249 C 
HETATM    2  H           1     -21.892  -9.207  -4.707  0.00  0.00     0.163 HD
HETATM    3  O           1     -19.768  -8.558  -2.490  0.00  0.00    -0.271 OA
HETATM    4  N           1     -21.226  -8.656  -4.179  0.00  0.00    -0.345 N 
ENDROOT
BRANCH   1   5
HETATM    5  C           1     -20.819 -10.654  -2.743  0.00  0.00     0.274 C 
HETATM    6  C           1     -22.301 -10.843  -2.444  0.00  0.00     0.042 C 
HETATM    7  C           1     -22.706  -9.934  -1.291  0.00  0.00     0.004 C 
HETATM    8  C           1     -23.236 -10.779  -0.139  0.00  0.00     0.027 C 
HETATM    9  C           1     -22.149 -11.739   0.328  0.00  0.00     0.229 C 
HETATM   10  N           1     -20.956 -10.956   0.792  0.00  0.00    -0.079 N 
HETATM   11  H           1     -20.210 -11.614   1.113  0.00  0.00     0.274 HD
HETATM   12  H           1     -20.592 -10.377   0.001  0.00  0.00     0.274 HD
HETATM   13  H           1     -21.233 -10.332   1.582  0.00  0.00     0.274 HD
HETATM   14  H           1     -20.294 -10.376  -0.735  0.00  0.00     0.275 HD
HETATM   15  N           1     -20.015 -11.001  -1.526  0.00  0.00    -0.067 N 
HETATM   16  H           1     -20.194 -11.996  -1.263  0.00  0.00     0.275 HD
HETATM   17  H           1     -18.999 -10.872  -1.732  0.00  0.00     0.275 HD
ENDBRANCH   1   5
BRANCH   4  18
HETATM   18  C           1     -20.979  -7.275  -4.543  0.00  0.00     0.185 C 
BRANCH  18  19
HETATM   19  C           1     -20.777  -7.176  -6.049  0.00  0.00     0.036 C 
BRANCH  19  20
HETATM   20  C           1     -19.993  -5.911  -6.375  0.00  0.00     0.004 C 
BRANCH  20  21
HETATM   21  C           1     -20.596  -5.241  -7.603  0.00  0.00     0.027 C 
BRANCH  21  22
HETATM   22  C           1     -21.326  -3.973  -7.182  0.00  0.00     0.229 C 
BRANCH  22  23
HETATM   23  N           1     -22.804  -4.166  -7.350  0.00  0.00    -0.079 N 
HETATM   24  H           1     -22.993  -4.617  -8.273  0.00  0.00     0.274 HD
HETATM   25  H           1     -23.282  -3.237  -7.309  0.00  0.00     0.274 HD
HETATM   26  H           1     -23.164  -4.777  -6.583  0.00  0.00     0.274 HD
ENDBRANCH  22  23
ENDBRANCH  21  22
ENDBRANCH  20  21
ENDBRANCH  19  20
ENDBRANCH  18  19
BRANCH  18  27
HETATM   27  C           1     -22.161  -6.429  -4.137  0.00  0.00     0.196 C 
HETATM   28  O           1     -23.038  -6.137  -4.978  0.00  0.00    -0.646 OA
HETATM   29  O           1     -22.261  -6.020  -2.960  0.00  0.00    -0.646 OA
ENDBRANCH  18  27
ENDBRANCH   4  18
TORSDOF 8
ENDMDL
MODEL 4
REMARK VINA RESULT:      -5.4      2.857      6.461
REMARK  8 active torsions:
REMARK  status: ('A' for Active; 'I' for Inactive)
REMARK    1  A    between atoms: C_4  and  C_9 
REMARK    2  A    between atoms: C_5  and  N_17 
REMARK    3  A    between atoms: C_5  and  C_6 
REMARK    4  A    between atoms: C_6  and  C_22 
REMARK       I    between atoms: C_9  and  N_25 
REMARK    5  A    between atoms: C_21  and  C_22 
REMARK    6  A    between atoms: C_21  and  C_29 
REMARK    7  A    between atoms: N_25  and  C_29 
REMARK    8  A    between atoms: C_28  and  C_29 
ROOT
HETATM    1  C           1     -20.111  -8.846  -3.982  0.00  0.00     0.249 C 
HETATM    2  H           1     -20.927  -8.649  -5.875  0.00  0.00     0.163 HD
HETATM    3  O           1     -19.756  -8.255  -2.990  0.00  0.00    -0.271 OA
HETATM    4  N           1     -20.628  -8.153  -5.043  0.00  0.00    -0.345 N 
ENDROOT
BRANCH   1   5
HETATM    5  C           1     -19.986 -10.349  -4.051  0.00  0.00     0.274 C 
HETATM    6  C           1     -18.527 -10.745  -3.867  0.00  0.00     0.042 C 
HETATM    7  C           1     -17.687 -10.116  -4.970  0.00  0.00     0.004 C 
HETATM    8  C           1     -17.000 -11.212  -5.776  0.00  0.00     0.027 C 
HETATM    9  C           1     -18.053 -12.122  -6.396  0.00  0.00     0.229 C 
HETATM   10  N           1     -18.939 -11.317  -7.302  0.00  0.00    -0.079 N 
HETATM   11  H           1     -19.661 -11.941  -7.727  0.00  0.00     0.274 HD
HETATM   12  H           1     -19.410 -10.566  -6.748  0.00  0.00     0.274 HD
HETATM   13  H           1     -18.363 -10.885  -8.058  0.00  0.00     0.274 HD
HETATM   14  H           1     -19.894 -10.396  -6.142  0.00  0.00     0.275 HD
HETATM   15  N           1     -20.471 -10.830  -5.385  0.00  0.00    -0.067 N 
HETATM   16  H           1     -20.384 -11.870  -5.434  0.00  0.00     0.275 HD
HETATM   17  H           1     -21.472 -10.558  -5.511  0.00  0.00     0.275 HD
ENDBRANCH   1   5
BRANCH   4  18
HETATM   18  C           1     -20.749  -6.710  -4.978  0.00  0.00     0.185 C 
BRANCH  18  19
HETATM   19  C           1     -20.642  -6.128  -6.381  0.00  0.00     0.036 C 
BRANCH  19  20
HETATM   20  C           1     -20.127  -4.696  -6.300  0.00  0.00     0.004 C 
BRANCH  20  21
HETATM   21  C           1     -21.108  -3.763  -6.997  0.00  0.00     0.027 C 
BRANCH  21  22
HETATM   22  C           1     -22.066  -4.580  -7.854  0.00  0.00     0.229 C 
BRANCH  22  23
HETATM   23  N           1     -23.480  -4.252  -7.477  0.00  0.00    -0.079 N 
HETATM   24  H           1     -23.532  -3.262  -7.148  0.00  0.00     0.274 HD
HETATM   25  H           1     -23.793  -4.892  -6.713  0.00  0.00     0.274 HD
HETATM   26  H           1     -24.099  -4.374  -8.310  0.00  0.00     0.274 HD
ENDBRANCH  22  23
ENDBRANCH  21  22
ENDBRANCH  20  21
ENDBRANCH  19  20
ENDBRANCH  18  19
BRANCH  18  27
HETATM   27  C           1     -22.087  -6.344  -4.382  0.00  0.00     0.196 C 
HETATM   28  O           1     -23.099  -6.282  -5.112  0.00  0.00    -0.646 OA
HETATM   29  O           1     -22.181  -6.103  -3.159  0.00  0.00    -0.646 OA
ENDBRANCH  18  27
ENDBRANCH   4  18
TORSDOF 8
ENDMDL
MODEL 5
REMARK VINA RESULT:      -5.4      3.278      5.253
REMARK  8 active torsions:
REMARK  status: ('A' for Active; 'I' for Inactive)
REMARK    1  A    between atoms: C_4  and  C_9 
REMARK    2  A    between atoms: C_5  and  N_17 
REMARK    3  A    between atoms: C_5  and  C_6 
REMARK    4  A    between atoms: C_6  and  C_22 
REMARK       I    between atoms: C_9  and  N_25 
REMARK    5  A    between atoms: C_21  and  C_22 
REMARK    6  A    between atoms: C_21  and  C_29 
REMARK    7  A    between atoms: N_25  and  C_29 
REMARK    8  A    between atoms: C_28  and  C_29 
ROOT
HETATM    1  C           1     -20.064  -9.461  -4.803  0.00  0.00     0.249 C 
HETATM    2  H           1     -19.632  -7.908  -3.504  0.00  0.00     0.163 HD
HETATM    3  O           1     -20.732  -9.803  -5.751  0.00  0.00    -0.271 OA
HETATM    4  N           1     -20.192  -8.195  -4.298  0.00  0.00    -0.345 N 
ENDROOT
BRANCH   1   5
HETATM    5  C           1     -19.090 -10.429  -4.178  0.00  0.00     0.274 C 
HETATM    6  C           1     -17.684  -9.845  -4.239  0.00  0.00     0.042 C 
HETATM    7  C           1     -17.297  -9.603  -5.692  0.00  0.00     0.004 C 
HETATM    8  C           1     -16.056 -10.419  -6.031  0.00  0.00     0.027 C 
HETATM    9  C           1     -16.350 -11.900  -5.824  0.00  0.00     0.229 C 
HETATM   10  N           1     -17.480 -12.315  -6.719  0.00  0.00    -0.079 N 
HETATM   11  H           1     -17.681 -13.331  -6.576  0.00  0.00     0.274 HD
HETATM   12  H           1     -18.332 -11.756  -6.485  0.00  0.00     0.274 HD
HETATM   13  H           1     -17.215 -12.149  -7.715  0.00  0.00     0.274 HD
HETATM   14  H           1     -18.860 -11.559  -5.926  0.00  0.00     0.275 HD
HETATM   15  N           1     -19.125 -11.727  -4.929  0.00  0.00    -0.067 N 
HETATM   16  H           1     -18.450 -12.397  -4.497  0.00  0.00     0.275 HD
HETATM   17  H           1     -20.089 -12.127  -4.886  0.00  0.00     0.275 HD
ENDBRANCH   1   5
BRANCH   4  18
HETATM   18  C           1     -21.128  -7.265  -4.898  0.00  0.00     0.185 C 
BRANCH  18  19
HETATM   19  C           1     -21.887  -6.530  -3.801  0.00  0.00     0.036 C 
BRANCH  19  20
HETATM   20  C           1     -21.261  -6.848  -2.449  0.00  0.00     0.004 C 
BRANCH  20  21
HETATM   21  C           1     -22.307  -6.688  -1.354  0.00  0.00     0.027 C 
BRANCH  21  22
HETATM   22  C           1     -22.247  -7.884  -0.414  0.00  0.00     0.229 C 
BRANCH  22  23
HETATM   23  N           1     -23.450  -7.880   0.482  0.00  0.00    -0.079 N 
HETATM   24  H           1     -23.173  -7.558   1.435  0.00  0.00     0.274 HD
HETATM   25  H           1     -23.843  -8.847   0.539  0.00  0.00     0.274 HD
HETATM   26  H           1     -24.172  -7.234   0.091  0.00  0.00     0.274 HD
ENDBRANCH  22  23
ENDBRANCH  21  22
ENDBRANCH  20  21
ENDBRANCH  19  20
ENDBRANCH  18  19
BRANCH  18  27
HETATM   27  C           1     -20.373  -6.267  -5.742  0.00  0.00     0.196 C 
HETATM   28  O           1     -19.813  -6.638  -6.797  0.00  0.00    -0.646 OA
HETATM   29  O           1     -20.307  -5.071  -5.386  0.00  0.00    -0.646 OA
ENDBRANCH  18  27
ENDBRANCH   4  18
TORSDOF 8
ENDMDL
MODEL 6
REMARK VINA RESULT:      -5.3      2.860      5.044
REMARK  8 active torsions:
REMARK  status: ('A' for Active; 'I' for Inactive)
REMARK    1  A    between atoms: C_4  and  C_9 
REMARK    2  A    between atoms: C_5  and  N_17 
REMARK    3  A    between atoms: C_5  and  C_6 
REMARK    4  A    between atoms: C_6  and  C_22 
REMARK       I    between atoms: C_9  and  N_25 
REMARK    5  A    between atoms: C_21  and  C_22 
REMARK    6  A    between atoms: C_21  and  C_29 
REMARK    7  A    between atoms: N_25  and  C_29 
REMARK    8  A    between atoms: C_28  and  C_29 
ROOT
HETATM    1  C           1     -20.686 -10.042  -3.243  0.00  0.00     0.249 C 
HETATM    2  H           1     -19.788  -8.646  -4.480  0.00  0.00     0.163 HD
HETATM    3  O           1     -21.638 -10.270  -2.534  0.00  0.00    -0.271 OA
HETATM    4  N           1     -20.585  -8.837  -3.885  0.00  0.00    -0.345 N 
ENDROOT
BRANCH   1   5
HETATM    5  C           1     -19.610 -11.085  -3.420  0.00  0.00     0.274 C 
HETATM    6  C           1     -18.491 -10.836  -2.417  0.00  0.00     0.042 C 
HETATM    7  C           1     -17.899  -9.452  -2.650  0.00  0.00     0.004 C 
HETATM    8  C           1     -16.418  -9.582  -2.986  0.00  0.00     0.027 C 
HETATM    9  C           1     -16.254 -10.424  -4.245  0.00  0.00     0.229 C 
HETATM   10  N           1     -16.968  -9.759  -5.386  0.00  0.00    -0.079 N 
HETATM   11  H           1     -16.855 -10.337  -6.250  0.00  0.00     0.274 HD
HETATM   12  H           1     -17.984  -9.671  -5.156  0.00  0.00     0.274 HD
HETATM   13  H           1     -16.562  -8.811  -5.545  0.00  0.00     0.274 HD
HETATM   14  H           1     -18.655 -10.053  -4.972  0.00  0.00     0.275 HD
HETATM   15  N           1     -19.061 -11.004  -4.813  0.00  0.00    -0.067 N 
HETATM   16  H           1     -18.316 -11.726  -4.936  0.00  0.00     0.275 HD
HETATM   17  H           1     -19.829 -11.175  -5.500  0.00  0.00     0.275 HD
ENDBRANCH   1   5
BRANCH   4  18
HETATM   18  C           1     -21.618  -7.835  -3.715  0.00  0.00     0.185 C 
BRANCH  18  19
HETATM   19  C           1     -21.174  -6.821  -2.670  0.00  0.00     0.036 C 
BRANCH  19  20
HETATM   20  C           1     -22.228  -6.723  -1.575  0.00  0.00     0.004 C 
BRANCH  20  21
HETATM   21  C           1     -21.802  -7.568  -0.381  0.00  0.00     0.027 C 
BRANCH  21  22
HETATM   22  C           1     -23.038  -8.113   0.322  0.00  0.00     0.229 C 
BRANCH  22  23
HETATM   23  N           1     -23.255  -9.541  -0.083  0.00  0.00    -0.079 N 
HETATM   24  H           1     -23.691  -9.571  -1.032  0.00  0.00     0.274 HD
HETATM   25  H           1     -23.888 -10.005   0.607  0.00  0.00     0.274 HD
HETATM   26  H           1     -22.338 -10.040  -0.105  0.00  0.00     0.274 HD
ENDBRANCH  22  23
ENDBRANCH  21  22
ENDBRANCH  20  21
ENDBRANCH  19  20
ENDBRANCH  18  19
BRANCH  18  27
HETATM   27  C           1     -21.857  -7.131  -5.029  0.00  0.00     0.196 C 
HETATM   28  O           1     -21.334  -7.570  -6.076  0.00  0.00    -0.646 OA
HETATM   29  O           1     -22.576  -6.110  -5.069  0.00  0.00    -0.646 OA
ENDBRANCH  18  27
ENDBRANCH   4  18
TORSDOF 8
ENDMDL
MODEL 7
REMARK VINA RESULT:      -5.3      3.358      5.007
REMARK  8 active torsions:
REMARK  status: ('A' for Active; 'I' for Inactive)
REMARK    1  A    between atoms: C_4  and  C_9 
REMARK    2  A    between atoms: C_5  and  N_17 
REMARK    3  A    between atoms: C_5  and  C_6 
REMARK    4  A    between atoms: C_6  and  C_22 
REMARK       I    between atoms: C_9  and  N_25 
REMARK    5  A    between atoms: C_21  and  C_22 
REMARK    6  A    between atoms: C_21  and  C_29 
REMARK    7  A    between atoms: N_25  and  C_29 
REMARK    8  A    between atoms: C_28  and  C_29 
ROOT
HETATM    1  C           1     -19.879  -9.789  -2.403  0.00  0.00     0.249 C 
HETATM    2  H           1     -19.365  -7.856  -1.868  0.00  0.00     0.163 HD
HETATM    3  O           1     -20.795 -10.541  -2.641  0.00  0.00    -0.271 OA
HETATM    4  N           1     -20.133  -8.487  -2.066  0.00  0.00    -0.345 N 
ENDROOT
BRANCH   1   5
HETATM    5  C           1     -18.456 -10.285  -2.481  0.00  0.00     0.274 C 
HETATM    6  C           1     -17.671  -9.426  -3.463  0.00  0.00     0.042 C 
HETATM    7  C           1     -18.314  -9.513  -4.841  0.00  0.00     0.004 C 
HETATM    8  C           1     -17.307 -10.074  -5.838  0.00  0.00     0.027 C 
HETATM    9  C           1     -16.870 -11.464  -5.392  0.00  0.00     0.229 C 
HETATM   10  N           1     -18.067 -12.367  -5.329  0.00  0.00    -0.079 N 
HETATM   11  H           1     -17.767 -13.321  -5.024  0.00  0.00     0.274 HD
HETATM   12  H           1     -18.756 -11.983  -4.645  0.00  0.00     0.274 HD
HETATM   13  H           1     -18.508 -12.427  -6.274  0.00  0.00     0.274 HD
HETATM   14  H           1     -18.891 -11.769  -3.892  0.00  0.00     0.275 HD
HETATM   15  N           1     -18.449 -11.710  -2.946  0.00  0.00    -0.067 N 
HETATM   16  H           1     -17.464 -12.055  -3.001  0.00  0.00     0.275 HD
HETATM   17  H           1     -18.987 -12.299  -2.272  0.00  0.00     0.275 HD
ENDBRANCH   1   5
BRANCH   4  18
HETATM   18  C           1     -21.500  -8.009  -1.992  0.00  0.00     0.185 C 
BRANCH  18  19
HETATM   19  C           1     -21.788  -7.514  -0.581  0.00  0.00     0.036 C 
BRANCH  19  20
HETATM   20  C           1     -22.229  -8.683   0.289  0.00  0.00     0.004 C 
BRANCH  20  21
HETATM   21  C           1     -21.119  -9.033   1.272  0.00  0.00     0.027 C 
BRANCH  21  22
HETATM   22  C           1     -20.671 -10.470   1.041  0.00  0.00     0.229 C 
BRANCH  22  23
HETATM   23  N           1     -21.737 -11.214   0.294  0.00  0.00    -0.079 N 
HETATM   24  H           1     -22.666 -11.028   0.735  0.00  0.00     0.274 HD
HETATM   25  H           1     -21.533 -12.238   0.326  0.00  0.00     0.274 HD
HETATM   26  H           1     -21.754 -10.893  -0.700  0.00  0.00     0.274 HD
ENDBRANCH  22  23
ENDBRANCH  21  22
ENDBRANCH  20  21
ENDBRANCH  19  20
ENDBRANCH  18  19
BRANCH  18  27
HETATM   27  C           1     -21.690  -6.878  -2.972  0.00  0.00     0.196 C 
HETATM   28  O           1     -22.418  -5.907  -2.672  0.00  0.00    -0.646 OA
HETATM   29  O           1     -21.121  -6.912  -4.084  0.00  0.00    -0.646 OA
ENDBRANCH  18  27
ENDBRANCH   4  18
TORSDOF 8
ENDMDL
MODEL 8
REMARK VINA RESULT:      -5.1      2.920      4.314
REMARK  8 active torsions:
REMARK  status: ('A' for Active; 'I' for Inactive)
REMARK    1  A    between atoms: C_4  and  C_9 
REMARK    2  A    between atoms: C_5  and  N_17 
REMARK    3  A    between atoms: C_5  and  C_6 
REMARK    4  A    between atoms: C_6  and  C_22 
REMARK       I    between atoms: C_9  and  N_25 
REMARK    5  A    between atoms: C_21  and  C_22 
REMARK    6  A    between atoms: C_21  and  C_29 
REMARK    7  A    between atoms: N_25  and  C_29 
REMARK    8  A    between atoms: C_28  and  C_29 
ROOT
HETATM    1  C           1     -20.856  -5.600  -6.431  0.00  0.00     0.249 C 
HETATM    2  H           1     -20.794  -4.857  -4.500  0.00  0.00     0.163 HD
HETATM    3  O           1     -21.065  -6.577  -7.110  0.00  0.00    -0.271 OA
HETATM    4  N           1     -20.968  -5.676  -5.069  0.00  0.00    -0.345 N 
ENDROOT
BRANCH   1   5
HETATM    5  C           1     -20.472  -4.295  -7.084  0.00  0.00     0.274 C 
HETATM    6  C           1     -21.717  -3.626  -7.653  0.00  0.00     0.042 C 
HETATM    7  C           1     -22.358  -4.542  -8.687  0.00  0.00     0.004 C 
HETATM    8  C           1     -22.398  -3.837 -10.037  0.00  0.00     0.027 C 
HETATM    9  C           1     -20.979  -3.493 -10.473  0.00  0.00     0.229 C 
HETATM   10  N           1     -20.175  -4.754 -10.592  0.00  0.00    -0.079 N 
HETATM   11  H           1     -19.201  -4.519 -10.891  0.00  0.00     0.274 HD
HETATM   12  H           1     -20.147  -5.237  -9.666  0.00  0.00     0.274 HD
HETATM   13  H           1     -20.614  -5.383 -11.301  0.00  0.00     0.274 HD
HETATM   14  H           1     -19.938  -5.189  -8.901  0.00  0.00     0.275 HD
HETATM   15  N           1     -19.497  -4.559  -8.192  0.00  0.00    -0.067 N 
HETATM   16  H           1     -19.231  -3.656  -8.646  0.00  0.00     0.275 HD
HETATM   17  H           1     -18.643  -5.017  -7.802  0.00  0.00     0.275 HD
ENDBRANCH   1   5
BRANCH   4  18
HETATM   18  C           1     -21.337  -6.930  -4.440  0.00  0.00     0.185 C 
BRANCH  18  19
HETATM   19  C           1     -20.206  -7.935  -4.613  0.00  0.00     0.036 C 
BRANCH  19  20
HETATM   20  C           1     -20.785  -9.293  -4.989  0.00  0.00     0.004 C 
BRANCH  20  21
HETATM   21  C           1     -19.974 -10.395  -4.318  0.00  0.00     0.027 C 
BRANCH  21  22
HETATM   22  C           1     -19.115 -11.099  -5.360  0.00  0.00     0.229 C 
BRANCH  22  23
HETATM   23  N           1     -19.908 -11.288  -6.619  0.00  0.00    -0.079 N 
HETATM   24  H           1     -19.988 -10.375  -7.120  0.00  0.00     0.274 HD
HETATM   25  H           1     -20.862 -11.640  -6.379  0.00  0.00     0.274 HD
HETATM   26  H           1     -19.426 -11.981  -7.234  0.00  0.00     0.274 HD
ENDBRANCH  22  23
ENDBRANCH  21  22
ENDBRANCH  20  21
ENDBRANCH  19  20
ENDBRANCH  18  19
BRANCH  18  27
HETATM   27  C           1     -21.586  -6.701  -2.970  0.00  0.00     0.196 C 
HETATM   28  O           1     -22.500  -5.931  -2.604  0.00  0.00    -0.646 OA
HETATM   29  O           1     -20.877  -7.280  -2.118  0.00  0.00    -0.646 OA
ENDBRANCH  18  27
ENDBRANCH   4  18
TORSDOF 8
ENDMDL
MODEL 9
REMARK VINA RESULT:      -5.0      3.238      5.401
REMARK  8 active torsions:
REMARK  status: ('A' for Active; 'I' for Inactive)
REMARK    1  A    between atoms: C_4  and  C_9 
REMARK    2  A    between atoms: C_5  and  N_17 
REMARK    3  A    between atoms: C_5  and  C_6 
REMARK    4  A    between atoms: C_6  and  C_22 
REMARK       I    between atoms: C_9  and  N_25 
REMARK    5  A    between atoms: C_21  and  C_22 
REMARK    6  A    between atoms: C_21  and  C_29 
REMARK    7  A    between atoms: N_25  and  C_29 
REMARK    8  A    between atoms: C_28  and  C_29 
ROOT
HETATM    1  C           1     -20.216 -10.044  -3.263  0.00  0.00     0.249 C 
HETATM    2  H           1     -19.426  -8.134  -3.376  0.00  0.00     0.163 HD
HETATM    3  O           1     -21.153 -10.707  -2.885  0.00  0.00    -0.271 OA
HETATM    4  N           1     -20.210  -8.690  -3.059  0.00  0.00    -0.345 N 
ENDROOT
BRANCH   1   5
HETATM    5  C           1     -19.054 -10.707  -3.960  0.00  0.00     0.274 C 
HETATM    6  C           1     -18.465 -11.782  -3.055  0.00  0.00     0.042 C 
HETATM    7  C           1     -17.982 -11.146  -1.759  0.00  0.00     0.004 C 
HETATM    8  C           1     -16.487 -11.390  -1.598  0.00  0.00     0.027 C 
HETATM    9  C           1     -15.742 -10.773  -2.775  0.00  0.00     0.229 C 
HETATM   10  N           1     -16.005  -9.296  -2.814  0.00  0.00    -0.079 N 
HETATM   11  H           1     -15.493  -8.873  -3.622  0.00  0.00     0.274 HD
HETATM   12  H           1     -17.031  -9.129  -2.926  0.00  0.00     0.274 HD
HETATM   13  H           1     -15.674  -8.860  -1.925  0.00  0.00     0.274 HD
HETATM   14  H           1     -17.674  -9.245  -3.376  0.00  0.00     0.275 HD
HETATM   15  N           1     -18.005  -9.682  -4.267  0.00  0.00    -0.067 N 
HETATM   16  H           1     -17.199 -10.141  -4.749  0.00  0.00     0.275 HD
HETATM   17  H           1     -18.409  -8.945  -4.888  0.00  0.00     0.275 HD
ENDBRANCH   1   5
BRANCH   4  18
HETATM   18  C           1     -21.327  -8.052  -2.389  0.00  0.00     0.185 C 
BRANCH  18  19
HETATM   19  C           1     -20.951  -7.763  -0.942  0.00  0.00     0.036 C 
BRANCH  19  20
HETATM   20  C           1     -21.951  -8.436  -0.011  0.00  0.00     0.004 C 
BRANCH  20  21
HETATM   21  C           1     -21.212  -9.056   1.167  0.00  0.00     0.027 C 
BRANCH  21  22
HETATM   22  C           1     -20.718 -10.444   0.783  0.00  0.00     0.229 C 
BRANCH  22  23
HETATM   23  N           1     -21.804 -11.179   0.054  0.00  0.00    -0.079 N 
HETATM   24  H           1     -21.468 -11.437  -0.901  0.00  0.00     0.274 HD
HETATM   25  H           1     -22.646 -10.566  -0.025  0.00  0.00     0.274 HD
HETATM   26  H           1     -22.052 -12.046   0.582  0.00  0.00     0.274 HD
ENDBRANCH  22  23
ENDBRANCH  21  22
ENDBRANCH  20  21
ENDBRANCH  19  20
ENDBRANCH  18  19
BRANCH  18  27
HETATM   27  C           1     -21.661  -6.759  -3.091  0.00  0.00     0.196 C 
HETATM   28  O           1     -22.430  -5.935  -2.550  0.00  0.00    -0.646 OA
HETATM   29  O           1     -21.169  -6.512  -4.213  0.00  0.00    -0.646 OA
ENDBRANCH  18  27
ENDBRANCH   4  18
TORSDOF 8
ENDMDL
