MODEL 1
REMARK VINA RESULT:      -6.7      0.000      0.000
REMARK  8 active torsions:
REMARK  status: ('A' for Active; 'I' for Inactive)
REMARK    1  A    between atoms: N_2  and  C_20 
REMARK       I    between atoms: C_11  and  N_23 
REMARK    2  A    between atoms: C_11  and  C_20 
REMARK    3  A    between atoms: C_12  and  C_13 
REMARK    4  A    between atoms: C_13  and  C_14 
REMARK    5  A    between atoms: C_13  and  N_23 
REMARK    6  A    between atoms: C_14  and  C_25 
REMARK       I    between atoms: N_15  and  C_25 
REMARK       I    between atoms: N_17  and  C_18 
REMARK    7  A    between atoms: C_18  and  C_19 
REMARK    8  A    between atoms: C_19  and  C_20 
ROOT
HETATM    1  O           1     -36.841  -1.091 -12.774  0.00  0.00    -0.271 OA
HETATM    2  H           1     -34.045  -0.746 -14.158  0.00  0.00     0.163 HD
HETATM    3  C           1     -35.642  -1.161 -12.907  0.00  0.00     0.249 C 
HETATM    4  N           1     -35.050  -0.687 -14.047  0.00  0.00    -0.344 N 
ENDROOT
BRANCH   3   5
HETATM    5  C           1     -34.796  -1.769 -11.816  0.00  0.00     0.283 C 
BRANCH   5   6
HETATM    6  N           1     -35.265  -1.267 -10.482  0.00  0.00    -0.066 N 
HETATM    7  H           1     -35.436  -0.237 -10.537  0.00  0.00     0.275 HD
HETATM    8  H           1     -36.152  -1.753 -10.220  0.00  0.00     0.275 HD
HETATM    9  H           1     -34.534  -1.459  -9.761  0.00  0.00     0.275 HD
ENDBRANCH   5   6
BRANCH   5  10
HETATM   10  C           1     -34.924  -3.287 -11.859  0.00  0.00     0.145 C 
BRANCH  10  11
HETATM   11  C           1     -33.957  -3.844 -12.875  0.00  0.00     0.217 C 
HETATM   12  O           1     -34.184  -3.726 -14.055  0.00  0.00    -0.274 OA
HETATM   13  N           1     -32.820  -4.483 -12.457  0.00  0.00    -0.370 N 
HETATM   14  H           1     -32.171  -4.857 -13.138  0.00  0.00     0.159 HD
HETATM   15  H           1     -32.628  -4.581 -11.469  0.00  0.00     0.159 HD
ENDBRANCH  10  11
ENDBRANCH   5  10
ENDBRANCH   3   5
BRANCH   4  16
HETATM   16  C           1     -35.863  -0.104 -15.097  0.00  0.00     0.194 C 
BRANCH  16  17
HETATM   17  C           1     -35.751  -0.942 -16.346  0.00  0.00     0.197 C 
HETATM   18  O           1     -34.713  -1.605 -16.563  0.00  0.00    -0.646 OA
HETATM   19  O           1     -36.695  -0.973 -17.165  0.00  0.00    -0.646 OA
ENDBRANCH  16  17
BRANCH  16  20
HETATM   20  C           1     -35.376   1.310 -15.388  0.00  0.00     0.138 C 
BRANCH  20  21
HETATM   21  C           1     -36.442   2.065 -16.143  0.00  0.00     0.217 C 
HETATM   22  N           1     -37.750   1.671 -16.059  0.00  0.00    -0.370 N 
HETATM   23  H           1     -38.002   0.873 -15.490  0.00  0.00     0.159 HD
HETATM   24  H           1     -38.465   2.177 -16.565  0.00  0.00     0.159 HD
HETATM   25  O           1     -36.141   3.018 -16.822  0.00  0.00    -0.274 OA
ENDBRANCH  20  21
ENDBRANCH  16  20
ENDBRANCH   4  16
TORSDOF 8
ENDMDL
MODEL 2
REMARK VINA RESULT:      -6.6      2.193      3.631
REMARK  8 active torsions:
REMARK  status: ('A' for Active; 'I' for Inactive)
REMARK    1  A    between atoms: N_2  and  C_20 
REMARK       I    between atoms: C_11  and  N_23 
REMARK    2  A    between atoms: C_11  and  C_20 
REMARK    3  A    between atoms: C_12  and  C_13 
REMARK    4  A    between atoms: C_13  and  C_14 
REMARK    5  A    between atoms: C_13  and  N_23 
REMARK    6  A    between atoms: C_14  and  C_25 
REMARK       I    between atoms: N_15  and  C_25 
REMARK       I    between atoms: N_17  and  C_18 
REMARK    7  A    between atoms: C_18  and  C_19 
REMARK    8  A    between atoms: C_19  and  C_20 
ROOT
HETATM    1  O           1     -33.698  -2.251 -11.196  0.00  0.00    -0.271 OA
HETATM    2  H           1     -35.376  -1.995 -13.835  0.00  0.00     0.163 HD
HETATM    3  C           1     -34.242  -2.606 -12.214  0.00  0.00     0.249 C 
HETATM    4  N           1     -34.921  -1.697 -12.982  0.00  0.00    -0.344 N 
ENDROOT
BRANCH   3   5
HETATM    5  C           1     -34.173  -4.051 -12.642  0.00  0.00     0.283 C 
BRANCH   5   6
HETATM    6  N           1     -33.450  -4.150 -13.952  0.00  0.00    -0.066 N 
HETATM    7  H           1     -32.440  -3.920 -13.813  0.00  0.00     0.275 HD
HETATM    8  H           1     -33.536  -5.123 -14.324  0.00  0.00     0.275 HD
HETATM    9  H           1     -33.868  -3.477 -14.633  0.00  0.00     0.275 HD
ENDBRANCH   5   6
BRANCH   5  10
HETATM   10  C           1     -33.424  -4.858 -11.588  0.00  0.00     0.145 C 
BRANCH  10  11
HETATM   11  C           1     -34.282  -6.017 -11.140  0.00  0.00     0.217 C 
HETATM   12  O           1     -34.364  -6.290  -9.965  0.00  0.00    -0.274 OA
HETATM   13  N           1     -34.967  -6.759 -12.065  0.00  0.00    -0.370 N 
HETATM   14  H           1     -35.542  -7.535 -11.765  0.00  0.00     0.159 HD
HETATM   15  H           1     -34.898  -6.530 -13.048  0.00  0.00     0.159 HD
ENDBRANCH  10  11
ENDBRANCH   5  10
ENDBRANCH   3   5
BRANCH   4  16
HETATM   16  C           1     -34.988  -0.308 -12.570  0.00  0.00     0.194 C 
BRANCH  16  17
HETATM   17  C           1     -36.251  -0.078 -11.779  0.00  0.00     0.197 C 
HETATM   18  O           1     -36.220   0.613 -10.737  0.00  0.00    -0.646 OA
HETATM   19  O           1     -37.330  -0.580 -12.164  0.00  0.00    -0.646 OA
ENDBRANCH  16  17
BRANCH  16  20
HETATM   20  C           1     -34.990   0.586 -13.803  0.00  0.00     0.138 C 
BRANCH  20  21
HETATM   21  C           1     -35.621  -0.151 -14.959  0.00  0.00     0.217 C 
HETATM   22  N           1     -36.958  -0.007 -15.214  0.00  0.00    -0.370 N 
HETATM   23  H           1     -37.523   0.593 -14.627  0.00  0.00     0.159 HD
HETATM   24  H           1     -37.382  -0.501 -15.989  0.00  0.00     0.159 HD
HETATM   25  O           1     -34.947  -0.867 -15.659  0.00  0.00    -0.274 OA
ENDBRANCH  20  21
ENDBRANCH  16  20
ENDBRANCH   4  16
TORSDOF 8
ENDMDL
MODEL 3
REMARK VINA RESULT:      -6.4     13.251     15.615
REMARK  8 active torsions:
REMARK  status: ('A' for Active; 'I' for Inactive)
REMARK    1  A    between atoms: N_2  and  C_20 
REMARK       I    between atoms: C_11  and  N_23 
REMARK    2  A    between atoms: C_11  and  C_20 
REMARK    3  A    between atoms: C_12  and  C_13 
REMARK    4  A    between atoms: C_13  and  C_14 
REMARK    5  A    between atoms: C_13  and  N_23 
REMARK    6  A    between atoms: C_14  and  C_25 
REMARK       I    between atoms: N_15  and  C_25 
REMARK       I    between atoms: N_17  and  C_18 
REMARK    7  A    between atoms: C_18  and  C_19 
REMARK    8  A    between atoms: C_19  and  C_20 
ROOT
HETATM    1  O           1     -21.447  -3.571  -7.298  0.00  0.00    -0.271 OA
HETATM    2  H           1     -22.501  -5.946  -9.057  0.00  0.00     0.163 HD
HETATM    3  C           1     -21.662  -4.715  -7.619  0.00  0.00     0.249 C 
HETATM    4  N           1     -22.320  -4.987  -8.788  0.00  0.00    -0.344 N 
ENDROOT
BRANCH   3   5
HETATM    5  C           1     -21.204  -5.847  -6.732  0.00  0.00     0.283 C 
BRANCH   5   6
HETATM    6  N           1     -19.876  -6.352  -7.213  0.00  0.00    -0.066 N 
HETATM    7  H           1     -19.311  -6.680  -6.397  0.00  0.00     0.275 HD
HETATM    8  H           1     -20.026  -7.147  -7.874  0.00  0.00     0.275 HD
HETATM    9  H           1     -19.366  -5.582  -7.702  0.00  0.00     0.275 HD
ENDBRANCH   5   6
BRANCH   5  10
HETATM   10  C           1     -21.067  -5.346  -5.299  0.00  0.00     0.145 C 
BRANCH  10  11
HETATM   11  C           1     -21.610  -6.385  -4.349  0.00  0.00     0.217 C 
HETATM   12  O           1     -21.773  -7.522  -4.724  0.00  0.00    -0.274 OA
HETATM   13  N           1     -21.919  -6.039  -3.061  0.00  0.00    -0.370 N 
HETATM   14  H           1     -22.283  -6.735  -2.423  0.00  0.00     0.159 HD
HETATM   15  H           1     -21.781  -5.087  -2.746  0.00  0.00     0.159 HD
ENDBRANCH  10  11
ENDBRANCH   5  10
ENDBRANCH   3   5
BRANCH   4  16
HETATM   16  C           1     -22.762  -3.900  -9.641  0.00  0.00     0.194 C 
BRANCH  16  17
HETATM   17  C           1     -24.269  -3.861  -9.667  0.00  0.00     0.197 C 
HETATM   18  O           1     -24.870  -2.774  -9.515  0.00  0.00    -0.646 OA
HETATM   19  O           1     -24.919  -4.915  -9.839  0.00  0.00    -0.646 OA
ENDBRANCH  16  17
BRANCH  16  20
HETATM   20  C           1     -22.234  -4.117 -11.052  0.00  0.00     0.138 C 
BRANCH  20  21
HETATM   21  C           1     -20.741  -3.901 -11.071  0.00  0.00     0.217 C 
HETATM   22  N           1     -20.228  -2.701 -11.484  0.00  0.00    -0.370 N 
HETATM   23  H           1     -20.851  -1.958 -11.776  0.00  0.00     0.159 HD
HETATM   24  H           1     -19.226  -2.555 -11.497  0.00  0.00     0.159 HD
HETATM   25  O           1     -19.998  -4.787 -10.723  0.00  0.00    -0.274 OA
ENDBRANCH  20  21
ENDBRANCH  16  20
ENDBRANCH   4  16
TORSDOF 8
ENDMDL
MODEL 4
REMARK VINA RESULT:      -6.3     12.824     15.083
REMARK  8 active torsions:
REMARK  status: ('A' for Active; 'I' for Inactive)
REMARK    1  A    between atoms: N_2  and  C_20 
REMARK       I    between atoms: C_11  and  N_23 
REMARK    2  A    between atoms: C_11  and  C_20 
REMARK    3  A    between atoms: C_12  and  C_13 
REMARK    4  A    between atoms: C_13  and  C_14 
REMARK    5  A    between atoms: C_13  and  N_23 
REMARK    6  A    between atoms: C_14  and  C_25 
REMARK       I    between atoms: N_15  and  C_25 
REMARK       I    between atoms: N_17  and  C_18 
REMARK    7  A    between atoms: C_18  and  C_19 
REMARK    8  A    between atoms: C_19  and  C_20 
ROOT
HETATM    1  O           1     -20.501  -5.398  -8.544  0.00  0.00    -0.271 OA
HETATM    2  H           1     -22.975  -3.526  -9.014  0.00  0.00     0.163 HD
HETATM    3  C           1     -21.394  -4.634  -8.266  0.00  0.00     0.249 C 
HETATM    4  N           1     -22.226  -4.166  -9.247  0.00  0.00    -0.344 N 
ENDROOT
BRANCH   3   5
HETATM    5  C           1     -21.594  -4.196  -6.836  0.00  0.00     0.283 C 
BRANCH   5   6
HETATM    6  N           1     -23.000  -4.502  -6.412  0.00  0.00    -0.066 N 
HETATM    7  H           1     -23.408  -3.671  -5.927  0.00  0.00     0.275 HD
HETATM    8  H           1     -23.575  -4.730  -7.254  0.00  0.00     0.275 HD
HETATM    9  H           1     -22.998  -5.318  -5.759  0.00  0.00     0.275 HD
ENDBRANCH   5   6
BRANCH   5  10
HETATM   10  C           1     -20.619  -4.943  -5.934  0.00  0.00     0.145 C 
BRANCH  10  11
HETATM   11  C           1     -21.292  -6.175  -5.377  0.00  0.00     0.217 C 
HETATM   12  O           1     -21.948  -6.101  -4.366  0.00  0.00    -0.274 OA
HETATM   13  N           1     -21.157  -7.376  -6.020  0.00  0.00    -0.370 N 
HETATM   14  H           1     -21.608  -8.202  -5.648  0.00  0.00     0.159 HD
HETATM   15  H           1     -20.608  -7.438  -6.867  0.00  0.00     0.159 HD
ENDBRANCH  10  11
ENDBRANCH   5  10
ENDBRANCH   3   5
BRANCH   4  16
HETATM   16  C           1     -22.033  -4.586 -10.622  0.00  0.00     0.194 C 
BRANCH  16  17
HETATM   17  C           1     -21.190  -3.567 -11.346  0.00  0.00     0.197 C 
HETATM   18  O           1     -21.719  -2.535 -11.814  0.00  0.00    -0.646 OA
HETATM   19  O           1     -19.960  -3.754 -11.480  0.00  0.00    -0.646 OA
ENDBRANCH  16  17
BRANCH  16  20
HETATM   20  C           1     -23.387  -4.707 -11.309  0.00  0.00     0.138 C 
BRANCH  20  21
HETATM   21  C           1     -24.444  -4.042 -10.462  0.00  0.00     0.217 C 
HETATM   22  N           1     -25.146  -4.776  -9.545  0.00  0.00    -0.370 N 
HETATM   23  H           1     -24.957  -5.764  -9.435  0.00  0.00     0.159 HD
HETATM   24  H           1     -25.856  -4.330  -8.976  0.00  0.00     0.159 HD
HETATM   25  O           1     -24.669  -2.863 -10.593  0.00  0.00    -0.274 OA
ENDBRANCH  20  21
ENDBRANCH  16  20
ENDBRANCH   4  16
TORSDOF 8
ENDMDL
MODEL 5
REMARK VINA RESULT:      -6.0      2.076      2.705
REMARK  8 active torsions:
REMARK  status: ('A' for Active; 'I' for Inactive)
REMARK    1  A    between atoms: N_2  and  C_20 
REMARK       I    between atoms: C_11  and  N_23 
REMARK    2  A    between atoms: C_11  and  C_20 
REMARK    3  A    between atoms: C_12  and  C_13 
REMARK    4  A    between atoms: C_13  and  C_14 
REMARK    5  A    between atoms: C_13  and  N_23 
REMARK    6  A    between atoms: C_14  and  C_25 
REMARK       I    between atoms: N_15  and  C_25 
REMARK       I    between atoms: N_17  and  C_18 
REMARK    7  A    between atoms: C_18  and  C_19 
REMARK    8  A    between atoms: C_19  and  C_20 
ROOT
HETATM    1  O           1     -34.466  -2.903 -13.539  0.00  0.00    -0.271 OA
HETATM    2  H           1     -35.941  -0.713 -11.843  0.00  0.00     0.163 HD
HETATM    3  C           1     -34.875  -2.340 -12.551  0.00  0.00     0.249 C 
HETATM    4  N           1     -35.599  -1.184 -12.671  0.00  0.00    -0.344 N 
ENDROOT
BRANCH   3   5
HETATM    5  C           1     -34.588  -2.911 -11.184  0.00  0.00     0.283 C 
BRANCH   5   6
HETATM    6  N           1     -35.848  -3.487 -10.610  0.00  0.00    -0.066 N 
HETATM    7  H           1     -35.698  -3.722  -9.602  0.00  0.00     0.275 HD
HETATM    8  H           1     -36.620  -2.788 -10.692  0.00  0.00     0.275 HD
HETATM    9  H           1     -36.106  -4.354 -11.133  0.00  0.00     0.275 HD
ENDBRANCH   5   6
BRANCH   5  10
HETATM   10  C           1     -33.537  -4.008 -11.301  0.00  0.00     0.145 C 
BRANCH  10  11
HETATM   11  C           1     -34.212  -5.357 -11.266  0.00  0.00     0.217 C 
HETATM   12  O           1     -34.333  -5.946 -10.218  0.00  0.00    -0.274 OA
HETATM   13  N           1     -34.689  -5.914 -12.422  0.00  0.00    -0.370 N 
HETATM   14  H           1     -35.143  -6.818 -12.399  0.00  0.00     0.159 HD
HETATM   15  H           1     -34.589  -5.420 -13.300  0.00  0.00     0.159 HD
ENDBRANCH  10  11
ENDBRANCH   5  10
ENDBRANCH   3   5
BRANCH   4  16
HETATM   16  C           1     -35.874  -0.634 -13.985  0.00  0.00     0.194 C 
BRANCH  16  17
HETATM   17  C           1     -34.887   0.466 -14.286  0.00  0.00     0.197 C 
HETATM   18  O           1     -34.209   0.427 -15.336  0.00  0.00    -0.646 OA
HETATM   19  O           1     -34.746   1.417 -13.486  0.00  0.00    -0.646 OA
ENDBRANCH  16  17
BRANCH  16  20
HETATM   20  C           1     -37.288  -0.071 -14.012  0.00  0.00     0.138 C 
BRANCH  20  21
HETATM   21  C           1     -37.754   0.053 -15.442  0.00  0.00     0.217 C 
HETATM   22  N           1     -38.075   1.281 -15.954  0.00  0.00    -0.370 N 
HETATM   23  H           1     -38.000   2.106 -15.373  0.00  0.00     0.159 HD
HETATM   24  H           1     -38.387   1.364 -16.913  0.00  0.00     0.159 HD
HETATM   25  O           1     -37.843  -0.932 -16.136  0.00  0.00    -0.274 OA
ENDBRANCH  20  21
ENDBRANCH  16  20
ENDBRANCH   4  16
TORSDOF 8
ENDMDL
MODEL 6
REMARK VINA RESULT:      -5.9      2.240      4.164
REMARK  8 active torsions:
REMARK  status: ('A' for Active; 'I' for Inactive)
REMARK    1  A    between atoms: N_2  and  C_20 
REMARK       I    between atoms: C_11  and  N_23 
REMARK    2  A    between atoms: C_11  and  C_20 
REMARK    3  A    between atoms: C_12  and  C_13 
REMARK    4  A    between atoms: C_13  and  C_14 
REMARK    5  A    between atoms: C_13  and  N_23 
REMARK    6  A    between atoms: C_14  and  C_25 
REMARK       I    between atoms: N_15  and  C_25 
REMARK       I    between atoms: N_17  and  C_18 
REMARK    7  A    between atoms: C_18  and  C_19 
REMARK    8  A    between atoms: C_19  and  C_20 
ROOT
HETATM    1  O           1     -34.725   0.410 -13.100  0.00  0.00    -0.271 OA
HETATM    2  H           1     -36.957  -1.421 -14.330  0.00  0.00     0.163 HD
HETATM    3  C           1     -35.639  -0.379 -13.120  0.00  0.00     0.249 C 
HETATM    4  N           1     -36.191  -0.759 -14.314  0.00  0.00    -0.344 N 
ENDROOT
BRANCH   3   5
HETATM    5  C           1     -36.172  -0.949 -11.828  0.00  0.00     0.283 C 
BRANCH   5   6
HETATM    6  N           1     -35.039  -1.150 -10.866  0.00  0.00    -0.066 N 
HETATM    7  H           1     -34.205  -0.611 -11.191  0.00  0.00     0.275 HD
HETATM    8  H           1     -35.323  -0.814  -9.919  0.00  0.00     0.275 HD
HETATM    9  H           1     -34.799  -2.166 -10.819  0.00  0.00     0.275 HD
ENDBRANCH   5   6
BRANCH   5  10
HETATM   10  C           1     -37.183   0.018 -11.224  0.00  0.00     0.145 C 
BRANCH  10  11
HETATM   11  C           1     -36.930   0.149  -9.742  0.00  0.00     0.217 C 
HETATM   12  O           1     -37.114  -0.795  -9.011  0.00  0.00    -0.274 OA
HETATM   13  N           1     -36.492   1.339  -9.226  0.00  0.00    -0.370 N 
HETATM   14  H           1     -36.322   1.428  -8.232  0.00  0.00     0.159 HD
HETATM   15  H           1     -36.337   2.130  -9.838  0.00  0.00     0.159 HD
ENDBRANCH  10  11
ENDBRANCH   5  10
ENDBRANCH   3   5
BRANCH   4  16
HETATM   16  C           1     -35.680  -0.211 -15.555  0.00  0.00     0.194 C 
BRANCH  16  17
HETATM   17  C           1     -36.483   1.008 -15.936  0.00  0.00     0.197 C 
HETATM   18  O           1     -35.903   2.090 -16.175  0.00  0.00    -0.646 OA
HETATM   19  O           1     -37.729   0.937 -16.012  0.00  0.00    -0.646 OA
ENDBRANCH  16  17
BRANCH  16  20
HETATM   20  C           1     -35.792  -1.258 -16.655  0.00  0.00     0.138 C 
BRANCH  20  21
HETATM   21  C           1     -34.765  -2.340 -16.428  0.00  0.00     0.217 C 
HETATM   22  N           1     -33.912  -2.698 -17.436  0.00  0.00    -0.370 N 
HETATM   23  H           1     -33.969  -2.236 -18.334  0.00  0.00     0.159 HD
HETATM   24  H           1     -33.223  -3.424 -17.283  0.00  0.00     0.159 HD
HETATM   25  O           1     -34.697  -2.892 -15.355  0.00  0.00    -0.274 OA
ENDBRANCH  20  21
ENDBRANCH  16  20
ENDBRANCH   4  16
TORSDOF 8
ENDMDL
MODEL 7
REMARK VINA RESULT:      -5.9     13.681     16.839
REMARK  8 active torsions:
REMARK  status: ('A' for Active; 'I' for Inactive)
REMARK    1  A    between atoms: N_2  and  C_20 
REMARK       I    between atoms: C_11  and  N_23 
REMARK    2  A    between atoms: C_11  and  C_20 
REMARK    3  A    between atoms: C_12  and  C_13 
REMARK    4  A    between atoms: C_13  and  C_14 
REMARK    5  A    between atoms: C_13  and  N_23 
REMARK    6  A    between atoms: C_14  and  C_25 
REMARK       I    between atoms: N_15  and  C_25 
REMARK       I    between atoms: N_17  and  C_18 
REMARK    7  A    between atoms: C_18  and  C_19 
REMARK    8  A    between atoms: C_19  and  C_20 
ROOT
HETATM    1  O           1     -20.798  -3.645  -6.882  0.00  0.00    -0.271 OA
HETATM    2  H           1     -22.948  -5.896  -7.278  0.00  0.00     0.163 HD
HETATM    3  C           1     -21.732  -4.224  -7.383  0.00  0.00     0.249 C 
HETATM    4  N           1     -22.165  -5.412  -6.857  0.00  0.00    -0.344 N 
ENDROOT
BRANCH   3   5
HETATM    5  C           1     -22.422  -3.637  -8.590  0.00  0.00     0.283 C 
BRANCH   5   6
HETATM    6  N           1     -21.568  -3.847  -9.805  0.00  0.00    -0.066 N 
HETATM    7  H           1     -22.085  -4.434 -10.498  0.00  0.00     0.275 HD
HETATM    8  H           1     -21.341  -2.921 -10.234  0.00  0.00     0.275 HD
HETATM    9  H           1     -20.684  -4.330  -9.530  0.00  0.00     0.275 HD
ENDBRANCH   5   6
BRANCH   5  10
HETATM   10  C           1     -23.767  -4.325  -8.791  0.00  0.00     0.145 C 
BRANCH  10  11
HETATM   11  C           1     -24.602  -3.523  -9.759  0.00  0.00     0.217 C 
HETATM   12  O           1     -24.071  -2.917 -10.659  0.00  0.00    -0.274 OA
HETATM   13  N           1     -25.964  -3.482  -9.617  0.00  0.00    -0.370 N 
HETATM   14  H           1     -26.524  -2.945 -10.266  0.00  0.00     0.159 HD
HETATM   15  H           1     -26.409  -3.991  -8.864  0.00  0.00     0.159 HD
ENDBRANCH  10  11
ENDBRANCH   5  10
ENDBRANCH   3   5
BRANCH   4  16
HETATM   16  C           1     -21.501  -5.976  -5.698  0.00  0.00     0.194 C 
BRANCH  16  17
HETATM   17  C           1     -20.545  -7.055  -6.142  0.00  0.00     0.197 C 
HETATM   18  O           1     -19.442  -6.747  -6.645  0.00  0.00    -0.646 OA
HETATM   19  O           1     -20.856  -8.259  -6.008  0.00  0.00    -0.646 OA
ENDBRANCH  16  17
BRANCH  16  20
HETATM   20  C           1     -22.540  -6.572  -4.759  0.00  0.00     0.138 C 
BRANCH  20  21
HETATM   21  C           1     -21.971  -6.653  -3.364  0.00  0.00     0.217 C 
HETATM   22  N           1     -21.354  -7.800  -2.942  0.00  0.00    -0.370 N 
HETATM   23  H           1     -21.280  -8.593  -3.566  0.00  0.00     0.159 HD
HETATM   24  H           1     -20.972  -7.854  -2.006  0.00  0.00     0.159 HD
HETATM   25  O           1     -22.060  -5.706  -2.619  0.00  0.00    -0.274 OA
ENDBRANCH  20  21
ENDBRANCH  16  20
ENDBRANCH   4  16
TORSDOF 8
ENDMDL
MODEL 8
REMARK VINA RESULT:      -5.8      1.953      3.254
REMARK  8 active torsions:
REMARK  status: ('A' for Active; 'I' for Inactive)
REMARK    1  A    between atoms: N_2  and  C_20 
REMARK       I    between atoms: C_11  and  N_23 
REMARK    2  A    between atoms: C_11  and  C_20 
REMARK    3  A    between atoms: C_12  and  C_13 
REMARK    4  A    between atoms: C_13  and  C_14 
REMARK    5  A    between atoms: C_13  and  N_23 
REMARK    6  A    between atoms: C_14  and  C_25 
REMARK       I    between atoms: N_15  and  C_25 
REMARK       I    between atoms: N_17  and  C_18 
REMARK    7  A    between atoms: C_18  and  C_19 
REMARK    8  A    between atoms: C_19  and  C_20 
ROOT
HETATM    1  O           1     -34.407   0.898 -13.531  0.00  0.00    -0.271 OA
HETATM    2  H           1     -36.453  -1.379 -14.220  0.00  0.00     0.163 HD
HETATM    3  C           1     -35.171  -0.016 -13.334  0.00  0.00     0.249 C 
HETATM    4  N           1     -35.813  -0.613 -14.386  0.00  0.00    -0.344 N 
ENDROOT
BRANCH   3   5
HETATM    5  C           1     -35.417  -0.503 -11.927  0.00  0.00     0.283 C 
BRANCH   5   6
HETATM    6  N           1     -36.812  -0.142 -11.511  0.00  0.00    -0.066 N 
HETATM    7  H           1     -37.480  -0.389 -12.275  0.00  0.00     0.275 HD
HETATM    8  H           1     -37.064  -0.669 -10.644  0.00  0.00     0.275 HD
HETATM    9  H           1     -36.865   0.884 -11.322  0.00  0.00     0.275 HD
ENDBRANCH   5   6
BRANCH   5  10
HETATM   10  C           1     -35.249  -2.016 -11.875  0.00  0.00     0.145 C 
BRANCH  10  11
HETATM   11  C           1     -33.934  -2.353 -11.214  0.00  0.00     0.217 C 
HETATM   12  O           1     -33.215  -3.199 -11.692  0.00  0.00    -0.274 OA
HETATM   13  N           1     -33.555  -1.699 -10.072  0.00  0.00    -0.370 N 
HETATM   14  H           1     -32.674  -1.924  -9.629  0.00  0.00     0.159 HD
HETATM   15  H           1     -34.156  -0.990  -9.672  0.00  0.00     0.159 HD
ENDBRANCH  10  11
ENDBRANCH   5  10
ENDBRANCH   3   5
BRANCH   4  16
HETATM   16  C           1     -35.577  -0.145 -15.738  0.00  0.00     0.194 C 
BRANCH  16  17
HETATM   17  C           1     -36.518   0.992 -16.048  0.00  0.00     0.197 C 
HETATM   18  O           1     -36.066   2.139 -16.259  0.00  0.00    -0.646 OA
HETATM   19  O           1     -37.751   0.789 -16.094  0.00  0.00    -0.646 OA
ENDBRANCH  16  17
BRANCH  16  20
HETATM   20  C           1     -35.817  -1.285 -16.718  0.00  0.00     0.138 C 
BRANCH  20  21
HETATM   21  C           1     -34.794  -2.371 -16.489  0.00  0.00     0.217 C 
HETATM   22  N           1     -33.870  -2.656 -17.457  0.00  0.00    -0.370 N 
HETATM   23  H           1     -33.873  -2.140 -18.327  0.00  0.00     0.159 HD
HETATM   24  H           1     -33.184  -3.385 -17.303  0.00  0.00     0.159 HD
HETATM   25  O           1     -34.791  -2.987 -15.450  0.00  0.00    -0.274 OA
ENDBRANCH  20  21
ENDBRANCH  16  20
ENDBRANCH   4  16
TORSDOF 8
ENDMDL
MODEL 9
REMARK VINA RESULT:      -5.8     13.503     16.561
REMARK  8 active torsions:
REMARK  status: ('A' for Active; 'I' for Inactive)
REMARK    1  A    between atoms: N_2  and  C_20 
REMARK       I    between atoms: C_11  and  N_23 
REMARK    2  A    between atoms: C_11  and  C_20 
REMARK    3  A    between atoms: C_12  and  C_13 
REMARK    4  A    between atoms: C_13  and  C_14 
REMARK    5  A    between atoms: C_13  and  N_23 
REMARK    6  A    between atoms: C_14  and  C_25 
REMARK       I    between atoms: N_15  and  C_25 
REMARK       I    between atoms: N_17  and  C_18 
REMARK    7  A    between atoms: C_18  and  C_19 
REMARK    8  A    between atoms: C_19  and  C_20 
ROOT
HETATM    1  O           1     -23.800  -4.392  -6.830  0.00  0.00    -0.271 OA
HETATM    2  H           1     -21.165  -5.160  -8.351  0.00  0.00     0.163 HD
HETATM    3  C           1     -23.058  -4.557  -7.768  0.00  0.00     0.249 C 
HETATM    4  N           1     -21.786  -5.022  -7.564  0.00  0.00    -0.344 N 
ENDROOT
BRANCH   3   5
HETATM    5  C           1     -23.533  -4.251  -9.168  0.00  0.00     0.283 C 
BRANCH   5   6
HETATM    6  N           1     -24.611  -3.210  -9.112  0.00  0.00    -0.066 N 
HETATM    7  H           1     -25.249  -3.410  -8.309  0.00  0.00     0.275 HD
HETATM    8  H           1     -24.179  -2.267  -8.986  0.00  0.00     0.275 HD
HETATM    9  H           1     -25.158  -3.227 -10.002  0.00  0.00     0.275 HD
ENDBRANCH   5   6
BRANCH   5  10
HETATM   10  C           1     -22.367  -3.728  -9.998  0.00  0.00     0.145 C 
BRANCH  10  11
HETATM   11  C           1     -22.514  -4.199 -11.424  0.00  0.00     0.217 C 
HETATM   12  O           1     -23.564  -4.661 -11.803  0.00  0.00    -0.274 OA
HETATM   13  N           1     -21.457  -4.102 -12.289  0.00  0.00    -0.370 N 
HETATM   14  H           1     -21.555  -4.417 -13.245  0.00  0.00     0.159 HD
HETATM   15  H           1     -20.578  -3.714 -11.972  0.00  0.00     0.159 HD
ENDBRANCH  10  11
ENDBRANCH   5  10
ENDBRANCH   3   5
BRANCH   4  16
HETATM   16  C           1     -21.330  -5.316  -6.219  0.00  0.00     0.194 C 
BRANCH  16  17
HETATM   17  C           1     -19.953  -4.736  -6.017  0.00  0.00     0.197 C 
HETATM   18  O           1     -19.160  -4.654  -6.981  0.00  0.00    -0.646 OA
HETATM   19  O           1     -19.602  -4.337  -4.885  0.00  0.00    -0.646 OA
ENDBRANCH  16  17
BRANCH  16  20
HETATM   20  C           1     -21.281  -6.825  -6.019  0.00  0.00     0.138 C 
BRANCH  20  21
HETATM   21  C           1     -21.826  -7.171  -4.656  0.00  0.00     0.217 C 
HETATM   22  N           1     -21.693  -8.442  -4.167  0.00  0.00    -0.370 N 
HETATM   23  H           1     -21.228  -9.150  -4.721  0.00  0.00     0.159 HD
HETATM   24  H           1     -22.059  -8.674  -3.252  0.00  0.00     0.159 HD
HETATM   25  O           1     -22.382  -6.325  -3.996  0.00  0.00    -0.274 OA
ENDBRANCH  20  21
ENDBRANCH  16  20
ENDBRANCH   4  16
TORSDOF 8
ENDMDL
