MODEL 1
REMARK VINA RESULT:      -7.1      0.000      0.000
REMARK  12 active torsions:
REMARK  status: ('A' for Active; 'I' for Inactive)
REMARK    1  A    between atoms: Se_2  and  C_3 
REMARK    2  A    between atoms: C_3  and  C_4 
REMARK    3  A    between atoms: C_4  and  C_5 
REMARK    4  A    between atoms: C_5  and  C_6 
REMARK    5  A    between atoms: C_5  and  N_9 
REMARK       I    between atoms: N_9  and  C_10 
REMARK    6  A    between atoms: C_10  and  C_11 
REMARK    7  A    between atoms: C_11  and  C_12 
REMARK    8  A    between atoms: C_11  and  N_24 
REMARK    9  A    between atoms: C_12  and  C_13 
REMARK   10  A    between atoms: C_16  and  O_17 
REMARK   11  A    between atoms: O_17  and  P_18 
REMARK   12  A    between atoms: P_18  and  O_19 
ROOT
HETATM    1  C           1     -21.494  -6.378  -4.859  0.00  0.00     0.278 C 
ENDROOT
BRANCH   1   2
HETATM    2  C           1     -20.928  -7.777  -4.851  0.00  0.00     0.249 C 
HETATM    3  N           1     -21.295  -8.659  -3.869  0.00  0.00    -0.345 N 
HETATM    4  H           1     -21.946  -8.372  -3.150  0.00  0.00     0.163 HD
HETATM    5  O           1     -20.150  -8.119  -5.710  0.00  0.00    -0.271 OA
BRANCH   3   6
HETATM    6  C           1     -20.751 -10.003  -3.862  0.00  0.00     0.185 C 
BRANCH   6   7
HETATM    7  C           1     -20.464 -10.428  -2.428  0.00  0.00     0.036 C 
BRANCH   7   8
HETATM    8  C           1     -20.788  -9.279  -1.483  0.00  0.00     0.003 C 
BRANCH   8   9
HETATM    9 Se           1     -22.424  -9.684  -0.503  0.00  0.00     0.000 Se
HETATM   10  C           1     -22.731  -7.847   0.070  0.00  0.00     0.000 C 
ENDBRANCH   8   9
ENDBRANCH   7   8
ENDBRANCH   6   7
BRANCH   6  11
HETATM   11  C           1     -21.750 -10.952  -4.476  0.00  0.00     0.196 C 
HETATM   12  O           1     -22.763 -11.296  -3.829  0.00  0.00    -0.646 OA
HETATM   13  O           1     -21.566 -11.393  -5.631  0.00  0.00    -0.646 OA
ENDBRANCH   6  11
ENDBRANCH   3   6
ENDBRANCH   1   2
BRANCH   1  14
HETATM   14  C           1     -20.479  -5.423  -5.472  0.00  0.00     0.081 C 
BRANCH  14  15
HETATM   15  C           1     -20.974  -4.959  -6.808  0.00  0.00    -0.056 A 
HETATM   16  C           1     -20.144  -5.042  -7.925  0.00  0.00     0.010 A 
HETATM   17  C           1     -20.605  -4.610  -9.169  0.00  0.00     0.038 A 
HETATM   18  C           1     -21.895  -4.094  -9.295  0.00  0.00     0.081 A 
HETATM   19  C           1     -22.724  -4.011  -8.176  0.00  0.00     0.038 A 
HETATM   20  C           1     -22.264  -4.443  -6.932  0.00  0.00     0.010 A 
BRANCH  18  21
HETATM   21  O           1     -22.342  -3.674 -10.502  0.00  0.00    -0.247 OA
BRANCH  21  22
HETATM   22  P           1     -23.707  -4.321 -11.074  0.00  0.00     0.411 P 
HETATM   23  O           1     -24.020  -5.556 -10.321  0.00  0.00    -0.624 OA
HETATM   24  O           1     -24.814  -3.352 -10.920  0.00  0.00    -0.624 OA
BRANCH  22  25
HETATM   25  O           1     -23.518  -4.678 -12.638  0.00  0.00    -0.300 OA
HETATM   26  H           1     -23.387  -5.611 -12.661  0.00  0.00     0.223 HD
ENDBRANCH  22  25
ENDBRANCH  21  22
ENDBRANCH  18  21
ENDBRANCH  14  15
ENDBRANCH   1  14
BRANCH   1  27
HETATM   27  N           1     -21.793  -5.953  -3.452  0.00  0.00    -0.066 N 
HETATM   28  H           1     -22.756  -5.547  -3.408  0.00  0.00     0.275 HD
HETATM   29  H           1     -21.736  -6.781  -2.818  0.00  0.00     0.275 HD
HETATM   30  H           1     -21.098  -5.234  -3.151  0.00  0.00     0.275 HD
ENDBRANCH   1  27
TORSDOF 12
ENDMDL
MODEL 2
REMARK VINA RESULT:      -7.0      2.283      2.988
REMARK  12 active torsions:
REMARK  status: ('A' for Active; 'I' for Inactive)
REMARK    1  A    between atoms: Se_2  and  C_3 
REMARK    2  A    between atoms: C_3  and  C_4 
REMARK    3  A    between atoms: C_4  and  C_5 
REMARK    4  A    between atoms: C_5  and  C_6 
REMARK    5  A    between atoms: C_5  and  N_9 
REMARK       I    between atoms: N_9  and  C_10 
REMARK    6  A    between atoms: C_10  and  C_11 
REMARK    7  A    between atoms: C_11  and  C_12 
REMARK    8  A    between atoms: C_11  and  N_24 
REMARK    9  A    between atoms: C_12  and  C_13 
REMARK   10  A    between atoms: C_16  and  O_17 
REMARK   11  A    between atoms: O_17  and  P_18 
REMARK   12  A    between atoms: P_18  and  O_19 
ROOT
HETATM    1  C           1     -21.471  -6.546  -4.909  0.00  0.00     0.278 C 
ENDROOT
BRANCH   1   2
HETATM    2  C           1     -20.842  -7.909  -4.757  0.00  0.00     0.249 C 
HETATM    3  N           1     -20.262  -8.267  -3.568  0.00  0.00    -0.345 N 
HETATM    4  H           1     -20.257  -7.618  -2.792  0.00  0.00     0.163 HD
HETATM    5  O           1     -20.847  -8.684  -5.684  0.00  0.00    -0.271 OA
BRANCH   3   6
HETATM    6  C           1     -19.658  -9.577  -3.423  0.00  0.00     0.185 C 
BRANCH   6   7
HETATM    7  C           1     -18.141  -9.442  -3.434  0.00  0.00     0.036 C 
BRANCH   7   8
HETATM    8  C           1     -17.600  -9.897  -4.783  0.00  0.00     0.003 C 
BRANCH   8   9
HETATM    9 Se           1     -15.814 -10.644  -4.549  0.00  0.00     0.000 Se
HETATM   10  C           1     -15.916 -10.706  -2.604  0.00  0.00     0.000 C 
ENDBRANCH   8   9
ENDBRANCH   7   8
ENDBRANCH   6   7
BRANCH   6  11
HETATM   11  C           1     -20.097 -10.190  -2.116  0.00  0.00     0.196 C 
HETATM   12  O           1     -19.434 -11.122  -1.609  0.00  0.00    -0.646 OA
HETATM   13  O           1     -21.121  -9.766  -1.539  0.00  0.00    -0.646 OA
ENDBRANCH   6  11
ENDBRANCH   3   6
ENDBRANCH   1   2
BRANCH   1  14
HETATM   14  C           1     -20.457  -5.583  -5.509  0.00  0.00     0.081 C 
BRANCH  14  15
HETATM   15  C           1     -20.969  -5.070  -6.820  0.00  0.00    -0.056 A 
HETATM   16  C           1     -22.251  -4.527  -6.902  0.00  0.00     0.010 A 
HETATM   17  C           1     -22.728  -4.049  -8.123  0.00  0.00     0.038 A 
HETATM   18  C           1     -21.924  -4.115  -9.261  0.00  0.00     0.081 A 
HETATM   19  C           1     -20.642  -4.660  -9.177  0.00  0.00     0.038 A 
HETATM   20  C           1     -20.165  -5.137  -7.957  0.00  0.00     0.010 A 
BRANCH  18  21
HETATM   21  O           1     -22.387  -3.653 -10.446  0.00  0.00    -0.247 OA
BRANCH  21  22
HETATM   22  P           1     -23.728  -4.321 -11.051  0.00  0.00     0.411 P 
HETATM   23  O           1     -24.035  -5.564 -10.311  0.00  0.00    -0.624 OA
HETATM   24  O           1     -24.855  -3.371 -10.915  0.00  0.00    -0.624 OA
BRANCH  22  25
HETATM   25  O           1     -23.499  -4.666 -12.612  0.00  0.00    -0.300 OA
HETATM   26  H           1     -22.685  -5.139 -12.640  0.00  0.00     0.223 HD
ENDBRANCH  22  25
ENDBRANCH  21  22
ENDBRANCH  18  21
ENDBRANCH  14  15
ENDBRANCH   1  14
BRANCH   1  27
HETATM   27  N           1     -21.903  -6.043  -3.563  0.00  0.00    -0.066 N 
HETATM   28  H           1     -21.545  -5.071  -3.423  0.00  0.00     0.275 HD
HETATM   29  H           1     -22.946  -6.041  -3.510  0.00  0.00     0.275 HD
HETATM   30  H           1     -21.516  -6.666  -2.819  0.00  0.00     0.275 HD
ENDBRANCH   1  27
TORSDOF 12
ENDMDL
MODEL 3
REMARK VINA RESULT:      -7.0     12.198     14.314
REMARK  12 active torsions:
REMARK  status: ('A' for Active; 'I' for Inactive)
REMARK    1  A    between atoms: Se_2  and  C_3 
REMARK    2  A    between atoms: C_3  and  C_4 
REMARK    3  A    between atoms: C_4  and  C_5 
REMARK    4  A    between atoms: C_5  and  C_6 
REMARK    5  A    between atoms: C_5  and  N_9 
REMARK       I    between atoms: N_9  and  C_10 
REMARK    6  A    between atoms: C_10  and  C_11 
REMARK    7  A    between atoms: C_11  and  C_12 
REMARK    8  A    between atoms: C_11  and  N_24 
REMARK    9  A    between atoms: C_12  and  C_13 
REMARK   10  A    between atoms: C_16  and  O_17 
REMARK   11  A    between atoms: O_17  and  P_18 
REMARK   12  A    between atoms: P_18  and  O_19 
ROOT
HETATM    1  C           1     -32.951  -4.717 -16.921  0.00  0.00     0.278 C 
ENDROOT
BRANCH   1   2
HETATM    2  C           1     -33.748  -4.676 -15.640  0.00  0.00     0.249 C 
HETATM    3  N           1     -33.220  -4.083 -14.524  0.00  0.00    -0.345 N 
HETATM    4  H           1     -32.296  -3.672 -14.558  0.00  0.00     0.163 HD
HETATM    5  O           1     -34.851  -5.167 -15.599  0.00  0.00    -0.271 OA
BRANCH   3   6
HETATM    6  C           1     -33.987  -4.043 -13.294  0.00  0.00     0.185 C 
BRANCH   6   7
HETATM    7  C           1     -33.038  -4.079 -12.102  0.00  0.00     0.036 C 
BRANCH   7   8
HETATM    8  C           1     -33.124  -5.441 -11.427  0.00  0.00     0.003 C 
BRANCH   8   9
HETATM    9 Se           1     -34.860  -5.629 -10.560  0.00  0.00     0.000 Se
HETATM   10  C           1     -34.631  -7.519 -10.143  0.00  0.00     0.000 C 
ENDBRANCH   8   9
ENDBRANCH   7   8
ENDBRANCH   6   7
BRANCH   6  11
HETATM   11  C           1     -34.799  -2.773 -13.250  0.00  0.00     0.196 C 
HETATM   12  O           1     -35.464  -2.492 -12.228  0.00  0.00    -0.646 OA
HETATM   13  O           1     -34.807  -2.000 -14.232  0.00  0.00    -0.646 OA
ENDBRANCH   6  11
ENDBRANCH   3   6
ENDBRANCH   1   2
BRANCH   1  14
HETATM   14  C           1     -32.218  -6.047 -17.020  0.00  0.00     0.081 C 
BRANCH  14  15
HETATM   15  C           1     -30.743  -5.815 -16.908  0.00  0.00    -0.056 A 
HETATM   16  C           1     -29.940  -5.873 -18.046  0.00  0.00     0.010 A 
HETATM   17  C           1     -28.565  -5.656 -17.941  0.00  0.00     0.038 A 
HETATM   18  C           1     -27.995  -5.382 -16.698  0.00  0.00     0.081 A 
HETATM   19  C           1     -28.799  -5.325 -15.560  0.00  0.00     0.038 A 
HETATM   20  C           1     -30.173  -5.541 -15.664  0.00  0.00     0.010 A 
BRANCH  18  21
HETATM   21  O           1     -26.661  -5.172 -16.596  0.00  0.00    -0.247 OA
BRANCH  21  22
HETATM   22  P           1     -25.740  -6.386 -16.059  0.00  0.00     0.411 P 
HETATM   23  O           1     -26.605  -7.470 -15.544  0.00  0.00    -0.624 OA
HETATM   24  O           1     -24.907  -6.901 -17.169  0.00  0.00    -0.624 OA
BRANCH  22  25
HETATM   25  O           1     -24.784  -5.850 -14.872  0.00  0.00    -0.300 OA
HETATM   26  H           1     -25.063  -4.964 -14.716  0.00  0.00     0.223 HD
ENDBRANCH  22  25
ENDBRANCH  21  22
ENDBRANCH  18  21
ENDBRANCH  14  15
ENDBRANCH   1  14
BRANCH   1  27
HETATM   27  N           1     -31.955  -3.595 -16.925  0.00  0.00    -0.066 N 
HETATM   28  H           1     -32.144  -2.958 -16.119  0.00  0.00     0.275 HD
HETATM   29  H           1     -30.990  -3.985 -16.842  0.00  0.00     0.275 HD
HETATM   30  H           1     -32.039  -3.060 -17.819  0.00  0.00     0.275 HD
ENDBRANCH   1  27
TORSDOF 12
ENDMDL
MODEL 4
REMARK VINA RESULT:      -6.8      2.198      3.128
REMARK  12 active torsions:
REMARK  status: ('A' for Active; 'I' for Inactive)
REMARK    1  A    between atoms: Se_2  and  C_3 
REMARK    2  A    between atoms: C_3  and  C_4 
REMARK    3  A    between atoms: C_4  and  C_5 
REMARK    4  A    between atoms: C_5  and  C_6 
REMARK    5  A    between atoms: C_5  and  N_9 
REMARK       I    between atoms: N_9  and  C_10 
REMARK    6  A    between atoms: C_10  and  C_11 
REMARK    7  A    between atoms: C_11  and  C_12 
REMARK    8  A    between atoms: C_11  and  N_24 
REMARK    9  A    between atoms: C_12  and  C_13 
REMARK   10  A    between atoms: C_16  and  O_17 
REMARK   11  A    between atoms: O_17  and  P_18 
REMARK   12  A    between atoms: P_18  and  O_19 
ROOT
HETATM    1  C           1     -21.519  -6.663  -4.913  0.00  0.00     0.278 C 
ENDROOT
BRANCH   1   2
HETATM    2  C           1     -20.929  -8.030  -4.667  0.00  0.00     0.249 C 
HETATM    3  N           1     -19.602  -8.258  -4.919  0.00  0.00    -0.345 N 
HETATM    4  H           1     -19.017  -7.510  -5.269  0.00  0.00     0.163 HD
HETATM    5  O           1     -21.627  -8.923  -4.250  0.00  0.00    -0.271 OA
BRANCH   3   6
HETATM    6  C           1     -19.036  -9.572  -4.682  0.00  0.00     0.185 C 
BRANCH   6   7
HETATM    7  C           1     -18.097  -9.935  -5.827  0.00  0.00     0.036 C 
BRANCH   7   8
HETATM    8  C           1     -18.342 -11.379  -6.244  0.00  0.00     0.003 C 
BRANCH   8   9
HETATM    9 Se           1     -19.953 -12.045  -5.371  0.00  0.00     0.000 Se
HETATM   10  C           1     -20.985 -12.186  -7.018  0.00  0.00     0.000 C 
ENDBRANCH   8   9
ENDBRANCH   7   8
ENDBRANCH   6   7
BRANCH   6  11
HETATM   11  C           1     -18.263  -9.560  -3.386  0.00  0.00     0.196 C 
HETATM   12  O           1     -17.025  -9.384  -3.398  0.00  0.00    -0.646 OA
HETATM   13  O           1     -18.861  -9.724  -2.301  0.00  0.00    -0.646 OA
ENDBRANCH   6  11
ENDBRANCH   3   6
ENDBRANCH   1   2
BRANCH   1  14
HETATM   14  C           1     -20.462  -5.757  -5.528  0.00  0.00     0.081 C 
BRANCH  14  15
HETATM   15  C           1     -20.968  -5.209  -6.827  0.00  0.00    -0.056 A 
HETATM   16  C           1     -20.168  -5.269  -7.967  0.00  0.00     0.010 A 
HETATM   17  C           1     -20.639  -4.759  -9.177  0.00  0.00     0.038 A 
HETATM   18  C           1     -21.910  -4.188  -9.246  0.00  0.00     0.081 A 
HETATM   19  C           1     -22.709  -4.127  -8.104  0.00  0.00     0.038 A 
HETATM   20  C           1     -22.238  -4.637  -6.895  0.00  0.00     0.010 A 
BRANCH  18  21
HETATM   21  O           1     -22.367  -3.691 -10.420  0.00  0.00    -0.247 OA
BRANCH  21  22
HETATM   22  P           1     -23.713  -4.332 -11.043  0.00  0.00     0.411 P 
HETATM   23  O           1     -24.053  -5.572 -10.311  0.00  0.00    -0.624 OA
HETATM   24  O           1     -24.824  -3.362 -10.918  0.00  0.00    -0.624 OA
BRANCH  22  25
HETATM   25  O           1     -23.472  -4.676 -12.602  0.00  0.00    -0.300 OA
HETATM   26  H           1     -24.334  -4.825 -12.955  0.00  0.00     0.223 HD
ENDBRANCH  22  25
ENDBRANCH  21  22
ENDBRANCH  18  21
ENDBRANCH  14  15
ENDBRANCH   1  14
BRANCH   1  27
HETATM   27  N           1     -21.983  -6.078  -3.612  0.00  0.00    -0.066 N 
HETATM   28  H           1     -22.526  -6.797  -3.081  0.00  0.00     0.275 HD
HETATM   29  H           1     -21.156  -5.780  -3.048  0.00  0.00     0.275 HD
HETATM   30  H           1     -22.594  -5.251  -3.801  0.00  0.00     0.275 HD
ENDBRANCH   1  27
TORSDOF 12
ENDMDL
MODEL 5
REMARK VINA RESULT:      -6.2      2.067      2.847
REMARK  12 active torsions:
REMARK  status: ('A' for Active; 'I' for Inactive)
REMARK    1  A    between atoms: Se_2  and  C_3 
REMARK    2  A    between atoms: C_3  and  C_4 
REMARK    3  A    between atoms: C_4  and  C_5 
REMARK    4  A    between atoms: C_5  and  C_6 
REMARK    5  A    between atoms: C_5  and  N_9 
REMARK       I    between atoms: N_9  and  C_10 
REMARK    6  A    between atoms: C_10  and  C_11 
REMARK    7  A    between atoms: C_11  and  C_12 
REMARK    8  A    between atoms: C_11  and  N_24 
REMARK    9  A    between atoms: C_12  and  C_13 
REMARK   10  A    between atoms: C_16  and  O_17 
REMARK   11  A    between atoms: O_17  and  P_18 
REMARK   12  A    between atoms: P_18  and  O_19 
ROOT
HETATM    1  C           1     -21.731  -6.547  -4.205  0.00  0.00     0.278 C 
ENDROOT
BRANCH   1   2
HETATM    2  C           1     -21.365  -8.010  -4.176  0.00  0.00     0.249 C 
HETATM    3  N           1     -20.882  -8.573  -3.024  0.00  0.00    -0.345 N 
HETATM    4  H           1     -20.773  -8.007  -2.192  0.00  0.00     0.163 HD
HETATM    5  O           1     -21.494  -8.685  -5.169  0.00  0.00    -0.271 OA
BRANCH   3   6
HETATM    6  C           1     -20.530  -9.979  -2.996  0.00  0.00     0.185 C 
BRANCH   6   7
HETATM    7  C           1     -19.205 -10.157  -2.265  0.00  0.00     0.036 C 
BRANCH   7   8
HETATM    8  C           1     -18.126  -9.343  -2.964  0.00  0.00     0.003 C 
BRANCH   8   9
HETATM    9 Se           1     -17.921  -9.972  -4.798  0.00  0.00     0.000 Se
HETATM   10  C           1     -15.973  -9.912  -4.775  0.00  0.00     0.000 C 
ENDBRANCH   8   9
ENDBRANCH   7   8
ENDBRANCH   6   7
BRANCH   6  11
HETATM   11  C           1     -21.608 -10.752  -2.277  0.00  0.00     0.196 C 
HETATM   12  O           1     -22.593 -11.188  -2.912  0.00  0.00    -0.646 OA
HETATM   13  O           1     -21.515 -10.959  -1.048  0.00  0.00    -0.646 OA
ENDBRANCH   6  11
ENDBRANCH   3   6
ENDBRANCH   1   2
BRANCH   1  14
HETATM   14  C           1     -20.597  -5.751  -4.834  0.00  0.00     0.081 C 
BRANCH  14  15
HETATM   15  C           1     -21.086  -5.085  -6.083  0.00  0.00    -0.056 A 
HETATM   16  C           1     -20.205  -4.342  -6.868  0.00  0.00     0.010 A 
HETATM   17  C           1     -20.662  -3.722  -8.031  0.00  0.00     0.038 A 
HETATM   18  C           1     -21.999  -3.844  -8.409  0.00  0.00     0.081 A 
HETATM   19  C           1     -22.880  -4.586  -7.622  0.00  0.00     0.038 A 
HETATM   20  C           1     -22.424  -5.207  -6.460  0.00  0.00     0.010 A 
BRANCH  18  21
HETATM   21  O           1     -22.442  -3.240  -9.538  0.00  0.00    -0.247 OA
BRANCH  21  22
HETATM   22  P           1     -21.977  -3.852 -10.958  0.00  0.00     0.411 P 
HETATM   23  O           1     -21.553  -2.753 -11.853  0.00  0.00    -0.624 OA
HETATM   24  O           1     -20.847  -4.784 -10.747  0.00  0.00    -0.624 OA
BRANCH  22  25
HETATM   25  O           1     -23.212  -4.647 -11.631  0.00  0.00    -0.300 OA
HETATM   26  H           1     -22.853  -5.044 -12.406  0.00  0.00     0.223 HD
ENDBRANCH  22  25
ENDBRANCH  21  22
ENDBRANCH  18  21
ENDBRANCH  14  15
ENDBRANCH   1  14
BRANCH   1  27
HETATM   27  N           1     -21.965  -6.063  -2.804  0.00  0.00    -0.066 N 
HETATM   28  H           1     -22.594  -5.228  -2.824  0.00  0.00     0.275 HD
HETATM   29  H           1     -22.411  -6.822  -2.243  0.00  0.00     0.275 HD
HETATM   30  H           1     -21.051  -5.799  -2.371  0.00  0.00     0.275 HD
ENDBRANCH   1  27
TORSDOF 12
ENDMDL
MODEL 6
REMARK VINA RESULT:      -6.1      1.930      2.842
REMARK  12 active torsions:
REMARK  status: ('A' for Active; 'I' for Inactive)
REMARK    1  A    between atoms: Se_2  and  C_3 
REMARK    2  A    between atoms: C_3  and  C_4 
REMARK    3  A    between atoms: C_4  and  C_5 
REMARK    4  A    between atoms: C_5  and  C_6 
REMARK    5  A    between atoms: C_5  and  N_9 
REMARK       I    between atoms: N_9  and  C_10 
REMARK    6  A    between atoms: C_10  and  C_11 
REMARK    7  A    between atoms: C_11  and  C_12 
REMARK    8  A    between atoms: C_11  and  N_24 
REMARK    9  A    between atoms: C_12  and  C_13 
REMARK   10  A    between atoms: C_16  and  O_17 
REMARK   11  A    between atoms: O_17  and  P_18 
REMARK   12  A    between atoms: P_18  and  O_19 
ROOT
HETATM    1  C           1     -21.429  -7.493  -3.858  0.00  0.00     0.278 C 
ENDROOT
BRANCH   1   2
HETATM    2  C           1     -21.301  -8.835  -3.181  0.00  0.00     0.249 C 
HETATM    3  N           1     -22.008  -9.096  -2.037  0.00  0.00    -0.345 N 
HETATM    4  H           1     -22.616  -8.388  -1.647  0.00  0.00     0.163 HD
HETATM    5  O           1     -20.573  -9.680  -3.647  0.00  0.00    -0.271 OA
BRANCH   3   6
HETATM    6  C           1     -21.884 -10.385  -1.387  0.00  0.00     0.185 C 
BRANCH   6   7
HETATM    7  C           1     -21.979 -10.205   0.123  0.00  0.00     0.036 C 
BRANCH   7   8
HETATM    8  C           1     -20.631 -10.518   0.758  0.00  0.00     0.003 C 
BRANCH   8   9
HETATM    9 Se           1     -19.665 -11.789  -0.361  0.00  0.00     0.000 Se
HETATM   10  C           1     -20.633 -13.350   0.291  0.00  0.00     0.000 C 
ENDBRANCH   8   9
ENDBRANCH   7   8
ENDBRANCH   6   7
BRANCH   6  11
HETATM   11  C           1     -22.995 -11.292  -1.855  0.00  0.00     0.196 C 
HETATM   12  O           1     -22.783 -12.121  -2.766  0.00  0.00    -0.646 OA
HETATM   13  O           1     -24.127 -11.216  -1.330  0.00  0.00    -0.646 OA
ENDBRANCH   6  11
ENDBRANCH   3   6
ENDBRANCH   1   2
BRANCH   1  14
HETATM   14  C           1     -20.406  -7.390  -4.980  0.00  0.00     0.081 C 
BRANCH  14  15
HETATM   15  C           1     -20.836  -6.337  -5.955  0.00  0.00    -0.056 A 
HETATM   16  C           1     -22.125  -5.808  -5.884  0.00  0.00     0.010 A 
HETATM   17  C           1     -22.525  -4.827  -6.792  0.00  0.00     0.038 A 
HETATM   18  C           1     -21.638  -4.376  -7.769  0.00  0.00     0.081 A 
HETATM   19  C           1     -20.350  -4.906  -7.839  0.00  0.00     0.038 A 
HETATM   20  C           1     -19.949  -5.887  -6.932  0.00  0.00     0.010 A 
BRANCH  18  21
HETATM   21  O           1     -22.027  -3.424  -8.650  0.00  0.00    -0.247 OA
BRANCH  21  22
HETATM   22  P           1     -23.239  -3.773  -9.659  0.00  0.00     0.411 P 
HETATM   23  O           1     -23.071  -3.010 -10.915  0.00  0.00    -0.624 OA
HETATM   24  O           1     -23.231  -5.223  -9.955  0.00  0.00    -0.624 OA
BRANCH  22  25
HETATM   25  O           1     -24.644  -3.372  -8.970  0.00  0.00    -0.300 OA
HETATM   26  H           1     -25.212  -4.107  -9.130  0.00  0.00     0.223 HD
ENDBRANCH  22  25
ENDBRANCH  21  22
ENDBRANCH  18  21
ENDBRANCH  14  15
ENDBRANCH   1  14
BRANCH   1  27
HETATM   27  N           1     -21.185  -6.403  -2.857  0.00  0.00    -0.066 N 
HETATM   28  H           1     -21.717  -5.548  -3.136  0.00  0.00     0.275 HD
HETATM   29  H           1     -21.503  -6.718  -1.914  0.00  0.00     0.275 HD
HETATM   30  H           1     -20.164  -6.182  -2.826  0.00  0.00     0.275 HD
ENDBRANCH   1  27
TORSDOF 12
ENDMDL
MODEL 7
REMARK VINA RESULT:      -6.0      2.558      3.673
REMARK  12 active torsions:
REMARK  status: ('A' for Active; 'I' for Inactive)
REMARK    1  A    between atoms: Se_2  and  C_3 
REMARK    2  A    between atoms: C_3  and  C_4 
REMARK    3  A    between atoms: C_4  and  C_5 
REMARK    4  A    between atoms: C_5  and  C_6 
REMARK    5  A    between atoms: C_5  and  N_9 
REMARK       I    between atoms: N_9  and  C_10 
REMARK    6  A    between atoms: C_10  and  C_11 
REMARK    7  A    between atoms: C_11  and  C_12 
REMARK    8  A    between atoms: C_11  and  N_24 
REMARK    9  A    between atoms: C_12  and  C_13 
REMARK   10  A    between atoms: C_16  and  O_17 
REMARK   11  A    between atoms: O_17  and  P_18 
REMARK   12  A    between atoms: P_18  and  O_19 
ROOT
HETATM    1  C           1     -21.649  -6.577  -4.355  0.00  0.00     0.278 C 
ENDROOT
BRANCH   1   2
HETATM    2  C           1     -21.005  -7.930  -4.181  0.00  0.00     0.249 C 
HETATM    3  N           1     -20.799  -8.736  -5.269  0.00  0.00    -0.345 N 
HETATM    4  H           1     -21.078  -8.423  -6.190  0.00  0.00     0.163 HD
HETATM    5  O           1     -20.674  -8.304  -3.081  0.00  0.00    -0.271 OA
BRANCH   3   6
HETATM    6  C           1     -20.181 -10.037  -5.101  0.00  0.00     0.185 C 
BRANCH   6   7
HETATM    7  C           1     -20.804 -11.026  -6.078  0.00  0.00     0.036 C 
BRANCH   7   8
HETATM    8  C           1     -20.254 -12.420  -5.808  0.00  0.00     0.003 C 
BRANCH   8   9
HETATM    9 Se           1     -20.947 -13.662  -7.142  0.00  0.00     0.000 Se
HETATM   10  C           1     -19.505 -13.355  -8.416  0.00  0.00     0.000 C 
ENDBRANCH   8   9
ENDBRANCH   7   8
ENDBRANCH   6   7
BRANCH   6  11
HETATM   11  C           1     -18.701  -9.928  -5.373  0.00  0.00     0.196 C 
HETATM   12  O           1     -17.881 -10.125  -4.450  0.00  0.00    -0.646 OA
HETATM   13  O           1     -18.295  -9.642  -6.519  0.00  0.00    -0.646 OA
ENDBRANCH   6  11
ENDBRANCH   3   6
ENDBRANCH   1   2
BRANCH   1  14
HETATM   14  C           1     -20.624  -5.594  -4.904  0.00  0.00     0.081 C 
BRANCH  14  15
HETATM   15  C           1     -21.142  -4.987  -6.172  0.00  0.00    -0.056 A 
HETATM   16  C           1     -22.487  -5.130  -6.513  0.00  0.00     0.010 A 
HETATM   17  C           1     -22.969  -4.564  -7.694  0.00  0.00     0.038 A 
HETATM   18  C           1     -22.108  -3.857  -8.532  0.00  0.00     0.081 A 
HETATM   19  C           1     -20.763  -3.715  -8.189  0.00  0.00     0.038 A 
HETATM   20  C           1     -20.280  -4.280  -7.010  0.00  0.00     0.010 A 
BRANCH  18  21
HETATM   21  O           1     -22.576  -3.308  -9.679  0.00  0.00    -0.247 OA
BRANCH  21  22
HETATM   22  P           1     -21.984  -3.853 -11.078  0.00  0.00     0.411 P 
HETATM   23  O           1     -23.039  -4.592 -11.806  0.00  0.00    -0.624 OA
HETATM   24  O           1     -21.525  -2.709 -11.898  0.00  0.00    -0.624 OA
BRANCH  22  25
HETATM   25  O           1     -20.739  -4.840 -10.788  0.00  0.00    -0.300 OA
HETATM   26  H           1     -20.535  -4.713  -9.876  0.00  0.00     0.223 HD
ENDBRANCH  22  25
ENDBRANCH  21  22
ENDBRANCH  18  21
ENDBRANCH  14  15
ENDBRANCH   1  14
BRANCH   1  27
HETATM   27  N           1     -22.150  -6.087  -3.029  0.00  0.00    -0.066 N 
HETATM   28  H           1     -21.462  -5.412  -2.624  0.00  0.00     0.275 HD
HETATM   29  H           1     -23.070  -5.611  -3.158  0.00  0.00     0.275 HD
HETATM   30  H           1     -22.265  -6.898  -2.380  0.00  0.00     0.275 HD
ENDBRANCH   1  27
TORSDOF 12
ENDMDL
MODEL 8
REMARK VINA RESULT:      -6.0      4.682      6.742
REMARK  12 active torsions:
REMARK  status: ('A' for Active; 'I' for Inactive)
REMARK    1  A    between atoms: Se_2  and  C_3 
REMARK    2  A    between atoms: C_3  and  C_4 
REMARK    3  A    between atoms: C_4  and  C_5 
REMARK    4  A    between atoms: C_5  and  C_6 
REMARK    5  A    between atoms: C_5  and  N_9 
REMARK       I    between atoms: N_9  and  C_10 
REMARK    6  A    between atoms: C_10  and  C_11 
REMARK    7  A    between atoms: C_11  and  C_12 
REMARK    8  A    between atoms: C_11  and  N_24 
REMARK    9  A    between atoms: C_12  and  C_13 
REMARK   10  A    between atoms: C_16  and  O_17 
REMARK   11  A    between atoms: O_17  and  P_18 
REMARK   12  A    between atoms: P_18  and  O_19 
ROOT
HETATM    1  C           1     -22.762 -10.496  -0.337  0.00  0.00     0.278 C 
ENDROOT
BRANCH   1   2
HETATM    2  C           1     -21.893 -11.575   0.261  0.00  0.00     0.249 C 
HETATM    3  N           1     -22.448 -12.767   0.645  0.00  0.00    -0.345 N 
HETATM    4  H           1     -23.440 -12.924   0.526  0.00  0.00     0.163 HD
HETATM    5  O           1     -20.708 -11.386   0.404  0.00  0.00    -0.271 OA
BRANCH   3   6
HETATM    6  C           1     -21.613 -13.803   1.220  0.00  0.00     0.185 C 
BRANCH   6   7
HETATM    7  C           1     -22.230 -14.289   2.525  0.00  0.00     0.036 C 
BRANCH   7   8
HETATM    8  C           1     -23.743 -14.128   2.461  0.00  0.00     0.003 C 
BRANCH   8   9
HETATM    9 Se           1     -24.577 -15.285   3.791  0.00  0.00     0.000 Se
HETATM   10  C           1     -22.925 -15.633   4.764  0.00  0.00     0.000 C 
ENDBRANCH   8   9
ENDBRANCH   7   8
ENDBRANCH   6   7
BRANCH   6  11
HETATM   11  C           1     -21.509 -14.958   0.254  0.00  0.00     0.196 C 
HETATM   12  O           1     -22.438 -15.182  -0.552  0.00  0.00    -0.646 OA
HETATM   13  O           1     -20.495 -15.689   0.260  0.00  0.00    -0.646 OA
ENDBRANCH   6  11
ENDBRANCH   3   6
ENDBRANCH   1   2
BRANCH   1  14
HETATM   14  C           1     -22.329  -9.139   0.200  0.00  0.00     0.081 C 
BRANCH  14  15
HETATM   15  C           1     -21.966  -8.242  -0.943  0.00  0.00    -0.056 A 
HETATM   16  C           1     -22.382  -6.911  -0.944  0.00  0.00     0.010 A 
HETATM   17  C           1     -22.043  -6.076  -2.008  0.00  0.00     0.038 A 
HETATM   18  C           1     -21.288  -6.571  -3.072  0.00  0.00     0.081 A 
HETATM   19  C           1     -20.872  -7.903  -3.070  0.00  0.00     0.038 A 
HETATM   20  C           1     -21.211  -8.738  -2.006  0.00  0.00     0.010 A 
BRANCH  18  21
HETATM   21  O           1     -20.959  -5.760  -4.105  0.00  0.00    -0.247 OA
BRANCH  21  22
HETATM   22  P           1     -21.709  -5.988  -5.517  0.00  0.00     0.411 P 
HETATM   23  O           1     -23.161  -6.147  -5.284  0.00  0.00    -0.624 OA
HETATM   24  O           1     -21.472  -4.820  -6.395  0.00  0.00    -0.624 OA
BRANCH  22  25
HETATM   25  O           1     -21.130  -7.319  -6.225  0.00  0.00    -0.300 OA
HETATM   26  H           1     -20.234  -7.113  -6.436  0.00  0.00     0.223 HD
ENDBRANCH  22  25
ENDBRANCH  21  22
ENDBRANCH  18  21
ENDBRANCH  14  15
ENDBRANCH   1  14
BRANCH   1  27
HETATM   27  N           1     -24.194 -10.747   0.032  0.00  0.00    -0.066 N 
HETATM   28  H           1     -24.612  -9.872   0.422  0.00  0.00     0.275 HD
HETATM   29  H           1     -24.727 -11.038  -0.818  0.00  0.00     0.275 HD
HETATM   30  H           1     -24.241 -11.504   0.750  0.00  0.00     0.275 HD
ENDBRANCH   1  27
TORSDOF 12
ENDMDL
MODEL 9
REMARK VINA RESULT:      -5.8      4.176      6.098
REMARK  12 active torsions:
REMARK  status: ('A' for Active; 'I' for Inactive)
REMARK    1  A    between atoms: Se_2  and  C_3 
REMARK    2  A    between atoms: C_3  and  C_4 
REMARK    3  A    between atoms: C_4  and  C_5 
REMARK    4  A    between atoms: C_5  and  C_6 
REMARK    5  A    between atoms: C_5  and  N_9 
REMARK       I    between atoms: N_9  and  C_10 
REMARK    6  A    between atoms: C_10  and  C_11 
REMARK    7  A    between atoms: C_11  and  C_12 
REMARK    8  A    between atoms: C_11  and  N_24 
REMARK    9  A    between atoms: C_12  and  C_13 
REMARK   10  A    between atoms: C_16  and  O_17 
REMARK   11  A    between atoms: O_17  and  P_18 
REMARK   12  A    between atoms: P_18  and  O_19 
ROOT
HETATM    1  C           1     -20.653 -10.764  -1.865  0.00  0.00     0.278 C 
ENDROOT
BRANCH   1   2
HETATM    2  C           1     -19.366 -11.551  -1.854  0.00  0.00     0.249 C 
HETATM    3  N           1     -18.220 -10.982  -1.367  0.00  0.00    -0.345 N 
HETATM    4  H           1     -18.236 -10.034  -1.014  0.00  0.00     0.163 HD
HETATM    5  O           1     -19.347 -12.683  -2.277  0.00  0.00    -0.271 OA
BRANCH   3   6
HETATM    6  C           1     -16.983 -11.739  -1.357  0.00  0.00     0.185 C 
BRANCH   6   7
HETATM    7  C           1     -15.874 -10.910  -1.992  0.00  0.00     0.036 C 
BRANCH   7   8
HETATM    8  C           1     -15.243 -11.697  -3.133  0.00  0.00     0.003 C 
BRANCH   8   9
HETATM    9 Se           1     -16.486 -11.778  -4.633  0.00  0.00     0.000 Se
HETATM   10  C           1     -15.779 -10.192  -5.518  0.00  0.00     0.000 C 
ENDBRANCH   8   9
ENDBRANCH   7   8
ENDBRANCH   6   7
BRANCH   6  11
HETATM   11  C           1     -16.609 -12.070   0.067  0.00  0.00     0.196 C 
HETATM   12  O           1     -15.568 -11.591   0.566  0.00  0.00    -0.646 OA
HETATM   13  O           1     -17.340 -12.823   0.747  0.00  0.00    -0.646 OA
ENDBRANCH   6  11
ENDBRANCH   3   6
ENDBRANCH   1   2
BRANCH   1  14
HETATM   14  C           1     -20.369  -9.321  -1.472  0.00  0.00     0.081 C 
BRANCH  14  15
HETATM   15  C           1     -20.922  -8.401  -2.517  0.00  0.00    -0.056 A 
HETATM   16  C           1     -21.063  -8.844  -3.831  0.00  0.00     0.010 A 
HETATM   17  C           1     -21.577  -7.986  -4.804  0.00  0.00     0.038 A 
HETATM   18  C           1     -21.950  -6.686  -4.462  0.00  0.00     0.081 A 
HETATM   19  C           1     -21.808  -6.244  -3.147  0.00  0.00     0.038 A 
HETATM   20  C           1     -21.294  -7.101  -2.174  0.00  0.00     0.010 A 
BRANCH  18  21
HETATM   21  O           1     -22.449  -5.854  -5.407  0.00  0.00    -0.247 OA
BRANCH  21  22
HETATM   22  P           1     -21.412  -5.163  -6.434  0.00  0.00     0.411 P 
HETATM   23  O           1     -20.232  -4.673  -5.689  0.00  0.00    -0.624 OA
HETATM   24  O           1     -20.984  -6.157  -7.444  0.00  0.00    -0.624 OA
BRANCH  22  25
HETATM   25  O           1     -22.134  -3.922  -7.174  0.00  0.00    -0.300 OA
HETATM   26  H           1     -22.398  -3.344  -6.478  0.00  0.00     0.223 HD
ENDBRANCH  22  25
ENDBRANCH  21  22
ENDBRANCH  18  21
ENDBRANCH  14  15
ENDBRANCH   1  14
BRANCH   1  27
HETATM   27  N           1     -21.617 -11.368  -0.886  0.00  0.00    -0.066 N 
HETATM   28  H           1     -21.092 -11.957  -0.199  0.00  0.00     0.275 HD
HETATM   29  H           1     -22.122 -10.608  -0.379  0.00  0.00     0.275 HD
HETATM   30  H           1     -22.305 -11.964  -1.399  0.00  0.00     0.275 HD
ENDBRANCH   1  27
TORSDOF 12
ENDMDL
