MODEL 1
REMARK VINA RESULT:      -5.6      0.000      0.000
REMARK  8 active torsions:
REMARK  status: ('A' for Active; 'I' for Inactive)
REMARK    1  A    between atoms: N_3  and  C_6 
REMARK    2  A    between atoms: Se_4  and  C_5 
REMARK    3  A    between atoms: C_5  and  C_6 
REMARK    4  A    between atoms: C_6  and  C_7 
REMARK       I    between atoms: C_7  and  N_8 
REMARK    5  A    between atoms: N_8  and  C_12 
REMARK    6  A    between atoms: C_11  and  C_12 
REMARK    7  A    between atoms: C_12  and  C_14 
REMARK    8  A    between atoms: C_14  and  C_15 
ROOT
HETATM    1  H           1     -34.929   0.022 -12.217  0.00  0.00     0.163 HD
HETATM    2  O           1     -37.713  -0.731 -13.450  0.00  0.00    -0.271 OA
HETATM    3  C           1     -36.607  -0.249 -13.397  0.00  0.00     0.249 C 
HETATM    4  N           1     -35.855  -0.383 -12.261  0.00  0.00    -0.344 N 
ENDROOT
BRANCH   3   5
HETATM    5  C           1     -36.053   0.500 -14.584  0.00  0.00     0.274 C 
BRANCH   5   6
HETATM    6  N           1     -34.560   0.352 -14.617  0.00  0.00    -0.067 N 
HETATM    7  H           1     -34.251  -0.238 -13.811  0.00  0.00     0.275 HD
HETATM    8  H           1     -34.276  -0.106 -15.512  0.00  0.00     0.275 HD
HETATM    9  H           1     -34.115   1.294 -14.550  0.00  0.00     0.275 HD
ENDBRANCH   5   6
BRANCH   5  10
HETATM   10  C           1     -36.646  -0.068 -15.867  0.00  0.00     0.045 C 
BRANCH  10  11
HETATM   11 Se           1     -35.443  -1.415 -16.599  0.00  0.00     0.000 Se
HETATM   12  H           1     -34.395  -1.194 -15.589  0.00  0.00     0.000 HD
ENDBRANCH  10  11
ENDBRANCH   5  10
ENDBRANCH   3   5
BRANCH   4  13
HETATM   13  C           1     -36.388  -1.102 -11.120  0.00  0.00     0.189 C 
BRANCH  13  14
HETATM   14  C           1     -36.759  -0.120 -10.036  0.00  0.00     0.197 C 
HETATM   15  O           1     -36.190  -0.172  -8.924  0.00  0.00    -0.646 OA
HETATM   16  O           1     -37.636   0.744 -10.250  0.00  0.00    -0.646 OA
ENDBRANCH  13  14
BRANCH  13  17
HETATM   17  C           1     -35.334  -2.067 -10.593  0.00  0.00     0.014 C 
HETATM   18  C           1     -35.788  -3.500 -10.843  0.00  0.00     0.012 C 
BRANCH  17  19
HETATM   19  C           1     -34.014  -1.819 -11.312  0.00  0.00     0.002 C 
HETATM   20  C           1     -33.172  -3.088 -11.280  0.00  0.00     0.005 C 
ENDBRANCH  17  19
ENDBRANCH  13  17
ENDBRANCH   4  13
TORSDOF 8
ENDMDL
MODEL 2
REMARK VINA RESULT:      -5.6     11.260     12.652
REMARK  8 active torsions:
REMARK  status: ('A' for Active; 'I' for Inactive)
REMARK    1  A    between atoms: N_3  and  C_6 
REMARK    2  A    between atoms: Se_4  and  C_5 
REMARK    3  A    between atoms: C_5  and  C_6 
REMARK    4  A    between atoms: C_6  and  C_7 
REMARK       I    between atoms: C_7  and  N_8 
REMARK    5  A    between atoms: N_8  and  C_12 
REMARK    6  A    between atoms: C_11  and  C_12 
REMARK    7  A    between atoms: C_12  and  C_14 
REMARK    8  A    between atoms: C_14  and  C_15 
ROOT
HETATM    1  H           1     -27.774  -7.032 -18.632  0.00  0.00     0.163 HD
HETATM    2  O           1     -24.717  -6.397 -18.328  0.00  0.00    -0.271 OA
HETATM    3  C           1     -25.725  -6.826 -18.837  0.00  0.00     0.249 C 
HETATM    4  N           1     -26.930  -6.672 -18.206  0.00  0.00    -0.344 N 
ENDROOT
BRANCH   3   5
HETATM    5  C           1     -25.656  -7.533 -20.169  0.00  0.00     0.274 C 
BRANCH   5   6
HETATM    6  N           1     -27.044  -7.868 -20.629  0.00  0.00    -0.067 N 
HETATM    7  H           1     -27.383  -7.127 -21.283  0.00  0.00     0.275 HD
HETATM    8  H           1     -27.033  -8.790 -21.122  0.00  0.00     0.275 HD
HETATM    9  H           1     -27.681  -7.922 -19.803  0.00  0.00     0.275 HD
ENDBRANCH   5   6
BRANCH   5  10
HETATM   10  C           1     -24.989  -6.624 -21.193  0.00  0.00     0.045 C 
BRANCH  10  11
HETATM   11 Se           1     -23.948  -7.702 -22.439  0.00  0.00     0.000 Se
HETATM   12  H           1     -24.657  -7.215 -23.634  0.00  0.00     0.000 HD
ENDBRANCH  10  11
ENDBRANCH   5  10
ENDBRANCH   3   5
BRANCH   4  13
HETATM   13  C           1     -26.996  -5.995 -16.925  0.00  0.00     0.189 C 
BRANCH  13  14
HETATM   14  C           1     -26.813  -7.000 -15.814  0.00  0.00     0.197 C 
HETATM   15  O           1     -27.812  -7.472 -15.229  0.00  0.00    -0.646 OA
HETATM   16  O           1     -25.664  -7.360 -15.481  0.00  0.00    -0.646 OA
ENDBRANCH  13  14
BRANCH  13  17
HETATM   17  C           1     -28.352  -5.317 -16.781  0.00  0.00     0.014 C 
HETATM   18  C           1     -28.171  -3.805 -16.830  0.00  0.00     0.012 C 
BRANCH  17  19
HETATM   19  C           1     -29.264  -5.758 -17.918  0.00  0.00     0.002 C 
HETATM   20  C           1     -30.499  -6.439 -17.344  0.00  0.00     0.005 C 
ENDBRANCH  17  19
ENDBRANCH  13  17
ENDBRANCH   4  13
TORSDOF 8
ENDMDL
MODEL 3
REMARK VINA RESULT:      -5.5     10.627     12.060
REMARK  8 active torsions:
REMARK  status: ('A' for Active; 'I' for Inactive)
REMARK    1  A    between atoms: N_3  and  C_6 
REMARK    2  A    between atoms: Se_4  and  C_5 
REMARK    3  A    between atoms: C_5  and  C_6 
REMARK    4  A    between atoms: C_6  and  C_7 
REMARK       I    between atoms: C_7  and  N_8 
REMARK    5  A    between atoms: N_8  and  C_12 
REMARK    6  A    between atoms: C_11  and  C_12 
REMARK    7  A    between atoms: C_12  and  C_14 
REMARK    8  A    between atoms: C_14  and  C_15 
ROOT
HETATM    1  H           1     -27.725  -6.699 -18.958  0.00  0.00     0.163 HD
HETATM    2  O           1     -25.564  -6.036 -16.783  0.00  0.00    -0.271 OA
HETATM    3  C           1     -26.005  -6.341 -17.866  0.00  0.00     0.249 C 
HETATM    4  N           1     -27.357  -6.443 -18.051  0.00  0.00    -0.344 N 
ENDROOT
BRANCH   3   5
HETATM    5  C           1     -25.063  -6.609 -19.014  0.00  0.00     0.274 C 
BRANCH   5   6
HETATM    6  N           1     -24.087  -7.679 -18.619  0.00  0.00    -0.067 N 
HETATM    7  H           1     -23.346  -7.762 -19.352  0.00  0.00     0.275 HD
HETATM    8  H           1     -23.647  -7.428 -17.705  0.00  0.00     0.275 HD
HETATM    9  H           1     -24.589  -8.590 -18.526  0.00  0.00     0.275 HD
ENDBRANCH   5   6
BRANCH   5  10
HETATM   10  C           1     -25.858  -7.072 -20.228  0.00  0.00     0.045 C 
BRANCH  10  11
HETATM   11 Se           1     -24.657  -7.918 -21.508  0.00  0.00     0.000 Se
HETATM   12  H           1     -24.637  -6.768 -22.426  0.00  0.00     0.000 HD
ENDBRANCH  10  11
ENDBRANCH   5  10
ENDBRANCH   3   5
BRANCH   4  13
HETATM   13  C           1     -28.261  -6.186 -16.947  0.00  0.00     0.189 C 
BRANCH  13  14
HETATM   14  C           1     -28.519  -7.471 -16.199  0.00  0.00     0.197 C 
HETATM   15  O           1     -29.233  -8.360 -16.711  0.00  0.00    -0.646 OA
HETATM   16  O           1     -28.018  -7.645 -15.067  0.00  0.00    -0.646 OA
ENDBRANCH  13  14
BRANCH  13  17
HETATM   17  C           1     -29.576  -5.639 -17.487  0.00  0.00     0.014 C 
HETATM   18  C           1     -30.505  -5.312 -16.324  0.00  0.00     0.012 C 
BRANCH  17  19
HETATM   19  C           1     -29.308  -4.376 -18.295  0.00  0.00     0.002 C 
HETATM   20  C           1     -28.975  -3.230 -17.349  0.00  0.00     0.005 C 
ENDBRANCH  17  19
ENDBRANCH  13  17
ENDBRANCH   4  13
TORSDOF 8
ENDMDL
MODEL 4
REMARK VINA RESULT:      -5.1     10.146     11.944
REMARK  8 active torsions:
REMARK  status: ('A' for Active; 'I' for Inactive)
REMARK    1  A    between atoms: N_3  and  C_6 
REMARK    2  A    between atoms: Se_4  and  C_5 
REMARK    3  A    between atoms: C_5  and  C_6 
REMARK    4  A    between atoms: C_6  and  C_7 
REMARK       I    between atoms: C_7  and  N_8 
REMARK    5  A    between atoms: N_8  and  C_12 
REMARK    6  A    between atoms: C_11  and  C_12 
REMARK    7  A    between atoms: C_12  and  C_14 
REMARK    8  A    between atoms: C_14  and  C_15 
ROOT
HETATM    1  H           1     -27.278  -6.013 -18.186  0.00  0.00     0.163 HD
HETATM    2  O           1     -27.254  -7.498 -15.423  0.00  0.00    -0.271 OA
HETATM    3  C           1     -26.821  -6.864 -16.356  0.00  0.00     0.249 C 
HETATM    4  N           1     -27.641  -6.543 -17.404  0.00  0.00    -0.344 N 
ENDROOT
BRANCH   3   5
HETATM    5  C           1     -25.377  -6.426 -16.365  0.00  0.00     0.274 C 
BRANCH   5   6
HETATM    6  N           1     -24.894  -6.272 -14.953  0.00  0.00    -0.067 N 
HETATM    7  H           1     -25.563  -5.671 -14.419  0.00  0.00     0.275 HD
HETATM    8  H           1     -24.834  -7.212 -14.501  0.00  0.00     0.275 HD
HETATM    9  H           1     -23.949  -5.825 -14.955  0.00  0.00     0.275 HD
ENDBRANCH   5   6
BRANCH   5  10
HETATM   10  C           1     -24.532  -7.474 -17.078  0.00  0.00     0.045 C 
BRANCH  10  11
HETATM   11 Se           1     -24.370  -7.006 -18.962  0.00  0.00     0.000 Se
HETATM   12  H           1     -23.024  -7.584 -19.110  0.00  0.00     0.000 HD
ENDBRANCH  10  11
ENDBRANCH   5  10
ENDBRANCH   3   5
BRANCH   4  13
HETATM   13  C           1     -29.028  -6.965 -17.396  0.00  0.00     0.189 C 
BRANCH  13  14
HETATM   14  C           1     -29.328  -7.734 -18.659  0.00  0.00     0.197 C 
HETATM   15  O           1     -30.445  -8.274 -18.812  0.00  0.00    -0.646 OA
HETATM   16  O           1     -28.459  -7.830 -19.552  0.00  0.00    -0.646 OA
ENDBRANCH  13  14
BRANCH  13  17
HETATM   17  C           1     -29.929  -5.740 -17.320  0.00  0.00     0.014 C 
HETATM   18  C           1     -30.023  -5.267 -15.875  0.00  0.00     0.012 C 
BRANCH  17  19
HETATM   19  C           1     -29.347  -4.627 -18.182  0.00  0.00     0.002 C 
HETATM   20  C           1     -29.177  -3.369 -17.341  0.00  0.00     0.005 C 
ENDBRANCH  17  19
ENDBRANCH  13  17
ENDBRANCH   4  13
TORSDOF 8
ENDMDL
MODEL 5
REMARK VINA RESULT:      -4.8     15.846     17.457
REMARK  8 active torsions:
REMARK  status: ('A' for Active; 'I' for Inactive)
REMARK    1  A    between atoms: N_3  and  C_6 
REMARK    2  A    between atoms: Se_4  and  C_5 
REMARK    3  A    between atoms: C_5  and  C_6 
REMARK    4  A    between atoms: C_6  and  C_7 
REMARK       I    between atoms: C_7  and  N_8 
REMARK    5  A    between atoms: N_8  and  C_12 
REMARK    6  A    between atoms: C_11  and  C_12 
REMARK    7  A    between atoms: C_12  and  C_14 
REMARK    8  A    between atoms: C_14  and  C_15 
ROOT
HETATM    1  H           1     -22.494  -6.693  -5.635  0.00  0.00     0.163 HD
HETATM    2  O           1     -19.870  -5.043  -6.119  0.00  0.00    -0.271 OA
HETATM    3  C           1     -21.033  -5.353  -6.228  0.00  0.00     0.249 C 
HETATM    4  N           1     -21.520  -6.433  -5.543  0.00  0.00    -0.344 N 
ENDROOT
BRANCH   3   5
HETATM    5  C           1     -21.947  -4.550  -7.120  0.00  0.00     0.274 C 
BRANCH   5   6
HETATM    6  N           1     -21.582  -3.097  -7.030  0.00  0.00    -0.067 N 
HETATM    7  H           1     -22.279  -2.599  -6.430  0.00  0.00     0.275 HD
HETATM    8  H           1     -20.630  -3.003  -6.608  0.00  0.00     0.275 HD
HETATM    9  H           1     -21.582  -2.677  -7.986  0.00  0.00     0.275 HD
ENDBRANCH   5   6
BRANCH   5  10
HETATM   10  C           1     -21.796  -5.021  -8.561  0.00  0.00     0.045 C 
BRANCH  10  11
HETATM   11 Se           1     -22.844  -3.871  -9.734  0.00  0.00     0.000 Se
HETATM   12  H           1     -24.137  -4.242  -9.135  0.00  0.00     0.000 HD
ENDBRANCH  10  11
ENDBRANCH   5  10
ENDBRANCH   3   5
BRANCH   4  13
HETATM   13  C           1     -20.641  -7.205  -4.687  0.00  0.00     0.189 C 
BRANCH  13  14
HETATM   14  C           1     -20.241  -8.478  -5.393  0.00  0.00     0.197 C 
HETATM   15  O           1     -21.112  -9.319  -5.707  0.00  0.00    -0.646 OA
HETATM   16  O           1     -19.040  -8.689  -5.665  0.00  0.00    -0.646 OA
ENDBRANCH  13  14
BRANCH  13  17
HETATM   17  C           1     -21.368  -7.549  -3.394  0.00  0.00     0.014 C 
HETATM   18  C           1     -20.406  -8.250  -2.442  0.00  0.00     0.012 C 
BRANCH  17  19
HETATM   19  C           1     -21.883  -6.271  -2.745  0.00  0.00     0.002 C 
HETATM   20  C           1     -22.291  -6.559  -1.307  0.00  0.00     0.005 C 
ENDBRANCH  17  19
ENDBRANCH  13  17
ENDBRANCH   4  13
TORSDOF 8
ENDMDL
MODEL 6
REMARK VINA RESULT:      -4.8     10.502     11.992
REMARK  8 active torsions:
REMARK  status: ('A' for Active; 'I' for Inactive)
REMARK    1  A    between atoms: N_3  and  C_6 
REMARK    2  A    between atoms: Se_4  and  C_5 
REMARK    3  A    between atoms: C_5  and  C_6 
REMARK    4  A    between atoms: C_6  and  C_7 
REMARK       I    between atoms: C_7  and  N_8 
REMARK    5  A    between atoms: N_8  and  C_12 
REMARK    6  A    between atoms: C_11  and  C_12 
REMARK    7  A    between atoms: C_12  and  C_14 
REMARK    8  A    between atoms: C_14  and  C_15 
ROOT
HETATM    1  H           1     -27.143  -4.737 -17.824  0.00  0.00     0.163 HD
HETATM    2  O           1     -28.882  -7.167 -16.870  0.00  0.00    -0.271 OA
HETATM    3  C           1     -28.626  -6.028 -17.179  0.00  0.00     0.249 C 
HETATM    4  N           1     -27.357  -5.692 -17.566  0.00  0.00    -0.344 N 
ENDROOT
BRANCH   3   5
HETATM    5  C           1     -29.707  -4.975 -17.139  0.00  0.00     0.274 C 
BRANCH   5   6
HETATM    6  N           1     -29.636  -4.139 -18.383  0.00  0.00    -0.067 N 
HETATM    7  H           1     -29.135  -3.245 -18.175  0.00  0.00     0.275 HD
HETATM    8  H           1     -29.119  -4.664 -19.125  0.00  0.00     0.275 HD
HETATM    9  H           1     -30.604  -3.928 -18.716  0.00  0.00     0.275 HD
ENDBRANCH   5   6
BRANCH   5  10
HETATM   10  C           1     -31.071  -5.648 -17.057  0.00  0.00     0.045 C 
BRANCH  10  11
HETATM   11 Se           1     -32.452  -4.291 -16.837  0.00  0.00     0.000 Se
HETATM   12  H           1     -33.396  -5.196 -16.161  0.00  0.00     0.000 HD
ENDBRANCH  10  11
ENDBRANCH   5  10
ENDBRANCH   3   5
BRANCH   4  13
HETATM   13  C           1     -26.319  -6.703 -17.603  0.00  0.00     0.189 C 
BRANCH  13  14
HETATM   14  C           1     -25.526  -6.659 -16.320  0.00  0.00     0.197 C 
HETATM   15  O           1     -25.341  -7.706 -15.663  0.00  0.00    -0.646 OA
HETATM   16  O           1     -25.056  -5.574 -15.914  0.00  0.00    -0.646 OA
ENDBRANCH  13  14
BRANCH  13  17
HETATM   17  C           1     -25.393  -6.435 -18.782  0.00  0.00     0.014 C 
HETATM   18  C           1     -24.147  -7.303 -18.656  0.00  0.00     0.012 C 
BRANCH  17  19
HETATM   19  C           1     -26.116  -6.768 -20.081  0.00  0.00     0.002 C 
HETATM   20  C           1     -25.269  -7.733 -20.901  0.00  0.00     0.005 C 
ENDBRANCH  17  19
ENDBRANCH  13  17
ENDBRANCH   4  13
TORSDOF 8
ENDMDL
MODEL 7
REMARK VINA RESULT:      -4.8     13.379     15.495
REMARK  8 active torsions:
REMARK  status: ('A' for Active; 'I' for Inactive)
REMARK    1  A    between atoms: N_3  and  C_6 
REMARK    2  A    between atoms: Se_4  and  C_5 
REMARK    3  A    between atoms: C_5  and  C_6 
REMARK    4  A    between atoms: C_6  and  C_7 
REMARK       I    between atoms: C_7  and  N_8 
REMARK    5  A    between atoms: N_8  and  C_12 
REMARK    6  A    between atoms: C_11  and  C_12 
REMARK    7  A    between atoms: C_12  and  C_14 
REMARK    8  A    between atoms: C_14  and  C_15 
ROOT
HETATM    1  H           1     -22.404  -5.683  -8.851  0.00  0.00     0.163 HD
HETATM    2  O           1     -21.490  -3.177  -7.200  0.00  0.00    -0.271 OA
HETATM    3  C           1     -21.637  -4.345  -7.471  0.00  0.00     0.249 C 
HETATM    4  N           1     -22.280  -4.704  -8.625  0.00  0.00    -0.344 N 
ENDROOT
BRANCH   3   5
HETATM    5  C           1     -21.110  -5.408  -6.538  0.00  0.00     0.274 C 
BRANCH   5   6
HETATM    6  N           1     -20.019  -4.827  -5.686  0.00  0.00    -0.067 N 
HETATM    7  H           1     -19.284  -4.408  -6.299  0.00  0.00     0.275 HD
HETATM    8  H           1     -20.420  -4.088  -5.066  0.00  0.00     0.275 HD
HETATM    9  H           1     -19.596  -5.582  -5.101  0.00  0.00     0.275 HD
ENDBRANCH   5   6
BRANCH   5  10
HETATM   10  C           1     -22.239  -5.907  -5.645  0.00  0.00     0.045 C 
BRANCH  10  11
HETATM   11 Se           1     -21.514  -6.437  -3.916  0.00  0.00     0.000 Se
HETATM   12  H           1     -20.129  -6.554  -4.402  0.00  0.00     0.000 HD
ENDBRANCH  10  11
ENDBRANCH   5  10
ENDBRANCH   3   5
BRANCH   4  13
HETATM   13  C           1     -22.787  -3.683  -9.520  0.00  0.00     0.189 C 
BRANCH  13  14
HETATM   14  C           1     -24.287  -3.810  -9.630  0.00  0.00     0.197 C 
HETATM   15  O           1     -25.012  -2.804  -9.473  0.00  0.00    -0.646 OA
HETATM   16  O           1     -24.803  -4.920  -9.879  0.00  0.00    -0.646 OA
ENDBRANCH  13  14
BRANCH  13  17
HETATM   17  C           1     -22.160  -3.860 -10.897  0.00  0.00     0.014 C 
HETATM   18  C           1     -21.516  -2.549 -11.333  0.00  0.00     0.012 C 
BRANCH  17  19
HETATM   19  C           1     -21.099  -4.951 -10.834  0.00  0.00     0.002 C 
HETATM   20  C           1     -19.715  -4.315 -10.835  0.00  0.00     0.005 C 
ENDBRANCH  17  19
ENDBRANCH  13  17
ENDBRANCH   4  13
TORSDOF 8
ENDMDL
MODEL 8
REMARK VINA RESULT:      -4.6     16.043     17.771
REMARK  8 active torsions:
REMARK  status: ('A' for Active; 'I' for Inactive)
REMARK    1  A    between atoms: N_3  and  C_6 
REMARK    2  A    between atoms: Se_4  and  C_5 
REMARK    3  A    between atoms: C_5  and  C_6 
REMARK    4  A    between atoms: C_6  and  C_7 
REMARK       I    between atoms: C_7  and  N_8 
REMARK    5  A    between atoms: N_8  and  C_12 
REMARK    6  A    between atoms: C_11  and  C_12 
REMARK    7  A    between atoms: C_12  and  C_14 
REMARK    8  A    between atoms: C_14  and  C_15 
ROOT
HETATM    1  H           1     -19.764  -6.835  -4.605  0.00  0.00     0.163 HD
HETATM    2  O           1     -22.609  -5.861  -5.497  0.00  0.00    -0.271 OA
HETATM    3  C           1     -21.403  -5.932  -5.487  0.00  0.00     0.249 C 
HETATM    4  N           1     -20.774  -6.777  -4.613  0.00  0.00    -0.344 N 
ENDROOT
BRANCH   3   5
HETATM    5  C           1     -20.591  -5.087  -6.438  0.00  0.00     0.274 C 
BRANCH   5   6
HETATM    6  N           1     -20.031  -5.958  -7.525  0.00  0.00    -0.067 N 
HETATM    7  H           1     -20.480  -5.710  -8.436  0.00  0.00     0.275 HD
HETATM    8  H           1     -18.999  -5.809  -7.592  0.00  0.00     0.275 HD
HETATM    9  H           1     -20.225  -6.960  -7.303  0.00  0.00     0.275 HD
ENDBRANCH   5   6
BRANCH   5  10
HETATM   10  C           1     -21.481  -4.016  -7.055  0.00  0.00     0.045 C 
BRANCH  10  11
HETATM   11 Se           1     -21.802  -4.439  -8.930  0.00  0.00     0.000 Se
HETATM   12  H           1     -22.918  -3.490  -9.073  0.00  0.00     0.000 HD
ENDBRANCH  10  11
ENDBRANCH   5  10
ENDBRANCH   3   5
BRANCH   4  13
HETATM   13  C           1     -21.554  -7.587  -3.699  0.00  0.00     0.189 C 
BRANCH  13  14
HETATM   14  C           1     -21.599  -6.918  -2.347  0.00  0.00     0.197 C 
HETATM   15  O           1     -20.940  -7.389  -1.394  0.00  0.00    -0.646 OA
HETATM   16  O           1     -22.295  -5.893  -2.180  0.00  0.00    -0.646 OA
ENDBRANCH  13  14
BRANCH  13  17
HETATM   17  C           1     -20.912  -8.961  -3.565  0.00  0.00     0.014 C 
HETATM   18  C           1     -21.842 -10.015  -4.151  0.00  0.00     0.012 C 
BRANCH  17  19
HETATM   19  C           1     -19.587  -8.977  -4.316  0.00  0.00     0.002 C 
HETATM   20  C           1     -18.465  -9.357  -3.359  0.00  0.00     0.005 C 
ENDBRANCH  17  19
ENDBRANCH  13  17
ENDBRANCH   4  13
TORSDOF 8
ENDMDL
MODEL 9
REMARK VINA RESULT:      -4.5     17.986     19.678
REMARK  8 active torsions:
REMARK  status: ('A' for Active; 'I' for Inactive)
REMARK    1  A    between atoms: N_3  and  C_6 
REMARK    2  A    between atoms: Se_4  and  C_5 
REMARK    3  A    between atoms: C_5  and  C_6 
REMARK    4  A    between atoms: C_6  and  C_7 
REMARK       I    between atoms: C_7  and  N_8 
REMARK    5  A    between atoms: N_8  and  C_12 
REMARK    6  A    between atoms: C_11  and  C_12 
REMARK    7  A    between atoms: C_12  and  C_14 
REMARK    8  A    between atoms: C_14  and  C_15 
ROOT
HETATM    1  H           1     -21.989  -9.855  -2.689  0.00  0.00     0.163 HD
HETATM    2  O           1     -20.851  -6.978  -2.168  0.00  0.00    -0.271 OA
HETATM    3  C           1     -21.352  -7.888  -2.785  0.00  0.00     0.249 C 
HETATM    4  N           1     -21.570  -9.093  -2.172  0.00  0.00    -0.344 N 
ENDROOT
BRANCH   3   5
HETATM    5  C           1     -21.739  -7.696  -4.230  0.00  0.00     0.274 C 
BRANCH   5   6
HETATM    6  N           1     -22.347  -6.335  -4.408  0.00  0.00    -0.067 N 
HETATM    7  H           1     -22.794  -6.273  -5.351  0.00  0.00     0.275 HD
HETATM    8  H           1     -23.070  -6.179  -3.670  0.00  0.00     0.275 HD
HETATM    9  H           1     -21.602  -5.608  -4.326  0.00  0.00     0.275 HD
ENDBRANCH   5   6
BRANCH   5  10
HETATM   10  C           1     -20.501  -7.815  -5.109  0.00  0.00     0.045 C 
BRANCH  10  11
HETATM   11 Se           1     -20.325  -6.214  -6.206  0.00  0.00     0.000 Se
HETATM   12  H           1     -19.384  -6.828  -7.157  0.00  0.00     0.000 HD
ENDBRANCH  10  11
ENDBRANCH   5  10
ENDBRANCH   3   5
BRANCH   4  13
HETATM   13  C           1     -21.197  -9.277  -0.783  0.00  0.00     0.189 C 
BRANCH  13  14
HETATM   14  C           1     -20.256 -10.452  -0.667  0.00  0.00     0.197 C 
HETATM   15  O           1     -20.127 -11.043   0.428  0.00  0.00    -0.646 OA
HETATM   16  O           1     -19.606 -10.833  -1.664  0.00  0.00    -0.646 OA
ENDBRANCH  13  14
BRANCH  13  17
HETATM   17  C           1     -22.446  -9.543   0.046  0.00  0.00     0.014 C 
HETATM   18  C           1     -23.109  -8.218   0.403  0.00  0.00     0.012 C 
BRANCH  17  19
HETATM   19  C           1     -23.418 -10.396  -0.760  0.00  0.00     0.002 C 
HETATM   20  C           1     -23.782 -11.641   0.038  0.00  0.00     0.005 C 
ENDBRANCH  17  19
ENDBRANCH  13  17
ENDBRANCH   4  13
TORSDOF 8
ENDMDL
