MODEL 1
REMARK VINA RESULT:      -5.6      0.000      0.000
REMARK  5 active torsions:
REMARK  status: ('A' for Active; 'I' for Inactive)
REMARK    1  A    between atoms: N_2  and  C_10 
REMARK       I    between atoms: C_3  and  N_4 
REMARK    2  A    between atoms: C_3  and  C_10 
REMARK    3  A    between atoms: N_4  and  C_14 
REMARK    4  A    between atoms: C_8  and  C_10 
REMARK    5  A    between atoms: C_14  and  C_15 
ROOT
HETATM    1  C           1     -21.962  -4.827  -8.026  0.00  0.00     0.249 C 
HETATM    2  N           1     -21.749  -4.792  -9.378  0.00  0.00    -0.345 N 
HETATM    3  H           1     -21.138  -5.472  -9.813  0.00  0.00     0.163 HD
HETATM    4  O           1     -22.690  -4.016  -7.508  0.00  0.00    -0.271 OA
ENDROOT
BRANCH   1   5
HETATM    5  C           1     -21.285  -5.882  -7.184  0.00  0.00     0.278 C 
BRANCH   5   6
HETATM    6  N           1     -19.853  -6.017  -7.608  0.00  0.00    -0.066 N 
HETATM    7  H           1     -19.270  -6.292  -6.786  0.00  0.00     0.275 HD
HETATM    8  H           1     -19.777  -6.749  -8.350  0.00  0.00     0.275 HD
HETATM    9  H           1     -19.513  -5.103  -7.984  0.00  0.00     0.275 HD
ENDBRANCH   5   6
BRANCH   5  10
HETATM   10  C           1     -21.343  -5.476  -5.718  0.00  0.00     0.017 C 
HETATM   11  C           1     -20.070  -4.727  -5.348  0.00  0.00     0.012 C 
HETATM   12  C           1     -21.468  -6.722  -4.850  0.00  0.00     0.012 C 
ENDBRANCH   5  10
ENDBRANCH   1   5
BRANCH   2  13
HETATM   13  C           1     -22.398  -3.779 -10.188  0.00  0.00     0.181 C 
HETATM   14  C           1     -21.439  -3.303 -11.271  0.00  0.00     0.043 C 
BRANCH  13  15
HETATM   15  C           1     -23.632  -4.365 -10.829  0.00  0.00     0.196 C 
HETATM   16  O           1     -24.699  -4.436 -10.182  0.00  0.00    -0.646 OA
HETATM   17  O           1     -23.587  -4.779 -12.008  0.00  0.00    -0.646 OA
ENDBRANCH  13  15
ENDBRANCH   2  13
TORSDOF 5
ENDMDL
MODEL 2
REMARK VINA RESULT:      -5.5     10.861     12.259
REMARK  5 active torsions:
REMARK  status: ('A' for Active; 'I' for Inactive)
REMARK    1  A    between atoms: N_2  and  C_10 
REMARK       I    between atoms: C_3  and  N_4 
REMARK    2  A    between atoms: C_3  and  C_10 
REMARK    3  A    between atoms: N_4  and  C_14 
REMARK    4  A    between atoms: C_8  and  C_10 
REMARK    5  A    between atoms: C_14  and  C_15 
ROOT
HETATM    1  C           1     -28.337  -6.298 -18.655  0.00  0.00     0.249 C 
HETATM    2  N           1     -27.492  -7.242 -19.174  0.00  0.00    -0.345 N 
HETATM    3  H           1     -27.443  -8.163 -18.756  0.00  0.00     0.163 HD
HETATM    4  O           1     -28.394  -5.200 -19.154  0.00  0.00    -0.271 OA
ENDROOT
BRANCH   1   5
HETATM    5  C           1     -29.197  -6.631 -17.460  0.00  0.00     0.278 C 
BRANCH   5   6
HETATM    6  N           1     -29.401  -8.115 -17.389  0.00  0.00    -0.066 N 
HETATM    7  H           1     -30.265  -8.322 -16.840  0.00  0.00     0.275 HD
HETATM    8  H           1     -29.501  -8.500 -18.355  0.00  0.00     0.275 HD
HETATM    9  H           1     -28.577  -8.558 -16.921  0.00  0.00     0.275 HD
ENDBRANCH   5   6
BRANCH   5  10
HETATM   10  C           1     -28.508  -6.152 -16.189  0.00  0.00     0.017 C 
HETATM   11  C           1     -27.815  -7.328 -15.514  0.00  0.00     0.012 C 
HETATM   12  C           1     -29.544  -5.562 -15.241  0.00  0.00     0.012 C 
ENDBRANCH   5  10
ENDBRANCH   1   5
BRANCH   2  13
HETATM   13  C           1     -26.666  -6.924 -20.322  0.00  0.00     0.181 C 
HETATM   14  C           1     -25.267  -6.545 -19.851  0.00  0.00     0.043 C 
BRANCH  13  15
HETATM   15  C           1     -26.583  -8.126 -21.230  0.00  0.00     0.196 C 
HETATM   16  O           1     -27.604  -8.814 -21.450  0.00  0.00    -0.646 OA
HETATM   17  O           1     -25.495  -8.434 -21.763  0.00  0.00    -0.646 OA
ENDBRANCH  13  15
ENDBRANCH   2  13
TORSDOF 5
ENDMDL
MODEL 3
REMARK VINA RESULT:      -5.5      1.565      2.082
REMARK  5 active torsions:
REMARK  status: ('A' for Active; 'I' for Inactive)
REMARK    1  A    between atoms: N_2  and  C_10 
REMARK       I    between atoms: C_3  and  N_4 
REMARK    2  A    between atoms: C_3  and  C_10 
REMARK    3  A    between atoms: N_4  and  C_14 
REMARK    4  A    between atoms: C_8  and  C_10 
REMARK    5  A    between atoms: C_14  and  C_15 
ROOT
HETATM    1  C           1     -22.003  -4.206  -7.402  0.00  0.00     0.249 C 
HETATM    2  N           1     -22.620  -4.574  -8.567  0.00  0.00    -0.345 N 
HETATM    3  H           1     -23.030  -5.495  -8.654  0.00  0.00     0.163 HD
HETATM    4  O           1     -21.514  -3.107  -7.298  0.00  0.00    -0.271 OA
ENDROOT
BRANCH   1   5
HETATM    5  C           1     -21.934  -5.176  -6.247  0.00  0.00     0.278 C 
BRANCH   5   6
HETATM    6  N           1     -23.323  -5.568  -5.840  0.00  0.00    -0.066 N 
HETATM    7  H           1     -23.396  -6.610  -5.807  0.00  0.00     0.275 HD
HETATM    8  H           1     -23.534  -5.175  -4.895  0.00  0.00     0.275 HD
HETATM    9  H           1     -24.009  -5.194  -6.535  0.00  0.00     0.275 HD
ENDBRANCH   5   6
BRANCH   5  10
HETATM   10  C           1     -21.160  -6.417  -6.671  0.00  0.00     0.017 C 
HETATM   11  C           1     -21.269  -7.478  -5.583  0.00  0.00     0.012 C 
HETATM   12  C           1     -19.695  -6.055  -6.880  0.00  0.00     0.012 C 
ENDBRANCH   5  10
ENDBRANCH   1   5
BRANCH   2  13
HETATM   13  C           1     -22.687  -3.643  -9.677  0.00  0.00     0.181 C 
HETATM   14  C           1     -21.818  -4.152 -10.819  0.00  0.00     0.043 C 
BRANCH  13  15
HETATM   15  C           1     -24.116  -3.522 -10.146  0.00  0.00     0.196 C 
HETATM   16  O           1     -24.458  -4.018 -11.241  0.00  0.00    -0.646 OA
HETATM   17  O           1     -24.958  -2.927  -9.439  0.00  0.00    -0.646 OA
ENDBRANCH  13  15
ENDBRANCH   2  13
TORSDOF 5
ENDMDL
MODEL 4
REMARK VINA RESULT:      -5.3      2.260      5.118
REMARK  5 active torsions:
REMARK  status: ('A' for Active; 'I' for Inactive)
REMARK    1  A    between atoms: N_2  and  C_10 
REMARK       I    between atoms: C_3  and  N_4 
REMARK    2  A    between atoms: C_3  and  C_10 
REMARK    3  A    between atoms: N_4  and  C_14 
REMARK    4  A    between atoms: C_8  and  C_10 
REMARK    5  A    between atoms: C_14  and  C_15 
ROOT
HETATM    1  C           1     -21.380  -4.499  -8.633  0.00  0.00     0.249 C 
HETATM    2  N           1     -21.800  -4.796  -7.364  0.00  0.00    -0.345 N 
HETATM    3  H           1     -22.693  -4.453  -7.034  0.00  0.00     0.163 HD
HETATM    4  O           1     -20.314  -4.908  -9.027  0.00  0.00    -0.271 OA
ENDROOT
BRANCH   1   5
HETATM    5  C           1     -22.249  -3.660  -9.538  0.00  0.00     0.278 C 
BRANCH   5   6
HETATM    6  N           1     -21.542  -3.436 -10.842  0.00  0.00    -0.066 N 
HETATM    7  H           1     -21.272  -2.430 -10.923  0.00  0.00     0.275 HD
HETATM    8  H           1     -20.684  -4.031 -10.880  0.00  0.00     0.275 HD
HETATM    9  H           1     -22.178  -3.690 -11.631  0.00  0.00     0.275 HD
ENDBRANCH   5   6
BRANCH   5  10
HETATM   10  C           1     -23.565  -4.384  -9.793  0.00  0.00     0.017 C 
HETATM   11  C           1     -23.568  -4.945 -11.209  0.00  0.00     0.012 C 
HETATM   12  C           1     -24.721  -3.405  -9.633  0.00  0.00     0.012 C 
ENDBRANCH   5  10
ENDBRANCH   1   5
BRANCH   2  13
HETATM   13  C           1     -20.966  -5.601  -6.494  0.00  0.00     0.181 C 
HETATM   14  C           1     -20.163  -4.691  -5.575  0.00  0.00     0.043 C 
BRANCH  13  15
HETATM   15  C           1     -21.838  -6.512  -5.665  0.00  0.00     0.196 C 
HETATM   16  O           1     -21.553  -7.725  -5.561  0.00  0.00    -0.646 OA
HETATM   17  O           1     -22.844  -6.054  -5.082  0.00  0.00    -0.646 OA
ENDBRANCH  13  15
ENDBRANCH   2  13
TORSDOF 5
ENDMDL
MODEL 5
REMARK VINA RESULT:      -5.2     10.782     12.308
REMARK  5 active torsions:
REMARK  status: ('A' for Active; 'I' for Inactive)
REMARK    1  A    between atoms: N_2  and  C_10 
REMARK       I    between atoms: C_3  and  N_4 
REMARK    2  A    between atoms: C_3  and  C_10 
REMARK    3  A    between atoms: N_4  and  C_14 
REMARK    4  A    between atoms: C_8  and  C_10 
REMARK    5  A    between atoms: C_14  and  C_15 
ROOT
HETATM    1  C           1     -26.317  -6.334 -18.178  0.00  0.00     0.249 C 
HETATM    2  N           1     -27.543  -6.601 -18.725  0.00  0.00    -0.345 N 
HETATM    3  H           1     -27.608  -6.989 -19.658  0.00  0.00     0.163 HD
HETATM    4  O           1     -26.240  -5.871 -17.066  0.00  0.00    -0.271 OA
ENDROOT
BRANCH   1   5
HETATM    5  C           1     -25.061  -6.618 -18.967  0.00  0.00     0.278 C 
BRANCH   5   6
HETATM    6  N           1     -24.237  -7.640 -18.243  0.00  0.00    -0.066 N 
HETATM    7  H           1     -23.250  -7.597 -18.583  0.00  0.00     0.275 HD
HETATM    8  H           1     -24.260  -7.443 -17.217  0.00  0.00     0.275 HD
HETATM    9  H           1     -24.625  -8.593 -18.424  0.00  0.00     0.275 HD
ENDBRANCH   5   6
BRANCH   5  10
HETATM   10  C           1     -25.435  -7.151 -20.343  0.00  0.00     0.017 C 
HETATM   11  C           1     -24.377  -8.143 -20.807  0.00  0.00     0.012 C 
HETATM   12  C           1     -25.513  -5.994 -21.332  0.00  0.00     0.012 C 
ENDBRANCH   5  10
ENDBRANCH   1   5
BRANCH   2  13
HETATM   13  C           1     -28.749  -6.329 -17.968  0.00  0.00     0.181 C 
HETATM   14  C           1     -29.310  -4.974 -18.378  0.00  0.00     0.043 C 
BRANCH  13  15
HETATM   15  C           1     -29.771  -7.403 -18.249  0.00  0.00     0.196 C 
HETATM   16  O           1     -29.489  -8.349 -19.017  0.00  0.00    -0.646 OA
HETATM   17  O           1     -30.899  -7.348 -17.714  0.00  0.00    -0.646 OA
ENDBRANCH  13  15
ENDBRANCH   2  13
TORSDOF 5
ENDMDL
MODEL 6
REMARK VINA RESULT:      -5.0      3.379      4.670
REMARK  5 active torsions:
REMARK  status: ('A' for Active; 'I' for Inactive)
REMARK    1  A    between atoms: N_2  and  C_10 
REMARK       I    between atoms: C_3  and  N_4 
REMARK    2  A    between atoms: C_3  and  C_10 
REMARK    3  A    between atoms: N_4  and  C_14 
REMARK    4  A    between atoms: C_8  and  C_10 
REMARK    5  A    between atoms: C_14  and  C_15 
ROOT
HETATM    1  C           1     -21.724  -6.127  -4.399  0.00  0.00     0.249 C 
HETATM    2  N           1     -20.870  -5.428  -5.209  0.00  0.00    -0.345 N 
HETATM    3  H           1     -19.980  -5.108  -4.850  0.00  0.00     0.163 HD
HETATM    4  O           1     -22.786  -6.509  -4.828  0.00  0.00    -0.271 OA
ENDROOT
BRANCH   1   5
HETATM    5  C           1     -21.338  -6.419  -2.970  0.00  0.00     0.278 C 
BRANCH   5   6
HETATM    6  N           1     -22.295  -5.732  -2.043  0.00  0.00    -0.066 N 
HETATM    7  H           1     -22.474  -6.340  -1.212  0.00  0.00     0.275 HD
HETATM    8  H           1     -21.884  -4.824  -1.727  0.00  0.00     0.275 HD
HETATM    9  H           1     -23.196  -5.552  -2.542  0.00  0.00     0.275 HD
ENDBRANCH   5   6
BRANCH   5  10
HETATM   10  C           1     -21.387  -7.922  -2.726  0.00  0.00     0.017 C 
HETATM   11  C           1     -21.753  -8.188  -1.272  0.00  0.00     0.012 C 
HETATM   12  C           1     -20.022  -8.530  -3.025  0.00  0.00     0.012 C 
ENDBRANCH   5  10
ENDBRANCH   1   5
BRANCH   2  13
HETATM   13  C           1     -21.240  -5.147  -6.582  0.00  0.00     0.181 C 
HETATM   14  C           1     -21.318  -3.640  -6.789  0.00  0.00     0.043 C 
BRANCH  13  15
HETATM   15  C           1     -20.203  -5.730  -7.511  0.00  0.00     0.196 C 
HETATM   16  O           1     -19.543  -6.733  -7.160  0.00  0.00    -0.646 OA
HETATM   17  O           1     -20.004  -5.211  -8.631  0.00  0.00    -0.646 OA
ENDBRANCH  13  15
ENDBRANCH   2  13
TORSDOF 5
ENDMDL
MODEL 7
REMARK VINA RESULT:      -4.9      2.194      3.212
REMARK  5 active torsions:
REMARK  status: ('A' for Active; 'I' for Inactive)
REMARK    1  A    between atoms: N_2  and  C_10 
REMARK       I    between atoms: C_3  and  N_4 
REMARK    2  A    between atoms: C_3  and  C_10 
REMARK    3  A    between atoms: N_4  and  C_14 
REMARK    4  A    between atoms: C_8  and  C_10 
REMARK    5  A    between atoms: C_14  and  C_15 
ROOT
HETATM    1  C           1     -21.310  -5.663  -5.320  0.00  0.00     0.249 C 
HETATM    2  N           1     -21.792  -5.550  -6.596  0.00  0.00    -0.345 N 
HETATM    3  H           1     -22.517  -6.176  -6.922  0.00  0.00     0.163 HD
HETATM    4  O           1     -20.445  -4.915  -4.932  0.00  0.00    -0.271 OA
ENDROOT
BRANCH   1   5
HETATM    5  C           1     -21.862  -6.723  -4.397  0.00  0.00     0.278 C 
BRANCH   5   6
HETATM    6  N           1     -21.593  -8.079  -4.978  0.00  0.00    -0.066 N 
HETATM    7  H           1     -21.627  -8.025  -6.021  0.00  0.00     0.275 HD
HETATM    8  H           1     -20.647  -8.406  -4.677  0.00  0.00     0.275 HD
HETATM    9  H           1     -22.318  -8.752  -4.641  0.00  0.00     0.275 HD
ENDBRANCH   5   6
BRANCH   5  10
HETATM   10  C           1     -21.189  -6.612  -3.036  0.00  0.00     0.017 C 
HETATM   11  C           1     -20.626  -7.970  -2.636  0.00  0.00     0.012 C 
HETATM   12  C           1     -22.211  -6.163  -1.999  0.00  0.00     0.012 C 
ENDBRANCH   5  10
ENDBRANCH   1   5
BRANCH   2  13
HETATM   13  C           1     -21.263  -4.531  -7.483  0.00  0.00     0.181 C 
HETATM   14  C           1     -20.099  -5.107  -8.279  0.00  0.00     0.043 C 
BRANCH  13  15
HETATM   15  C           1     -22.346  -4.078  -8.430  0.00  0.00     0.196 C 
HETATM   16  O           1     -23.547  -4.166  -8.093  0.00  0.00    -0.646 OA
HETATM   17  O           1     -22.044  -3.615  -9.551  0.00  0.00    -0.646 OA
ENDBRANCH  13  15
ENDBRANCH   2  13
TORSDOF 5
ENDMDL
MODEL 8
REMARK VINA RESULT:      -4.9      9.535     11.540
REMARK  5 active torsions:
REMARK  status: ('A' for Active; 'I' for Inactive)
REMARK    1  A    between atoms: N_2  and  C_10 
REMARK       I    between atoms: C_3  and  N_4 
REMARK    2  A    between atoms: C_3  and  C_10 
REMARK    3  A    between atoms: N_4  and  C_14 
REMARK    4  A    between atoms: C_8  and  C_10 
REMARK    5  A    between atoms: C_14  and  C_15 
ROOT
HETATM    1  C           1     -28.128  -4.749 -16.858  0.00  0.00     0.249 C 
HETATM    2  N           1     -27.313  -5.755 -17.303  0.00  0.00    -0.345 N 
HETATM    3  H           1     -27.474  -6.174 -18.210  0.00  0.00     0.163 HD
HETATM    4  O           1     -27.936  -4.250 -15.776  0.00  0.00    -0.271 OA
ENDROOT
BRANCH   1   5
HETATM    5  C           1     -29.268  -4.266 -17.721  0.00  0.00     0.278 C 
BRANCH   5   6
HETATM    6  N           1     -29.238  -4.984 -19.037  0.00  0.00    -0.066 N 
HETATM    7  H           1     -30.174  -4.911 -19.496  0.00  0.00     0.275 HD
HETATM    8  H           1     -28.514  -4.551 -19.654  0.00  0.00     0.275 HD
HETATM    9  H           1     -29.006  -5.991 -18.880  0.00  0.00     0.275 HD
ENDBRANCH   5   6
BRANCH   5  10
HETATM   10  C           1     -30.591  -4.547 -17.020  0.00  0.00     0.017 C 
HETATM   11  C           1     -30.966  -6.010 -17.214  0.00  0.00     0.012 C 
HETATM   12  C           1     -31.679  -3.662 -17.615  0.00  0.00     0.012 C 
ENDBRANCH   5  10
ENDBRANCH   1   5
BRANCH   2  13
HETATM   13  C           1     -26.217  -6.220 -16.475  0.00  0.00     0.181 C 
HETATM   14  C           1     -26.724  -7.290 -15.517  0.00  0.00     0.043 C 
BRANCH  13  15
HETATM   15  C           1     -25.136  -6.800 -17.353  0.00  0.00     0.196 C 
HETATM   16  O           1     -24.271  -7.558 -16.861  0.00  0.00    -0.646 OA
HETATM   17  O           1     -25.104  -6.524 -18.571  0.00  0.00    -0.646 OA
ENDBRANCH  13  15
ENDBRANCH   2  13
TORSDOF 5
ENDMDL
MODEL 9
REMARK VINA RESULT:      -4.9      2.714      5.769
REMARK  5 active torsions:
REMARK  status: ('A' for Active; 'I' for Inactive)
REMARK    1  A    between atoms: N_2  and  C_10 
REMARK       I    between atoms: C_3  and  N_4 
REMARK    2  A    between atoms: C_3  and  C_10 
REMARK    3  A    between atoms: N_4  and  C_14 
REMARK    4  A    between atoms: C_8  and  C_10 
REMARK    5  A    between atoms: C_14  and  C_15 
ROOT
HETATM    1  C           1     -21.839  -5.361  -6.195  0.00  0.00     0.249 C 
HETATM    2  N           1     -21.146  -6.318  -5.503  0.00  0.00    -0.345 N 
HETATM    3  H           1     -20.140  -6.382  -5.597  0.00  0.00     0.163 HD
HETATM    4  O           1     -23.039  -5.286  -6.083  0.00  0.00    -0.271 OA
ENDROOT
BRANCH   1   5
HETATM    5  C           1     -21.102  -4.401  -7.097  0.00  0.00     0.278 C 
BRANCH   5   6
HETATM    6  N           1     -19.626  -4.541  -6.876  0.00  0.00    -0.066 N 
HETATM    7  H           1     -19.369  -5.553  -6.863  0.00  0.00     0.275 HD
HETATM    8  H           1     -19.111  -4.062  -7.649  0.00  0.00     0.275 HD
HETATM    9  H           1     -19.367  -4.105  -5.962  0.00  0.00     0.275 HD
ENDBRANCH   5   6
BRANCH   5  10
HETATM   10  C           1     -21.430  -4.716  -8.550  0.00  0.00     0.017 C 
HETATM   11  C           1     -20.156  -4.647  -9.383  0.00  0.00     0.012 C 
HETATM   12  C           1     -22.435  -3.700  -9.077  0.00  0.00     0.012 C 
ENDBRANCH   5  10
ENDBRANCH   1   5
BRANCH   2  13
HETATM   13  C           1     -21.852  -7.241  -4.637  0.00  0.00     0.181 C 
HETATM   14  C           1     -21.305  -8.648  -4.839  0.00  0.00     0.043 C 
BRANCH  13  15
HETATM   15  C           1     -21.659  -6.827  -3.199  0.00  0.00     0.196 C 
HETATM   16  O           1     -22.388  -5.943  -2.699  0.00  0.00    -0.646 OA
HETATM   17  O           1     -20.769  -7.367  -2.507  0.00  0.00    -0.646 OA
ENDBRANCH  13  15
ENDBRANCH   2  13
TORSDOF 5
ENDMDL
