MODEL 1
REMARK VINA RESULT:      -7.1      0.000      0.000
REMARK  10 active torsions:
REMARK  status: ('A' for Active; 'I' for Inactive)
REMARK    1  A    between atoms: N_1  and  C_17 
REMARK    2  A    between atoms: C_6  and  C_8 
REMARK    3  A    between atoms: C_6  and  C_7 
REMARK    4  A    between atoms: C_7  and  C_13 
REMARK    5  A    between atoms: C_8  and  N_25 
REMARK    6  A    between atoms: N_11  and  C_13 
REMARK       I    between atoms: N_11  and  C_19 
REMARK    7  A    between atoms: C_12  and  C_18 
REMARK    8  A    between atoms: C_13  and  C_14 
REMARK    9  A    between atoms: C_17  and  C_19 
REMARK   10  A    between atoms: C_17  and  C_18 
ROOT
HETATM    1  H           1     -32.355  -3.856 -14.094  0.00  0.00     0.163 HD
HETATM    2  N           1     -33.332  -4.084 -14.220  0.00  0.00    -0.345 N 
HETATM    3  C           1     -33.795  -4.454 -15.454  0.00  0.00     0.249 C 
HETATM    4  O           1     -34.963  -4.726 -15.606  0.00  0.00    -0.271 OA
ENDROOT
BRANCH   3   5
HETATM    5  C           1     -32.847  -4.523 -16.627  0.00  0.00     0.278 C 
BRANCH   5   6
HETATM    6  N           1     -33.011  -3.295 -17.474  0.00  0.00    -0.066 N 
HETATM    7  H           1     -32.918  -3.553 -18.482  0.00  0.00     0.275 HD
HETATM    8  H           1     -33.956  -2.881 -17.306  0.00  0.00     0.275 HD
HETATM    9  H           1     -32.274  -2.599 -17.223  0.00  0.00     0.275 HD
ENDBRANCH   5   6
BRANCH   5  10
HETATM   10  C           1     -31.414  -4.600 -16.119  0.00  0.00     0.081 C 
BRANCH  10  11
HETATM   11  C           1     -30.595  -5.431 -17.059  0.00  0.00    -0.056 A 
HETATM   12  C           1     -30.985  -6.737 -17.354  0.00  0.00     0.007 A 
HETATM   13  C           1     -30.223  -7.511 -18.228  0.00  0.00     0.001 A 
HETATM   14  C           1     -29.070  -6.980 -18.806  0.00  0.00     0.000 A 
HETATM   15  C           1     -28.680  -5.673 -18.511  0.00  0.00     0.001 A 
HETATM   16  C           1     -29.443  -4.899 -17.636  0.00  0.00     0.007 A 
ENDBRANCH  10  11
ENDBRANCH   5  10
ENDBRANCH   3   5
BRANCH   2  17
HETATM   17  C           1     -34.243  -4.018 -13.095  0.00  0.00     0.185 C 
BRANCH  17  18
HETATM   18  C           1     -33.601  -4.679 -11.881  0.00  0.00     0.038 C 
BRANCH  18  19
HETATM   19  C           1     -34.652  -5.481 -11.125  0.00  0.00     0.030 C 
BRANCH  19  20
HETATM   20  C           1     -34.003  -6.714 -10.508  0.00  0.00     0.230 C 
BRANCH  20  21
HETATM   21  N           1     -34.833  -7.924 -10.817  0.00  0.00    -0.079 N 
HETATM   22  H           1     -34.773  -8.136 -11.838  0.00  0.00     0.274 HD
HETATM   23  H           1     -34.477  -8.740 -10.270  0.00  0.00     0.274 HD
HETATM   24  H           1     -35.828  -7.738 -10.557  0.00  0.00     0.274 HD
ENDBRANCH  20  21
ENDBRANCH  19  20
ENDBRANCH  18  19
ENDBRANCH  17  18
BRANCH  17  25
HETATM   25  C           1     -34.548  -2.575 -12.778  0.00  0.00     0.196 C 
HETATM   26  O           1     -34.261  -2.107 -11.654  0.00  0.00    -0.646 OA
HETATM   27  O           1     -35.089  -1.847 -13.638  0.00  0.00    -0.646 OA
ENDBRANCH  17  25
ENDBRANCH   2  17
TORSDOF 10
ENDMDL
MODEL 2
REMARK VINA RESULT:      -7.0     13.957     15.067
REMARK  10 active torsions:
REMARK  status: ('A' for Active; 'I' for Inactive)
REMARK    1  A    between atoms: N_1  and  C_17 
REMARK    2  A    between atoms: C_6  and  C_8 
REMARK    3  A    between atoms: C_6  and  C_7 
REMARK    4  A    between atoms: C_7  and  C_13 
REMARK    5  A    between atoms: C_8  and  N_25 
REMARK    6  A    between atoms: N_11  and  C_13 
REMARK       I    between atoms: N_11  and  C_19 
REMARK    7  A    between atoms: C_12  and  C_18 
REMARK    8  A    between atoms: C_13  and  C_14 
REMARK    9  A    between atoms: C_17  and  C_19 
REMARK   10  A    between atoms: C_17  and  C_18 
ROOT
HETATM    1  H           1     -21.756  -7.892  -6.056  0.00  0.00     0.163 HD
HETATM    2  N           1     -21.254  -7.280  -5.425  0.00  0.00    -0.345 N 
HETATM    3  C           1     -21.333  -5.923  -5.582  0.00  0.00     0.249 C 
HETATM    4  O           1     -20.734  -5.192  -4.829  0.00  0.00    -0.271 OA
ENDROOT
BRANCH   3   5
HETATM    5  C           1     -22.168  -5.338  -6.695  0.00  0.00     0.278 C 
BRANCH   5   6
HETATM    6  N           1     -23.542  -5.030  -6.179  0.00  0.00    -0.066 N 
HETATM    7  H           1     -24.224  -5.050  -6.970  0.00  0.00     0.275 HD
HETATM    8  H           1     -23.815  -5.744  -5.466  0.00  0.00     0.275 HD
HETATM    9  H           1     -23.545  -4.081  -5.742  0.00  0.00     0.275 HD
ENDBRANCH   5   6
BRANCH   5  10
HETATM   10  C           1     -21.517  -4.058  -7.201  0.00  0.00     0.081 C 
BRANCH  10  11
HETATM   11  C           1     -21.476  -4.075  -8.698  0.00  0.00    -0.056 A 
HETATM   12  C           1     -22.629  -3.797  -9.429  0.00  0.00     0.007 A 
HETATM   13  C           1     -22.591  -3.813 -10.823  0.00  0.00     0.001 A 
HETATM   14  C           1     -21.400  -4.109 -11.485  0.00  0.00     0.000 A 
HETATM   15  C           1     -20.246  -4.387 -10.753  0.00  0.00     0.001 A 
HETATM   16  C           1     -20.284  -4.371  -9.359  0.00  0.00     0.007 A 
ENDBRANCH  10  11
ENDBRANCH   5  10
ENDBRANCH   3   5
BRANCH   2  17
HETATM   17  C           1     -20.453  -7.841  -4.355  0.00  0.00     0.185 C 
BRANCH  17  18
HETATM   18  C           1     -21.367  -8.360  -3.252  0.00  0.00     0.038 C 
BRANCH  18  19
HETATM   19  C           1     -20.928  -7.779  -1.915  0.00  0.00     0.030 C 
BRANCH  19  20
HETATM   20  C           1     -22.077  -6.988  -1.302  0.00  0.00     0.230 C 
BRANCH  20  21
HETATM   21  N           1     -22.365  -5.785  -2.150  0.00  0.00    -0.079 N 
HETATM   22  H           1     -21.549  -5.133  -2.118  0.00  0.00     0.274 HD
HETATM   23  H           1     -22.531  -6.086  -3.137  0.00  0.00     0.274 HD
HETATM   24  H           1     -23.215  -5.299  -1.787  0.00  0.00     0.274 HD
ENDBRANCH  20  21
ENDBRANCH  19  20
ENDBRANCH  18  19
ENDBRANCH  17  18
BRANCH  17  25
HETATM   25  C           1     -19.622  -8.979  -4.894  0.00  0.00     0.196 C 
HETATM   26  O           1     -18.932  -8.817  -5.925  0.00  0.00    -0.646 OA
HETATM   27  O           1     -19.622 -10.085  -4.310  0.00  0.00    -0.646 OA
ENDBRANCH  17  25
ENDBRANCH   2  17
TORSDOF 10
ENDMDL
MODEL 3
REMARK VINA RESULT:      -6.9     13.791     14.891
REMARK  10 active torsions:
REMARK  status: ('A' for Active; 'I' for Inactive)
REMARK    1  A    between atoms: N_1  and  C_17 
REMARK    2  A    between atoms: C_6  and  C_8 
REMARK    3  A    between atoms: C_6  and  C_7 
REMARK    4  A    between atoms: C_7  and  C_13 
REMARK    5  A    between atoms: C_8  and  N_25 
REMARK    6  A    between atoms: N_11  and  C_13 
REMARK       I    between atoms: N_11  and  C_19 
REMARK    7  A    between atoms: C_12  and  C_18 
REMARK    8  A    between atoms: C_13  and  C_14 
REMARK    9  A    between atoms: C_17  and  C_19 
REMARK   10  A    between atoms: C_17  and  C_18 
ROOT
HETATM    1  H           1     -23.141  -6.434  -4.545  0.00  0.00     0.163 HD
HETATM    2  N           1     -22.149  -6.255  -4.461  0.00  0.00    -0.345 N 
HETATM    3  C           1     -21.482  -5.615  -5.471  0.00  0.00     0.249 C 
HETATM    4  O           1     -20.296  -5.401  -5.371  0.00  0.00    -0.271 OA
ENDROOT
BRANCH   3   5
HETATM    5  C           1     -22.226  -5.175  -6.708  0.00  0.00     0.278 C 
BRANCH   5   6
HETATM    6  N           1     -23.661  -4.910  -6.359  0.00  0.00    -0.066 N 
HETATM    7  H           1     -24.168  -5.818  -6.254  0.00  0.00     0.275 HD
HETATM    8  H           1     -23.709  -4.378  -5.461  0.00  0.00     0.275 HD
HETATM    9  H           1     -24.106  -4.350  -7.121  0.00  0.00     0.275 HD
ENDBRANCH   5   6
BRANCH   5  10
HETATM   10  C           1     -21.594  -3.904  -7.257  0.00  0.00     0.081 C 
BRANCH  10  11
HETATM   11  C           1     -21.505  -3.994  -8.750  0.00  0.00    -0.056 A 
HETATM   12  C           1     -22.631  -3.738  -9.531  0.00  0.00     0.007 A 
HETATM   13  C           1     -22.549  -3.822 -10.920  0.00  0.00     0.001 A 
HETATM   14  C           1     -21.341  -4.163 -11.528  0.00  0.00     0.000 A 
HETATM   15  C           1     -20.214  -4.418 -10.746  0.00  0.00     0.001 A 
HETATM   16  C           1     -20.297  -4.335  -9.357  0.00  0.00     0.007 A 
ENDBRANCH  10  11
ENDBRANCH   5  10
ENDBRANCH   3   5
BRANCH   2  17
HETATM   17  C           1     -21.434  -6.677  -3.273  0.00  0.00     0.185 C 
BRANCH  17  18
HETATM   18  C           1     -22.333  -6.516  -2.054  0.00  0.00     0.038 C 
BRANCH  18  19
HETATM   19  C           1     -21.680  -7.185  -0.851  0.00  0.00     0.030 C 
BRANCH  19  20
HETATM   20  C           1     -22.742  -7.917  -0.039  0.00  0.00     0.230 C 
BRANCH  20  21
HETATM   21  N           1     -22.826  -9.343  -0.496  0.00  0.00    -0.079 N 
HETATM   22  H           1     -21.976  -9.862  -0.178  0.00  0.00     0.274 HD
HETATM   23  H           1     -23.679  -9.790  -0.089  0.00  0.00     0.274 HD
HETATM   24  H           1     -22.882  -9.372  -1.539  0.00  0.00     0.274 HD
ENDBRANCH  20  21
ENDBRANCH  19  20
ENDBRANCH  18  19
ENDBRANCH  17  18
BRANCH  17  25
HETATM   25  C           1     -21.034  -8.125  -3.414  0.00  0.00     0.196 C 
HETATM   26  O           1     -21.912  -9.008  -3.524  0.00  0.00    -0.646 OA
HETATM   27  O           1     -19.824  -8.442  -3.420  0.00  0.00    -0.646 OA
ENDBRANCH  17  25
ENDBRANCH   2  17
TORSDOF 10
ENDMDL
MODEL 4
REMARK VINA RESULT:      -6.5     14.207     15.305
REMARK  10 active torsions:
REMARK  status: ('A' for Active; 'I' for Inactive)
REMARK    1  A    between atoms: N_1  and  C_17 
REMARK    2  A    between atoms: C_6  and  C_8 
REMARK    3  A    between atoms: C_6  and  C_7 
REMARK    4  A    between atoms: C_7  and  C_13 
REMARK    5  A    between atoms: C_8  and  N_25 
REMARK    6  A    between atoms: N_11  and  C_13 
REMARK       I    between atoms: N_11  and  C_19 
REMARK    7  A    between atoms: C_12  and  C_18 
REMARK    8  A    between atoms: C_13  and  C_14 
REMARK    9  A    between atoms: C_17  and  C_19 
REMARK   10  A    between atoms: C_17  and  C_18 
ROOT
HETATM    1  H           1     -19.980  -6.631  -4.580  0.00  0.00     0.163 HD
HETATM    2  N           1     -20.991  -6.679  -4.580  0.00  0.00    -0.345 N 
HETATM    3  C           1     -21.713  -5.900  -5.444  0.00  0.00     0.249 C 
HETATM    4  O           1     -22.920  -5.957  -5.444  0.00  0.00    -0.271 OA
ENDROOT
BRANCH   3   5
HETATM    5  C           1     -21.002  -4.970  -6.396  0.00  0.00     0.278 C 
BRANCH   5   6
HETATM    6  N           1     -19.731  -4.483  -5.763  0.00  0.00    -0.066 N 
HETATM    7  H           1     -19.682  -4.821  -4.775  0.00  0.00     0.275 HD
HETATM    8  H           1     -18.913  -4.851  -6.298  0.00  0.00     0.275 HD
HETATM    9  H           1     -19.715  -3.439  -5.774  0.00  0.00     0.275 HD
ENDBRANCH   5   6
BRANCH   5  10
HETATM   10  C           1     -20.675  -5.712  -7.684  0.00  0.00     0.081 C 
BRANCH  10  11
HETATM   11  C           1     -21.076  -4.874  -8.859  0.00  0.00    -0.056 A 
HETATM   12  C           1     -20.159  -4.617  -9.877  0.00  0.00     0.007 A 
HETATM   13  C           1     -20.532  -3.836 -10.971  0.00  0.00     0.001 A 
HETATM   14  C           1     -21.823  -3.313 -11.046  0.00  0.00     0.000 A 
HETATM   15  C           1     -22.741  -3.571 -10.028  0.00  0.00     0.001 A 
HETATM   16  C           1     -22.367  -4.351  -8.934  0.00  0.00     0.007 A 
ENDBRANCH  10  11
ENDBRANCH   5  10
ENDBRANCH   3   5
BRANCH   2  17
HETATM   17  C           1     -21.674  -7.573  -3.666  0.00  0.00     0.185 C 
BRANCH  17  18
HETATM   18  C           1     -20.978  -8.928  -3.663  0.00  0.00     0.038 C 
BRANCH  18  19
HETATM   19  C           1     -19.700  -8.844  -4.488  0.00  0.00     0.030 C 
BRANCH  19  20
HETATM   20  C           1     -18.518  -9.295  -3.640  0.00  0.00     0.230 C 
BRANCH  20  21
HETATM   21  N           1     -19.002  -9.694  -2.277  0.00  0.00    -0.079 N 
HETATM   22  H           1     -18.210  -9.645  -1.598  0.00  0.00     0.274 HD
HETATM   23  H           1     -19.762  -9.043  -1.974  0.00  0.00     0.274 HD
HETATM   24  H           1     -19.373 -10.670  -2.312  0.00  0.00     0.274 HD
ENDBRANCH  20  21
ENDBRANCH  19  20
ENDBRANCH  18  19
ENDBRANCH  17  18
BRANCH  17  25
HETATM   25  C           1     -21.643  -6.990  -2.275  0.00  0.00     0.196 C 
HETATM   26  O           1     -21.002  -7.566  -1.369  0.00  0.00    -0.646 OA
HETATM   27  O           1     -22.260  -5.931  -2.027  0.00  0.00    -0.646 OA
ENDBRANCH  17  25
ENDBRANCH   2  17
TORSDOF 10
ENDMDL
MODEL 5
REMARK VINA RESULT:      -6.2     14.760     15.893
REMARK  10 active torsions:
REMARK  status: ('A' for Active; 'I' for Inactive)
REMARK    1  A    between atoms: N_1  and  C_17 
REMARK    2  A    between atoms: C_6  and  C_8 
REMARK    3  A    between atoms: C_6  and  C_7 
REMARK    4  A    between atoms: C_7  and  C_13 
REMARK    5  A    between atoms: C_8  and  N_25 
REMARK    6  A    between atoms: N_11  and  C_13 
REMARK       I    between atoms: N_11  and  C_19 
REMARK    7  A    between atoms: C_12  and  C_18 
REMARK    8  A    between atoms: C_13  and  C_14 
REMARK    9  A    between atoms: C_17  and  C_19 
REMARK   10  A    between atoms: C_17  and  C_18 
ROOT
HETATM    1  H           1     -21.368  -7.881  -3.989  0.00  0.00     0.163 HD
HETATM    2  N           1     -20.560  -7.964  -4.593  0.00  0.00    -0.345 N 
HETATM    3  C           1     -20.432  -7.147  -5.683  0.00  0.00     0.249 C 
HETATM    4  O           1     -19.467  -7.247  -6.404  0.00  0.00    -0.271 OA
ENDROOT
BRANCH   3   5
HETATM    5  C           1     -21.497  -6.121  -5.987  0.00  0.00     0.278 C 
BRANCH   5   6
HETATM    6  N           1     -22.369  -5.934  -4.780  0.00  0.00    -0.066 N 
HETATM    7  H           1     -21.829  -5.441  -4.034  0.00  0.00     0.275 HD
HETATM    8  H           1     -23.205  -5.365  -5.040  0.00  0.00     0.275 HD
HETATM    9  H           1     -22.677  -6.868  -4.427  0.00  0.00     0.275 HD
ENDBRANCH   5   6
BRANCH   5  10
HETATM   10  C           1     -20.839  -4.797  -6.348  0.00  0.00     0.081 C 
BRANCH  10  11
HETATM   11  C           1     -21.155  -4.453  -7.771  0.00  0.00    -0.056 A 
HETATM   12  C           1     -22.445  -4.061  -8.123  0.00  0.00     0.007 A 
HETATM   13  C           1     -22.740  -3.741  -9.448  0.00  0.00     0.001 A 
HETATM   14  C           1     -21.743  -3.814 -10.421  0.00  0.00     0.000 A 
HETATM   15  C           1     -20.452  -4.207 -10.069  0.00  0.00     0.001 A 
HETATM   16  C           1     -20.157  -4.527  -8.744  0.00  0.00     0.007 A 
ENDBRANCH  10  11
ENDBRANCH   5  10
ENDBRANCH   3   5
BRANCH   2  17
HETATM   17  C           1     -19.537  -8.949  -4.302  0.00  0.00     0.185 C 
BRANCH  17  18
HETATM   18  C           1     -19.334  -9.042  -2.794  0.00  0.00     0.038 C 
BRANCH  18  19
HETATM   19  C           1     -20.373  -8.181  -2.088  0.00  0.00     0.030 C 
BRANCH  19  20
HETATM   20  C           1     -21.231  -9.058  -1.185  0.00  0.00     0.230 C 
BRANCH  20  21
HETATM   21  N           1     -20.631 -10.430  -1.104  0.00  0.00    -0.079 N 
HETATM   22  H           1     -20.216 -10.684  -2.029  0.00  0.00     0.274 HD
HETATM   23  H           1     -19.885 -10.442  -0.372  0.00  0.00     0.274 HD
HETATM   24  H           1     -21.374 -11.120  -0.854  0.00  0.00     0.274 HD
ENDBRANCH  20  21
ENDBRANCH  19  20
ENDBRANCH  18  19
ENDBRANCH  17  18
BRANCH  17  25
HETATM   25  C           1     -19.967 -10.294  -4.833  0.00  0.00     0.196 C 
HETATM   26  O           1     -20.574 -11.095  -4.090  0.00  0.00    -0.646 OA
HETATM   27  O           1     -19.717 -10.607  -6.017  0.00  0.00    -0.646 OA
ENDBRANCH  17  25
ENDBRANCH   2  17
TORSDOF 10
ENDMDL
MODEL 6
REMARK VINA RESULT:      -5.9     17.264     19.312
REMARK  10 active torsions:
REMARK  status: ('A' for Active; 'I' for Inactive)
REMARK    1  A    between atoms: N_1  and  C_17 
REMARK    2  A    between atoms: C_6  and  C_8 
REMARK    3  A    between atoms: C_6  and  C_7 
REMARK    4  A    between atoms: C_7  and  C_13 
REMARK    5  A    between atoms: C_8  and  N_25 
REMARK    6  A    between atoms: N_11  and  C_13 
REMARK       I    between atoms: N_11  and  C_19 
REMARK    7  A    between atoms: C_12  and  C_18 
REMARK    8  A    between atoms: C_13  and  C_14 
REMARK    9  A    between atoms: C_17  and  C_19 
REMARK   10  A    between atoms: C_17  and  C_18 
ROOT
HETATM    1  H           1     -18.518 -10.050  -3.730  0.00  0.00     0.163 HD
HETATM    2  N           1     -18.491  -9.546  -4.607  0.00  0.00    -0.345 N 
HETATM    3  C           1     -19.441  -8.599  -4.881  0.00  0.00     0.249 C 
HETATM    4  O           1     -19.409  -7.996  -5.928  0.00  0.00    -0.271 OA
ENDROOT
BRANCH   3   5
HETATM    5  C           1     -20.528  -8.306  -3.876  0.00  0.00     0.278 C 
BRANCH   5   6
HETATM    6  N           1     -21.858  -8.288  -4.570  0.00  0.00    -0.066 N 
HETATM    7  H           1     -21.818  -7.633  -5.383  0.00  0.00     0.275 HD
HETATM    8  H           1     -22.087  -9.250  -4.908  0.00  0.00     0.275 HD
HETATM    9  H           1     -22.594  -7.968  -3.901  0.00  0.00     0.275 HD
ENDBRANCH   5   6
BRANCH   5  10
HETATM   10  C           1     -20.531  -9.384  -2.801  0.00  0.00     0.081 C 
BRANCH  10  11
HETATM   11  C           1     -21.448  -8.979  -1.689  0.00  0.00    -0.056 A 
HETATM   12  C           1     -22.297  -9.921  -1.107  0.00  0.00     0.007 A 
HETATM   13  C           1     -23.151  -9.543  -0.072  0.00  0.00     0.001 A 
HETATM   14  C           1     -23.157  -8.225   0.382  0.00  0.00     0.000 A 
HETATM   15  C           1     -22.308  -7.283  -0.200  0.00  0.00     0.001 A 
HETATM   16  C           1     -21.454  -7.660  -1.235  0.00  0.00     0.007 A 
ENDBRANCH  10  11
ENDBRANCH   5  10
ENDBRANCH   3   5
BRANCH   2  17
HETATM   17  C           1     -17.447  -9.825  -5.573  0.00  0.00     0.185 C 
BRANCH  17  18
HETATM   18  C           1     -16.100  -9.886  -4.863  0.00  0.00     0.038 C 
BRANCH  18  19
HETATM   19  C           1     -16.304  -9.678  -3.368  0.00  0.00     0.030 C 
BRANCH  19  20
HETATM   20  C           1     -15.685 -10.842  -2.605  0.00  0.00     0.230 C 
BRANCH  20  21
HETATM   21  N           1     -15.049 -11.794  -3.573  0.00  0.00    -0.079 N 
HETATM   22  H           1     -14.727 -11.270  -4.417  0.00  0.00     0.274 HD
HETATM   23  H           1     -14.231 -12.259  -3.118  0.00  0.00     0.274 HD
HETATM   24  H           1     -15.746 -12.518  -3.857  0.00  0.00     0.274 HD
ENDBRANCH  20  21
ENDBRANCH  19  20
ENDBRANCH  18  19
ENDBRANCH  17  18
BRANCH  17  25
HETATM   25  C           1     -17.722 -11.150  -6.241  0.00  0.00     0.196 C 
HETATM   26  O           1     -18.654 -11.251  -7.069  0.00  0.00    -0.646 OA
HETATM   27  O           1     -17.020 -12.147  -5.967  0.00  0.00    -0.646 OA
ENDBRANCH  17  25
ENDBRANCH   2  17
TORSDOF 10
ENDMDL
MODEL 7
REMARK VINA RESULT:      -5.8     15.715     16.938
REMARK  10 active torsions:
REMARK  status: ('A' for Active; 'I' for Inactive)
REMARK    1  A    between atoms: N_1  and  C_17 
REMARK    2  A    between atoms: C_6  and  C_8 
REMARK    3  A    between atoms: C_6  and  C_7 
REMARK    4  A    between atoms: C_7  and  C_13 
REMARK    5  A    between atoms: C_8  and  N_25 
REMARK    6  A    between atoms: N_11  and  C_13 
REMARK       I    between atoms: N_11  and  C_19 
REMARK    7  A    between atoms: C_12  and  C_18 
REMARK    8  A    between atoms: C_13  and  C_14 
REMARK    9  A    between atoms: C_17  and  C_19 
REMARK   10  A    between atoms: C_17  and  C_18 
ROOT
HETATM    1  H           1     -20.575  -7.707  -2.856  0.00  0.00     0.163 HD
HETATM    2  N           1     -20.442  -8.213  -3.723  0.00  0.00    -0.345 N 
HETATM    3  C           1     -20.917  -7.695  -4.897  0.00  0.00     0.249 C 
HETATM    4  O           1     -20.759  -8.298  -5.932  0.00  0.00    -0.271 OA
ENDROOT
BRANCH   3   5
HETATM    5  C           1     -21.640  -6.370  -4.901  0.00  0.00     0.278 C 
BRANCH   5   6
HETATM    6  N           1     -22.192  -6.098  -3.532  0.00  0.00    -0.066 N 
HETATM    7  H           1     -21.517  -6.438  -2.811  0.00  0.00     0.275 HD
HETATM    8  H           1     -22.340  -5.071  -3.414  0.00  0.00     0.275 HD
HETATM    9  H           1     -23.103  -6.598  -3.419  0.00  0.00     0.275 HD
ENDBRANCH   5   6
BRANCH   5  10
HETATM   10  C           1     -20.670  -5.262  -5.285  0.00  0.00     0.081 C 
BRANCH  10  11
HETATM   11  C           1     -20.888  -4.881  -6.718  0.00  0.00    -0.056 A 
HETATM   12  C           1     -22.159  -4.510  -7.154  0.00  0.00     0.007 A 
HETATM   13  C           1     -22.363  -4.155  -8.487  0.00  0.00     0.001 A 
HETATM   14  C           1     -21.295  -4.174  -9.384  0.00  0.00     0.000 A 
HETATM   15  C           1     -20.023  -4.545  -8.947  0.00  0.00     0.001 A 
HETATM   16  C           1     -19.820  -4.900  -7.614  0.00  0.00     0.007 A 
ENDBRANCH  10  11
ENDBRANCH   5  10
ENDBRANCH   3   5
BRANCH   2  17
HETATM   17  C           1     -19.747  -9.485  -3.720  0.00  0.00     0.185 C 
BRANCH  17  18
HETATM   18  C           1     -18.501  -9.383  -2.850  0.00  0.00     0.038 C 
BRANCH  18  19
HETATM   19  C           1     -17.267  -9.669  -3.695  0.00  0.00     0.030 C 
BRANCH  19  20
HETATM   20  C           1     -16.021  -9.575  -2.823  0.00  0.00     0.230 C 
BRANCH  20  21
HETATM   21  N           1     -15.531 -10.956  -2.500  0.00  0.00    -0.079 N 
HETATM   22  H           1     -16.257 -11.656  -2.771  0.00  0.00     0.274 HD
HETATM   23  H           1     -14.650 -11.145  -3.028  0.00  0.00     0.274 HD
HETATM   24  H           1     -15.344 -11.026  -1.474  0.00  0.00     0.274 HD
ENDBRANCH  20  21
ENDBRANCH  19  20
ENDBRANCH  18  19
ENDBRANCH  17  18
BRANCH  17  25
HETATM   25  C           1     -20.658 -10.554  -3.169  0.00  0.00     0.196 C 
HETATM   26  O           1     -20.822 -11.622  -3.799  0.00  0.00    -0.646 OA
HETATM   27  O           1     -21.251 -10.372  -2.084  0.00  0.00    -0.646 OA
ENDBRANCH  17  25
ENDBRANCH   2  17
TORSDOF 10
ENDMDL
MODEL 8
REMARK VINA RESULT:      -5.8      2.938      6.793
REMARK  10 active torsions:
REMARK  status: ('A' for Active; 'I' for Inactive)
REMARK    1  A    between atoms: N_1  and  C_17 
REMARK    2  A    between atoms: C_6  and  C_8 
REMARK    3  A    between atoms: C_6  and  C_7 
REMARK    4  A    between atoms: C_7  and  C_13 
REMARK    5  A    between atoms: C_8  and  N_25 
REMARK    6  A    between atoms: N_11  and  C_13 
REMARK       I    between atoms: N_11  and  C_19 
REMARK    7  A    between atoms: C_12  and  C_18 
REMARK    8  A    between atoms: C_13  and  C_14 
REMARK    9  A    between atoms: C_17  and  C_19 
REMARK   10  A    between atoms: C_17  and  C_18 
ROOT
HETATM    1  H           1     -32.094  -5.185 -15.265  0.00  0.00     0.163 HD
HETATM    2  N           1     -31.891  -4.794 -16.176  0.00  0.00    -0.345 N 
HETATM    3  C           1     -32.639  -3.753 -16.656  0.00  0.00     0.249 C 
HETATM    4  O           1     -32.397  -3.285 -17.744  0.00  0.00    -0.271 OA
ENDROOT
BRANCH   3   5
HETATM    5  C           1     -33.766  -3.187 -15.826  0.00  0.00     0.278 C 
BRANCH   5   6
HETATM    6  N           1     -34.920  -2.841 -16.721  0.00  0.00    -0.066 N 
HETATM    7  H           1     -35.747  -2.582 -16.138  0.00  0.00     0.275 HD
HETATM    8  H           1     -34.657  -2.036 -17.332  0.00  0.00     0.275 HD
HETATM    9  H           1     -35.158  -3.667 -17.315  0.00  0.00     0.275 HD
ENDBRANCH   5   6
BRANCH   5  10
HETATM   10  C           1     -34.211  -4.220 -14.800  0.00  0.00     0.081 C 
BRANCH  10  11
HETATM   11  C           1     -34.043  -3.660 -13.421  0.00  0.00    -0.056 A 
HETATM   12  C           1     -34.738  -2.511 -13.047  0.00  0.00     0.007 A 
HETATM   13  C           1     -34.582  -1.989 -11.763  0.00  0.00     0.001 A 
HETATM   14  C           1     -33.730  -2.617 -10.854  0.00  0.00     0.000 A 
HETATM   15  C           1     -33.035  -3.767 -11.229  0.00  0.00     0.001 A 
HETATM   16  C           1     -33.191  -4.288 -12.513  0.00  0.00     0.007 A 
ENDBRANCH  10  11
ENDBRANCH   5  10
ENDBRANCH   3   5
BRANCH   2  17
HETATM   17  C           1     -30.809  -5.336 -16.973  0.00  0.00     0.185 C 
BRANCH  17  18
HETATM   18  C           1     -29.530  -5.362 -16.145  0.00  0.00     0.038 C 
BRANCH  18  19
HETATM   19  C           1     -28.393  -4.744 -16.949  0.00  0.00     0.030 C 
BRANCH  19  20
HETATM   20  C           1     -27.144  -5.606 -16.807  0.00  0.00     0.230 C 
BRANCH  20  21
HETATM   21  N           1     -27.539  -6.996 -16.406  0.00  0.00    -0.079 N 
HETATM   22  H           1     -28.290  -7.342 -17.044  0.00  0.00     0.274 HD
HETATM   23  H           1     -26.708  -7.627 -16.473  0.00  0.00     0.274 HD
HETATM   24  H           1     -27.891  -6.988 -15.423  0.00  0.00     0.274 HD
ENDBRANCH  20  21
ENDBRANCH  19  20
ENDBRANCH  18  19
ENDBRANCH  17  18
BRANCH  17  25
HETATM   25  C           1     -31.156  -6.740 -17.403  0.00  0.00     0.196 C 
HETATM   26  O           1     -30.251  -7.591 -17.552  0.00  0.00    -0.646 OA
HETATM   27  O           1     -32.347  -7.053 -17.613  0.00  0.00    -0.646 OA
ENDBRANCH  17  25
ENDBRANCH   2  17
TORSDOF 10
ENDMDL
MODEL 9
REMARK VINA RESULT:      -5.8     17.629     19.751
REMARK  10 active torsions:
REMARK  status: ('A' for Active; 'I' for Inactive)
REMARK    1  A    between atoms: N_1  and  C_17 
REMARK    2  A    between atoms: C_6  and  C_8 
REMARK    3  A    between atoms: C_6  and  C_7 
REMARK    4  A    between atoms: C_7  and  C_13 
REMARK    5  A    between atoms: C_8  and  N_25 
REMARK    6  A    between atoms: N_11  and  C_13 
REMARK       I    between atoms: N_11  and  C_19 
REMARK    7  A    between atoms: C_12  and  C_18 
REMARK    8  A    between atoms: C_13  and  C_14 
REMARK    9  A    between atoms: C_17  and  C_19 
REMARK   10  A    between atoms: C_17  and  C_18 
ROOT
HETATM    1  H           1     -21.192  10.189 -15.004  0.00  0.00     0.163 HD
HETATM    2  N           1     -21.820  10.922 -15.308  0.00  0.00    -0.345 N 
HETATM    3  C           1     -22.721  11.459 -14.428  0.00  0.00     0.249 C 
HETATM    4  O           1     -23.471  12.335 -14.789  0.00  0.00    -0.271 OA
ENDROOT
BRANCH   3   5
HETATM    5  C           1     -22.778  10.958 -13.005  0.00  0.00     0.278 C 
BRANCH   5   6
HETATM    6  N           1     -21.849  11.770 -12.152  0.00  0.00    -0.066 N 
HETATM    7  H           1     -22.240  11.846 -11.186  0.00  0.00     0.275 HD
HETATM    8  H           1     -20.914  11.304 -12.114  0.00  0.00     0.275 HD
HETATM    9  H           1     -21.747  12.726 -12.562  0.00  0.00     0.275 HD
ENDBRANCH   5   6
BRANCH   5  10
HETATM   10  C           1     -24.199  11.090 -12.476  0.00  0.00     0.081 C 
BRANCH  10  11
HETATM   11  C           1     -24.665   9.764 -11.958  0.00  0.00    -0.056 A 
HETATM   12  C           1     -25.819   9.687 -11.180  0.00  0.00     0.007 A 
HETATM   13  C           1     -26.253   8.453 -10.697  0.00  0.00     0.001 A 
HETATM   14  C           1     -25.532   7.296 -10.992  0.00  0.00     0.000 A 
HETATM   15  C           1     -24.377   7.373 -11.770  0.00  0.00     0.001 A 
HETATM   16  C           1     -23.943   8.608 -12.253  0.00  0.00     0.007 A 
ENDBRANCH  10  11
ENDBRANCH   5  10
ENDBRANCH   3   5
BRANCH   2  17
HETATM   17  C           1     -21.765  11.404 -16.673  0.00  0.00     0.185 C 
BRANCH  17  18
HETATM   18  C           1     -20.661  12.447 -16.801  0.00  0.00     0.038 C 
BRANCH  18  19
HETATM   19  C           1     -19.364  11.883 -16.237  0.00  0.00     0.030 C 
BRANCH  19  20
HETATM   20  C           1     -18.237  12.103 -17.238  0.00  0.00     0.230 C 
BRANCH  20  21
HETATM   21  N           1     -18.815  12.505 -18.562  0.00  0.00    -0.079 N 
HETATM   22  H           1     -18.146  12.255 -19.325  0.00  0.00     0.274 HD
HETATM   23  H           1     -19.720  12.005 -18.714  0.00  0.00     0.274 HD
HETATM   24  H           1     -18.983  13.536 -18.569  0.00  0.00     0.274 HD
ENDBRANCH  20  21
ENDBRANCH  19  20
ENDBRANCH  18  19
ENDBRANCH  17  18
BRANCH  17  25
HETATM   25  C           1     -21.477  10.252 -17.602  0.00  0.00     0.196 C 
HETATM   26  O           1     -21.296  10.461 -18.822  0.00  0.00    -0.646 OA
HETATM   27  O           1     -21.419   9.086 -17.154  0.00  0.00    -0.646 OA
ENDBRANCH  17  25
ENDBRANCH   2  17
TORSDOF 10
ENDMDL
