MODEL 1
REMARK VINA RESULT:      -5.9      0.000      0.000
REMARK  7 active torsions:
REMARK  status: ('A' for Active; 'I' for Inactive)
REMARK    1  A    between atoms: N_5  and  C_11 
REMARK    2  A    between atoms: C_9  and  C_15 
REMARK    3  A    between atoms: C_11  and  C_17 
REMARK    4  A    between atoms: C_11  and  C_12 
REMARK    5  A    between atoms: C_12  and  C_13 
REMARK    6  A    between atoms: C_13  and  C_14 
REMARK    7  A    between atoms: C_15  and  N_18 
REMARK       I    between atoms: C_17  and  N_18 
ROOT
HETATM    1  C           1     -34.625  -1.666 -12.026  0.00  0.00     0.275 C 
ENDROOT
BRANCH   1   2
HETATM    2  N           1     -35.434  -1.832 -10.774  0.00  0.00    -0.066 N 
HETATM    3  H           1     -36.450  -1.873 -11.019  0.00  0.00     0.275 HD
HETATM    4  H           1     -35.156  -2.718 -10.296  0.00  0.00     0.275 HD
HETATM    5  H           1     -35.262  -1.021 -10.139  0.00  0.00     0.275 HD
ENDBRANCH   1   2
BRANCH   1   6
HETATM    6  C           1     -35.483  -1.046 -13.101  0.00  0.00     0.248 C 
HETATM    7  O           1     -36.687  -1.086 -13.011  0.00  0.00    -0.271 OA
HETATM    8  N           1     -34.897  -0.437 -14.177  0.00  0.00    -0.349 N 
HETATM    9  H           1     -33.889  -0.402 -14.253  0.00  0.00     0.163 HD
BRANCH   8  10
HETATM   10  C           1     -35.722   0.160 -15.210  0.00  0.00     0.235 C 
BRANCH  10  11
HETATM   11  C           1     -35.859  -0.801 -16.365  0.00  0.00     0.191 C 
HETATM   12  O           1     -34.946  -1.620 -16.607  0.00  0.00    -0.647 OA
HETATM   13  O           1     -36.884  -0.779 -17.079  0.00  0.00    -0.647 OA
ENDBRANCH  10  11
ENDBRANCH   8  10
ENDBRANCH   1   6
BRANCH   1  14
HETATM   14  C           1     -34.131  -3.029 -12.495  0.00  0.00     0.053 C 
BRANCH  14  15
HETATM   15  C           1     -33.268  -3.659 -11.410  0.00  0.00     0.115 C 
BRANCH  15  16
HETATM   16  C           1     -33.869  -4.977 -10.989  0.00  0.00     0.172 C 
HETATM   17  O           1     -35.036  -5.018 -10.542  0.00  0.00    -0.648 OA
HETATM   18  O           1     -33.200  -6.029 -11.086  0.00  0.00    -0.648 OA
ENDBRANCH  15  16
ENDBRANCH  14  15
ENDBRANCH   1  14
TORSDOF 7
ENDMDL
MODEL 2
REMARK VINA RESULT:      -5.8      7.454      8.432
REMARK  7 active torsions:
REMARK  status: ('A' for Active; 'I' for Inactive)
REMARK    1  A    between atoms: N_5  and  C_11 
REMARK    2  A    between atoms: C_9  and  C_15 
REMARK    3  A    between atoms: C_11  and  C_17 
REMARK    4  A    between atoms: C_11  and  C_12 
REMARK    5  A    between atoms: C_12  and  C_13 
REMARK    6  A    between atoms: C_13  and  C_14 
REMARK    7  A    between atoms: C_15  and  N_18 
REMARK       I    between atoms: C_17  and  N_18 
ROOT
HETATM    1  C           1     -29.104  -7.216 -17.196  0.00  0.00     0.275 C 
ENDROOT
BRANCH   1   2
HETATM    2  N           1     -28.470  -7.023 -18.542  0.00  0.00    -0.066 N 
HETATM    3  H           1     -27.431  -6.974 -18.434  0.00  0.00     0.275 HD
HETATM    4  H           1     -28.718  -7.827 -19.160  0.00  0.00     0.275 HD
HETATM    5  H           1     -28.818  -6.134 -18.966  0.00  0.00     0.275 HD
ENDBRANCH   1   2
BRANCH   1   6
HETATM    6  C           1     -30.476  -6.589 -17.193  0.00  0.00     0.248 C 
HETATM    7  O           1     -31.381  -7.111 -17.800  0.00  0.00    -0.271 OA
HETATM    8  N           1     -30.696  -5.427 -16.503  0.00  0.00    -0.349 N 
HETATM    9  H           1     -29.938  -4.989 -15.995  0.00  0.00     0.163 HD
BRANCH   8  10
HETATM   10  C           1     -32.015  -4.824 -16.500  0.00  0.00     0.235 C 
BRANCH  10  11
HETATM   11  C           1     -31.980  -3.531 -17.277  0.00  0.00     0.191 C 
HETATM   12  O           1     -33.048  -2.981 -17.623  0.00  0.00    -0.647 OA
HETATM   13  O           1     -30.883  -3.011 -17.575  0.00  0.00    -0.647 OA
ENDBRANCH  10  11
ENDBRANCH   8  10
ENDBRANCH   1   6
BRANCH   1  14
HETATM   14  C           1     -28.241  -6.554 -16.130  0.00  0.00     0.053 C 
BRANCH  14  15
HETATM   15  C           1     -27.004  -5.949 -16.779  0.00  0.00     0.115 C 
BRANCH  15  16
HETATM   16  C           1     -25.770  -6.648 -16.263  0.00  0.00     0.172 C 
HETATM   17  O           1     -24.676  -6.501 -16.851  0.00  0.00    -0.648 OA
HETATM   18  O           1     -25.841  -7.375 -15.249  0.00  0.00    -0.648 OA
ENDBRANCH  15  16
ENDBRANCH  14  15
ENDBRANCH   1  14
TORSDOF 7
ENDMDL
MODEL 3
REMARK VINA RESULT:      -5.5     12.153     14.871
REMARK  7 active torsions:
REMARK  status: ('A' for Active; 'I' for Inactive)
REMARK    1  A    between atoms: N_5  and  C_11 
REMARK    2  A    between atoms: C_9  and  C_15 
REMARK    3  A    between atoms: C_11  and  C_17 
REMARK    4  A    between atoms: C_11  and  C_12 
REMARK    5  A    between atoms: C_12  and  C_13 
REMARK    6  A    between atoms: C_13  and  C_14 
REMARK    7  A    between atoms: C_15  and  N_18 
REMARK       I    between atoms: C_17  and  N_18 
ROOT
HETATM    1  C           1     -21.762  -3.666 -10.576  0.00  0.00     0.275 C 
ENDROOT
BRANCH   1   2
HETATM    2  N           1     -21.056  -2.901 -11.656  0.00  0.00    -0.066 N 
HETATM    3  H           1     -21.643  -2.086 -11.946  0.00  0.00     0.275 HD
HETATM    4  H           1     -20.139  -2.557 -11.295  0.00  0.00     0.275 HD
HETATM    5  H           1     -20.898  -3.526 -12.478  0.00  0.00     0.275 HD
ENDBRANCH   1   2
BRANCH   1   6
HETATM    6  C           1     -20.753  -4.455  -9.778  0.00  0.00     0.248 C 
HETATM    7  O           1     -19.781  -4.920 -10.325  0.00  0.00    -0.271 OA
HETATM    8  N           1     -20.940  -4.646  -8.436  0.00  0.00    -0.349 N 
HETATM    9  H           1     -21.754  -4.257  -7.978  0.00  0.00     0.163 HD
BRANCH   8  10
HETATM   10  C           1     -19.970  -5.404  -7.669  0.00  0.00     0.235 C 
BRANCH  10  11
HETATM   11  C           1     -20.643  -6.006  -6.460  0.00  0.00     0.191 C 
HETATM   12  O           1     -20.863  -5.299  -5.452  0.00  0.00    -0.647 OA
HETATM   13  O           1     -20.980  -7.209  -6.466  0.00  0.00    -0.647 OA
ENDBRANCH  10  11
ENDBRANCH   8  10
ENDBRANCH   1   6
BRANCH   1  14
HETATM   14  C           1     -22.770  -4.619 -11.205  0.00  0.00     0.053 C 
BRANCH  14  15
HETATM   15  C           1     -23.950  -4.808 -10.262  0.00  0.00     0.115 C 
BRANCH  15  16
HETATM   16  C           1     -24.792  -3.555 -10.251  0.00  0.00     0.172 C 
HETATM   17  O           1     -25.397  -3.199 -11.285  0.00  0.00    -0.648 OA
HETATM   18  O           1     -24.883  -2.873  -9.208  0.00  0.00    -0.648 OA
ENDBRANCH  15  16
ENDBRANCH  14  15
ENDBRANCH   1  14
TORSDOF 7
ENDMDL
MODEL 4
REMARK VINA RESULT:      -5.5     12.236     15.142
REMARK  7 active torsions:
REMARK  status: ('A' for Active; 'I' for Inactive)
REMARK    1  A    between atoms: N_5  and  C_11 
REMARK    2  A    between atoms: C_9  and  C_15 
REMARK    3  A    between atoms: C_11  and  C_17 
REMARK    4  A    between atoms: C_11  and  C_12 
REMARK    5  A    between atoms: C_12  and  C_13 
REMARK    6  A    between atoms: C_13  and  C_14 
REMARK    7  A    between atoms: C_15  and  N_18 
REMARK       I    between atoms: C_17  and  N_18 
ROOT
HETATM    1  C           1     -21.160  -4.304  -8.937  0.00  0.00     0.275 C 
ENDROOT
BRANCH   1   2
HETATM    2  N           1     -20.141  -4.537 -10.013  0.00  0.00    -0.066 N 
HETATM    3  H           1     -19.794  -3.618 -10.370  0.00  0.00     0.275 HD
HETATM    4  H           1     -19.342  -5.083  -9.622  0.00  0.00     0.275 HD
HETATM    5  H           1     -20.580  -5.071 -10.797  0.00  0.00     0.275 HD
ENDBRANCH   1   2
BRANCH   1   6
HETATM    6  C           1     -20.803  -5.125  -7.722  0.00  0.00     0.248 C 
HETATM    7  O           1     -20.101  -6.101  -7.837  0.00  0.00    -0.271 OA
HETATM    8  N           1     -21.276  -4.763  -6.490  0.00  0.00    -0.349 N 
HETATM    9  H           1     -21.865  -3.946  -6.393  0.00  0.00     0.163 HD
BRANCH   8  10
HETATM   10  C           1     -20.934  -5.552  -5.322  0.00  0.00     0.235 C 
BRANCH  10  11
HETATM   11  C           1     -22.057  -6.512  -5.014  0.00  0.00     0.191 C 
HETATM   12  O           1     -21.804  -7.712  -4.773  0.00  0.00    -0.647 OA
HETATM   13  O           1     -23.239  -6.107  -5.001  0.00  0.00    -0.647 OA
ENDBRANCH  10  11
ENDBRANCH   8  10
ENDBRANCH   1   6
BRANCH   1  14
HETATM   14  C           1     -22.536  -4.717  -9.443  0.00  0.00     0.053 C 
BRANCH  14  15
HETATM   15  C           1     -23.562  -3.665  -9.045  0.00  0.00     0.115 C 
BRANCH  15  16
HETATM   16  C           1     -24.622  -3.565 -10.114  0.00  0.00     0.172 C 
HETATM   17  O           1     -25.742  -3.079  -9.840  0.00  0.00    -0.648 OA
HETATM   18  O           1     -24.383  -3.968 -11.272  0.00  0.00    -0.648 OA
ENDBRANCH  15  16
ENDBRANCH  14  15
ENDBRANCH   1  14
TORSDOF 7
ENDMDL
MODEL 5
REMARK VINA RESULT:      -5.5     13.600     15.981
REMARK  7 active torsions:
REMARK  status: ('A' for Active; 'I' for Inactive)
REMARK    1  A    between atoms: N_5  and  C_11 
REMARK    2  A    between atoms: C_9  and  C_15 
REMARK    3  A    between atoms: C_11  and  C_17 
REMARK    4  A    between atoms: C_11  and  C_12 
REMARK    5  A    between atoms: C_12  and  C_13 
REMARK    6  A    between atoms: C_13  and  C_14 
REMARK    7  A    between atoms: C_15  and  N_18 
REMARK       I    between atoms: C_17  and  N_18 
ROOT
HETATM    1  C           1     -21.560  -4.680  -8.540  0.00  0.00     0.275 C 
ENDROOT
BRANCH   1   2
HETATM    2  N           1     -22.535  -3.656  -8.036  0.00  0.00    -0.066 N 
HETATM    3  H           1     -22.123  -3.157  -7.215  0.00  0.00     0.275 HD
HETATM    4  H           1     -22.738  -2.968  -8.795  0.00  0.00     0.275 HD
HETATM    5  H           1     -23.419  -4.131  -7.747  0.00  0.00     0.275 HD
ENDBRANCH   1   2
BRANCH   1   6
HETATM    6  C           1     -20.943  -5.404  -7.369  0.00  0.00     0.248 C 
HETATM    7  O           1     -20.121  -6.269  -7.558  0.00  0.00    -0.271 OA
HETATM    8  N           1     -21.316  -5.082  -6.092  0.00  0.00    -0.349 N 
HETATM    9  H           1     -22.005  -4.358  -5.933  0.00  0.00     0.163 HD
BRANCH   8  10
HETATM   10  C           1     -20.723  -5.778  -4.966  0.00  0.00     0.235 C 
BRANCH  10  11
HETATM   11  C           1     -21.791  -6.552  -4.233  0.00  0.00     0.191 C 
HETATM   12  O           1     -22.087  -7.710  -4.600  0.00  0.00    -0.647 OA
HETATM   13  O           1     -22.379  -6.036  -3.259  0.00  0.00    -0.647 OA
ENDBRANCH  10  11
ENDBRANCH   8  10
ENDBRANCH   1   6
BRANCH   1  14
HETATM   14  C           1     -20.466  -3.986  -9.342  0.00  0.00     0.053 C 
BRANCH  14  15
HETATM   15  C           1     -20.497  -4.484 -10.781  0.00  0.00     0.115 C 
BRANCH  15  16
HETATM   16  C           1     -21.589  -3.769 -11.538  0.00  0.00     0.172 C 
HETATM   17  O           1     -22.481  -4.426 -12.117  0.00  0.00    -0.648 OA
HETATM   18  O           1     -21.601  -2.520 -11.587  0.00  0.00    -0.648 OA
ENDBRANCH  15  16
ENDBRANCH  14  15
ENDBRANCH   1  14
TORSDOF 7
ENDMDL
MODEL 6
REMARK VINA RESULT:      -5.5     12.608     15.646
REMARK  7 active torsions:
REMARK  status: ('A' for Active; 'I' for Inactive)
REMARK    1  A    between atoms: N_5  and  C_11 
REMARK    2  A    between atoms: C_9  and  C_15 
REMARK    3  A    between atoms: C_11  and  C_17 
REMARK    4  A    between atoms: C_11  and  C_12 
REMARK    5  A    between atoms: C_12  and  C_13 
REMARK    6  A    between atoms: C_13  and  C_14 
REMARK    7  A    between atoms: C_15  and  N_18 
REMARK       I    between atoms: C_17  and  N_18 
ROOT
HETATM    1  C           1     -21.370  -4.244  -7.575  0.00  0.00     0.275 C 
ENDROOT
BRANCH   1   2
HETATM    2  N           1     -19.939  -3.925  -7.896  0.00  0.00    -0.066 N 
HETATM    3  H           1     -19.746  -2.923  -7.669  0.00  0.00     0.275 HD
HETATM    4  H           1     -19.312  -4.537  -7.328  0.00  0.00     0.275 HD
HETATM    5  H           1     -19.766  -4.092  -8.912  0.00  0.00     0.275 HD
ENDBRANCH   1   2
BRANCH   1   6
HETATM    6  C           1     -21.435  -5.542  -6.808  0.00  0.00     0.248 C 
HETATM    7  O           1     -20.798  -6.498  -7.183  0.00  0.00    -0.271 OA
HETATM    8  N           1     -22.215  -5.636  -5.688  0.00  0.00    -0.349 N 
HETATM    9  H           1     -22.748  -4.835  -5.373  0.00  0.00     0.163 HD
BRANCH   8  10
HETATM   10  C           1     -22.278  -6.883  -4.950  0.00  0.00     0.235 C 
BRANCH  10  11
HETATM   11  C           1     -21.798  -6.659  -3.537  0.00  0.00     0.191 C 
HETATM   12  O           1     -20.726  -7.174  -3.152  0.00  0.00    -0.647 OA
HETATM   13  O           1     -22.472  -5.958  -2.753  0.00  0.00    -0.647 OA
ENDBRANCH  10  11
ENDBRANCH   8  10
ENDBRANCH   1   6
BRANCH   1  14
HETATM   14  C           1     -22.162  -4.379  -8.869  0.00  0.00     0.053 C 
BRANCH  14  15
HETATM   15  C           1     -23.619  -4.019  -8.614  0.00  0.00     0.115 C 
BRANCH  15  16
HETATM   16  C           1     -24.224  -3.444  -9.871  0.00  0.00     0.172 C 
HETATM   17  O           1     -25.452  -3.210  -9.923  0.00  0.00    -0.648 OA
HETATM   18  O           1     -23.500  -3.203 -10.860  0.00  0.00    -0.648 OA
ENDBRANCH  15  16
ENDBRANCH  14  15
ENDBRANCH   1  14
TORSDOF 7
ENDMDL
MODEL 7
REMARK VINA RESULT:      -5.3     12.793     14.753
REMARK  7 active torsions:
REMARK  status: ('A' for Active; 'I' for Inactive)
REMARK    1  A    between atoms: N_5  and  C_11 
REMARK    2  A    between atoms: C_9  and  C_15 
REMARK    3  A    between atoms: C_11  and  C_17 
REMARK    4  A    between atoms: C_11  and  C_12 
REMARK    5  A    between atoms: C_12  and  C_13 
REMARK    6  A    between atoms: C_13  and  C_14 
REMARK    7  A    between atoms: C_15  and  N_18 
REMARK       I    between atoms: C_17  and  N_18 
ROOT
HETATM    1  C           1     -21.258  -5.918  -6.901  0.00  0.00     0.275 C 
ENDROOT
BRANCH   1   2
HETATM    2  N           1     -19.827  -6.225  -7.230  0.00  0.00    -0.066 N 
HETATM    3  H           1     -19.296  -5.331  -7.345  0.00  0.00     0.275 HD
HETATM    4  H           1     -19.404  -6.782  -6.454  0.00  0.00     0.275 HD
HETATM    5  H           1     -19.783  -6.772  -8.119  0.00  0.00     0.275 HD
ENDBRANCH   1   2
BRANCH   1   6
HETATM    6  C           1     -21.696  -4.692  -7.663  0.00  0.00     0.248 C 
HETATM    7  O           1     -21.503  -3.592  -7.201  0.00  0.00    -0.271 OA
HETATM    8  N           1     -22.313  -4.825  -8.877  0.00  0.00    -0.349 N 
HETATM    9  H           1     -22.475  -5.746  -9.265  0.00  0.00     0.163 HD
BRANCH   8  10
HETATM   10  C           1     -22.734  -3.646  -9.610  0.00  0.00     0.235 C 
BRANCH  10  11
HETATM   11  C           1     -24.147  -3.838 -10.104  0.00  0.00     0.191 C 
HETATM   12  O           1     -24.695  -2.947 -10.789  0.00  0.00    -0.647 OA
HETATM   13  O           1     -24.768  -4.887  -9.829  0.00  0.00    -0.647 OA
ENDBRANCH  10  11
ENDBRANCH   8  10
ENDBRANCH   1   6
BRANCH   1  14
HETATM   14  C           1     -21.391  -5.662  -5.406  0.00  0.00     0.053 C 
BRANCH  14  15
HETATM   15  C           1     -21.628  -6.981  -4.682  0.00  0.00     0.115 C 
BRANCH  15  16
HETATM   16  C           1     -21.648  -6.742  -3.192  0.00  0.00     0.172 C 
HETATM   17  O           1     -20.824  -7.325  -2.454  0.00  0.00    -0.648 OA
HETATM   18  O           1     -22.489  -5.962  -2.695  0.00  0.00    -0.648 OA
ENDBRANCH  15  16
ENDBRANCH  14  15
ENDBRANCH   1  14
TORSDOF 7
ENDMDL
MODEL 8
REMARK VINA RESULT:      -5.3      3.228      6.138
REMARK  7 active torsions:
REMARK  status: ('A' for Active; 'I' for Inactive)
REMARK    1  A    between atoms: N_5  and  C_11 
REMARK    2  A    between atoms: C_9  and  C_15 
REMARK    3  A    between atoms: C_11  and  C_17 
REMARK    4  A    between atoms: C_11  and  C_12 
REMARK    5  A    between atoms: C_12  and  C_13 
REMARK    6  A    between atoms: C_13  and  C_14 
REMARK    7  A    between atoms: C_15  and  N_18 
REMARK       I    between atoms: C_17  and  N_18 
ROOT
HETATM    1  C           1     -35.131  -0.413 -12.843  0.00  0.00     0.275 C 
ENDROOT
BRANCH   1   2
HETATM    2  N           1     -34.807  -1.798 -13.317  0.00  0.00    -0.066 N 
HETATM    3  H           1     -33.943  -1.772 -13.905  0.00  0.00     0.275 HD
HETATM    4  H           1     -34.647  -2.419 -12.492  0.00  0.00     0.275 HD
HETATM    5  H           1     -35.603  -2.167 -13.884  0.00  0.00     0.275 HD
ENDBRANCH   1   2
BRANCH   1   6
HETATM    6  C           1     -36.245  -0.477 -11.827  0.00  0.00     0.248 C 
HETATM    7  O           1     -37.389  -0.610 -12.192  0.00  0.00    -0.271 OA
HETATM    8  N           1     -35.959  -0.386 -10.492  0.00  0.00    -0.349 N 
HETATM    9  H           1     -35.001  -0.275 -10.185  0.00  0.00     0.163 HD
BRANCH   8  10
HETATM   10  C           1     -37.030  -0.448  -9.515  0.00  0.00     0.235 C 
BRANCH  10  11
HETATM   11  C           1     -37.242   0.918  -8.912  0.00  0.00     0.191 C 
HETATM   12  O           1     -38.022   1.728  -9.458  0.00  0.00    -0.647 OA
HETATM   13  O           1     -36.637   1.240  -7.866  0.00  0.00    -0.647 OA
ENDBRANCH  10  11
ENDBRANCH   8  10
ENDBRANCH   1   6
BRANCH   1  14
HETATM   14  C           1     -35.573   0.438 -14.027  0.00  0.00     0.053 C 
BRANCH  14  15
HETATM   15  C           1     -35.659  -0.432 -15.274  0.00  0.00     0.115 C 
BRANCH  15  16
HETATM   16  C           1     -37.024  -0.282 -15.900  0.00  0.00     0.172 C 
HETATM   17  O           1     -37.540   0.851 -16.009  0.00  0.00    -0.648 OA
HETATM   18  O           1     -37.639  -1.291 -16.309  0.00  0.00    -0.648 OA
ENDBRANCH  15  16
ENDBRANCH  14  15
ENDBRANCH   1  14
TORSDOF 7
ENDMDL
MODEL 9
REMARK VINA RESULT:      -5.3      3.218      3.871
REMARK  7 active torsions:
REMARK  status: ('A' for Active; 'I' for Inactive)
REMARK    1  A    between atoms: N_5  and  C_11 
REMARK    2  A    between atoms: C_9  and  C_15 
REMARK    3  A    between atoms: C_11  and  C_17 
REMARK    4  A    between atoms: C_11  and  C_12 
REMARK    5  A    between atoms: C_12  and  C_13 
REMARK    6  A    between atoms: C_13  and  C_14 
REMARK    7  A    between atoms: C_15  and  N_18 
REMARK       I    between atoms: C_17  and  N_18 
ROOT
HETATM    1  C           1     -36.221  -0.751 -11.636  0.00  0.00     0.275 C 
ENDROOT
BRANCH   1   2
HETATM    2  N           1     -34.722  -0.722 -11.594  0.00  0.00    -0.066 N 
HETATM    3  H           1     -34.352  -1.696 -11.687  0.00  0.00     0.275 HD
HETATM    4  H           1     -34.364  -0.137 -12.381  0.00  0.00     0.275 HD
HETATM    5  H           1     -34.407  -0.317 -10.684  0.00  0.00     0.275 HD
ENDBRANCH   1   2
BRANCH   1   6
HETATM    6  C           1     -36.691  -0.412 -13.029  0.00  0.00     0.248 C 
HETATM    7  O           1     -37.831  -0.646 -13.356  0.00  0.00    -0.271 OA
HETATM    8  N           1     -35.827   0.160 -13.922  0.00  0.00    -0.349 N 
HETATM    9  H           1     -34.872   0.356 -13.649  0.00  0.00     0.163 HD
BRANCH   8  10
HETATM   10  C           1     -36.278   0.485 -15.261  0.00  0.00     0.235 C 
BRANCH  10  11
HETATM   11  C           1     -36.034  -0.690 -16.175  0.00  0.00     0.191 C 
HETATM   12  O           1     -35.179  -1.550 -15.872  0.00  0.00    -0.647 OA
HETATM   13  O           1     -36.686  -0.804 -17.235  0.00  0.00    -0.647 OA
ENDBRANCH  10  11
ENDBRANCH   8  10
ENDBRANCH   1   6
BRANCH   1  14
HETATM   14  C           1     -36.775   0.271 -10.651  0.00  0.00     0.053 C 
BRANCH  14  15
HETATM   15  C           1     -37.446  -0.452  -9.491  0.00  0.00     0.115 C 
BRANCH  15  16
HETATM   16  C           1     -36.919   0.091  -8.185  0.00  0.00     0.172 C 
HETATM   17  O           1     -37.689   0.230  -7.210  0.00  0.00    -0.648 OA
HETATM   18  O           1     -35.713   0.402  -8.079  0.00  0.00    -0.648 OA
ENDBRANCH  15  16
ENDBRANCH  14  15
ENDBRANCH   1  14
TORSDOF 7
ENDMDL
