MODEL 1
REMARK VINA RESULT:      -5.9      0.000      0.000
REMARK  9 active torsions:
REMARK  status: ('A' for Active; 'I' for Inactive)
REMARK    1  A    between atoms: C_3  and  C_4 
REMARK    2  A    between atoms: C_3  and  C_11 
REMARK    3  A    between atoms: N_6  and  C_21 
REMARK    4  A    between atoms: S_8  and  C_9 
REMARK    5  A    between atoms: C_9  and  C_12 
REMARK    6  A    between atoms: C_11  and  C_13 
REMARK    7  A    between atoms: C_11  and  N_19 
REMARK    8  A    between atoms: C_12  and  C_21 
REMARK       I    between atoms: N_19  and  C_20 
REMARK    9  A    between atoms: C_20  and  C_21 
ROOT
HETATM    1  O           1     -24.790  -6.312 -18.297  0.00  0.00    -0.271 OA
HETATM    2  H           1     -27.828  -7.031 -18.601  0.00  0.00     0.163 HD
HETATM    3  N           1     -26.995  -6.641 -18.178  0.00  0.00    -0.344 N 
HETATM    4  C           1     -25.784  -6.776 -18.802  0.00  0.00     0.249 C 
ENDROOT
BRANCH   4   5
HETATM    5  C           1     -25.690  -7.507 -20.119  0.00  0.00     0.275 C 
BRANCH   5   6
HETATM    6  N           1     -27.070  -7.840 -20.604  0.00  0.00    -0.066 N 
HETATM    7  H           1     -27.253  -8.859 -20.463  0.00  0.00     0.275 HD
HETATM    8  H           1     -27.147  -7.610 -21.620  0.00  0.00     0.275 HD
HETATM    9  H           1     -27.772  -7.282 -20.066  0.00  0.00     0.275 HD
ENDBRANCH   5   6
BRANCH   5  10
HETATM   10  C           1     -24.992  -6.623 -21.143  0.00  0.00     0.053 C 
BRANCH  10  11
HETATM   11  C           1     -24.301  -7.496 -22.182  0.00  0.00     0.076 C 
BRANCH  11  12
HETATM   12  S           1     -23.023  -8.502 -21.376  0.00  0.00    -0.173 SA
HETATM   13  C           1     -22.162  -8.987 -22.898  0.00  0.00     0.089 C 
ENDBRANCH  11  12
ENDBRANCH  10  11
ENDBRANCH   5  10
ENDBRANCH   4   5
BRANCH   3  14
HETATM   14  C           1     -27.085  -5.939 -16.913  0.00  0.00     0.189 C 
BRANCH  14  15
HETATM   15  C           1     -28.453  -5.278 -16.796  0.00  0.00     0.014 C 
HETATM   16  C           1     -28.294  -3.766 -16.878  0.00  0.00     0.012 C 
BRANCH  15  17
HETATM   17  C           1     -29.346  -5.758 -17.932  0.00  0.00     0.002 C 
HETATM   18  C           1     -30.538  -6.512 -17.358  0.00  0.00     0.005 C 
ENDBRANCH  15  17
ENDBRANCH  14  15
BRANCH  14  19
HETATM   19  C           1     -26.900  -6.919 -15.781  0.00  0.00     0.197 C 
HETATM   20  O           1     -25.750  -7.219 -15.395  0.00  0.00    -0.646 OA
HETATM   21  O           1     -27.898  -7.431 -15.228  0.00  0.00    -0.646 OA
ENDBRANCH  14  19
ENDBRANCH   3  14
TORSDOF 9
ENDMDL
MODEL 2
REMARK VINA RESULT:      -5.7      2.028      3.250
REMARK  9 active torsions:
REMARK  status: ('A' for Active; 'I' for Inactive)
REMARK    1  A    between atoms: C_3  and  C_4 
REMARK    2  A    between atoms: C_3  and  C_11 
REMARK    3  A    between atoms: N_6  and  C_21 
REMARK    4  A    between atoms: S_8  and  C_9 
REMARK    5  A    between atoms: C_9  and  C_12 
REMARK    6  A    between atoms: C_11  and  C_13 
REMARK    7  A    between atoms: C_11  and  N_19 
REMARK    8  A    between atoms: C_12  and  C_21 
REMARK       I    between atoms: N_19  and  C_20 
REMARK    9  A    between atoms: C_20  and  C_21 
ROOT
HETATM    1  O           1     -26.569  -7.395 -15.458  0.00  0.00    -0.271 OA
HETATM    2  H           1     -27.631  -6.297 -18.198  0.00  0.00     0.163 HD
HETATM    3  N           1     -27.674  -6.674 -17.260  0.00  0.00    -0.344 N 
HETATM    4  C           1     -26.518  -6.945 -16.578  0.00  0.00     0.249 C 
ENDROOT
BRANCH   4   5
HETATM    5  C           1     -25.181  -6.684 -17.226  0.00  0.00     0.275 C 
BRANCH   5   6
HETATM    6  N           1     -24.209  -7.748 -16.810  0.00  0.00    -0.066 N 
HETATM    7  H           1     -23.656  -8.059 -17.640  0.00  0.00     0.275 HD
HETATM    8  H           1     -24.731  -8.562 -16.415  0.00  0.00     0.275 HD
HETATM    9  H           1     -23.562  -7.363 -16.084  0.00  0.00     0.275 HD
ENDBRANCH   5   6
BRANCH   5  10
HETATM   10  C           1     -25.336  -6.703 -18.740  0.00  0.00     0.053 C 
BRANCH  10  11
HETATM   11  C           1     -24.128  -7.388 -19.367  0.00  0.00     0.076 C 
BRANCH  11  12
HETATM   12  S           1     -24.515  -7.848 -21.079  0.00  0.00    -0.173 SA
HETATM   13  C           1     -26.317  -7.899 -20.870  0.00  0.00     0.089 C 
ENDBRANCH  11  12
ENDBRANCH  10  11
ENDBRANCH   5  10
ENDBRANCH   4   5
BRANCH   3  14
HETATM   14  C           1     -28.959  -6.925 -16.637  0.00  0.00     0.189 C 
BRANCH  14  15
HETATM   15  C           1     -29.524  -5.618 -16.094  0.00  0.00     0.014 C 
HETATM   16  C           1     -29.368  -5.589 -14.580  0.00  0.00     0.012 C 
BRANCH  15  17
HETATM   17  C           1     -28.767  -4.447 -16.705  0.00  0.00     0.002 C 
HETATM   18  C           1     -29.695  -3.664 -17.625  0.00  0.00     0.005 C 
ENDBRANCH  15  17
ENDBRANCH  14  15
BRANCH  14  19
HETATM   19  C           1     -29.909  -7.498 -17.660  0.00  0.00     0.197 C 
HETATM   20  O           1     -31.094  -7.103 -17.702  0.00  0.00    -0.646 OA
HETATM   21  O           1     -29.511  -8.367 -18.466  0.00  0.00    -0.646 OA
ENDBRANCH  14  19
ENDBRANCH   3  14
TORSDOF 9
ENDMDL
MODEL 3
REMARK VINA RESULT:      -5.4     12.046     14.233
REMARK  9 active torsions:
REMARK  status: ('A' for Active; 'I' for Inactive)
REMARK    1  A    between atoms: C_3  and  C_4 
REMARK    2  A    between atoms: C_3  and  C_11 
REMARK    3  A    between atoms: N_6  and  C_21 
REMARK    4  A    between atoms: S_8  and  C_9 
REMARK    5  A    between atoms: C_9  and  C_12 
REMARK    6  A    between atoms: C_11  and  C_13 
REMARK    7  A    between atoms: C_11  and  N_19 
REMARK    8  A    between atoms: C_12  and  C_21 
REMARK       I    between atoms: N_19  and  C_20 
REMARK    9  A    between atoms: C_20  and  C_21 
ROOT
HETATM    1  O           1     -19.905  -4.966  -5.965  0.00  0.00    -0.271 OA
HETATM    2  H           1     -22.368  -6.908  -5.894  0.00  0.00     0.163 HD
HETATM    3  N           1     -21.447  -6.553  -5.668  0.00  0.00    -0.344 N 
HETATM    4  C           1     -21.004  -5.389  -6.235  0.00  0.00     0.249 C 
ENDROOT
BRANCH   4   5
HETATM    5  C           1     -21.886  -4.635  -7.199  0.00  0.00     0.275 C 
BRANCH   5   6
HETATM    6  N           1     -21.632  -3.163  -7.061  0.00  0.00    -0.066 N 
HETATM    7  H           1     -21.008  -2.993  -6.241  0.00  0.00     0.275 HD
HETATM    8  H           1     -22.539  -2.664  -6.917  0.00  0.00     0.275 HD
HETATM    9  H           1     -21.172  -2.806  -7.929  0.00  0.00     0.275 HD
ENDBRANCH   5   6
BRANCH   5  10
HETATM   10  C           1     -21.574  -5.072  -8.623  0.00  0.00     0.053 C 
BRANCH  10  11
HETATM   11  C           1     -22.124  -4.043  -9.603  0.00  0.00     0.076 C 
BRANCH  11  12
HETATM   12  S           1     -23.687  -4.647 -10.302  0.00  0.00    -0.173 SA
HETATM   13  C           1     -24.724  -3.302  -9.663  0.00  0.00     0.089 C 
ENDBRANCH  11  12
ENDBRANCH  10  11
ENDBRANCH   5  10
ENDBRANCH   4   5
BRANCH   3  14
HETATM   14  C           1     -20.599  -7.277  -4.742  0.00  0.00     0.189 C 
BRANCH  14  15
HETATM   15  C           1     -21.374  -7.563  -3.461  0.00  0.00     0.014 C 
HETATM   16  C           1     -20.461  -8.261  -2.462  0.00  0.00     0.012 C 
BRANCH  15  17
HETATM   17  C           1     -21.869  -6.252  -2.866  0.00  0.00     0.002 C 
HETATM   18  C           1     -22.251  -6.466  -1.408  0.00  0.00     0.005 C 
ENDBRANCH  15  17
ENDBRANCH  14  15
BRANCH  14  19
HETATM   19  C           1     -20.167  -8.580  -5.370  0.00  0.00     0.197 C 
HETATM   20  O           1     -21.021  -9.445  -5.663  0.00  0.00    -0.646 OA
HETATM   21  O           1     -18.957  -8.793  -5.598  0.00  0.00    -0.646 OA
ENDBRANCH  14  19
ENDBRANCH   3  14
TORSDOF 9
ENDMDL
MODEL 4
REMARK VINA RESULT:      -5.1     12.951     15.086
REMARK  9 active torsions:
REMARK  status: ('A' for Active; 'I' for Inactive)
REMARK    1  A    between atoms: C_3  and  C_4 
REMARK    2  A    between atoms: C_3  and  C_11 
REMARK    3  A    between atoms: N_6  and  C_21 
REMARK    4  A    between atoms: S_8  and  C_9 
REMARK    5  A    between atoms: C_9  and  C_12 
REMARK    6  A    between atoms: C_11  and  C_13 
REMARK    7  A    between atoms: C_11  and  N_19 
REMARK    8  A    between atoms: C_12  and  C_21 
REMARK       I    between atoms: N_19  and  C_20 
REMARK    9  A    between atoms: C_20  and  C_21 
ROOT
HETATM    1  O           1     -22.475  -5.915  -5.425  0.00  0.00    -0.271 OA
HETATM    2  H           1     -19.719  -6.920  -4.314  0.00  0.00     0.163 HD
HETATM    3  N           1     -20.725  -6.843  -4.394  0.00  0.00    -0.344 N 
HETATM    4  C           1     -21.274  -6.008  -5.329  0.00  0.00     0.249 C 
ENDROOT
BRANCH   4   5
HETATM    5  C           1     -20.380  -5.201  -6.239  0.00  0.00     0.275 C 
BRANCH   5   6
HETATM    6  N           1     -19.916  -6.064  -7.375  0.00  0.00    -0.066 N 
HETATM    7  H           1     -20.065  -5.561  -8.278  0.00  0.00     0.275 HD
HETATM    8  H           1     -20.459  -6.956  -7.380  0.00  0.00     0.275 HD
HETATM    9  H           1     -18.899  -6.276  -7.258  0.00  0.00     0.275 HD
ENDBRANCH   5   6
BRANCH   5  10
HETATM   10  C           1     -21.154  -4.012  -6.790  0.00  0.00     0.053 C 
BRANCH  10  11
HETATM   11  C           1     -21.169  -4.074  -8.312  0.00  0.00     0.076 C 
BRANCH  11  12
HETATM   12  S           1     -22.884  -4.029  -8.904  0.00  0.00    -0.173 SA
HETATM   13  C           1     -22.485  -3.696 -10.643  0.00  0.00     0.089 C 
ENDBRANCH  11  12
ENDBRANCH  10  11
ENDBRANCH   5  10
ENDBRANCH   4   5
BRANCH   3  14
HETATM   14  C           1     -21.584  -7.617  -3.520  0.00  0.00     0.189 C 
BRANCH  14  15
HETATM   15  C           1     -20.994  -9.010  -3.333  0.00  0.00     0.014 C 
HETATM   16  C           1     -21.876 -10.033  -4.035  0.00  0.00     0.012 C 
BRANCH  15  17
HETATM   17  C           1     -19.594  -9.051  -3.929  0.00  0.00     0.002 C 
HETATM   18  C           1     -18.581  -9.351  -2.832  0.00  0.00     0.005 C 
ENDBRANCH  15  17
ENDBRANCH  14  15
BRANCH  14  19
HETATM   19  C           1     -21.688  -6.930  -2.181  0.00  0.00     0.197 C 
HETATM   20  O           1     -21.197  -7.466  -1.164  0.00  0.00    -0.646 OA
HETATM   21  O           1     -22.265  -5.825  -2.088  0.00  0.00    -0.646 OA
ENDBRANCH  14  19
ENDBRANCH   3  14
TORSDOF 9
ENDMDL
MODEL 5
REMARK VINA RESULT:      -4.9     18.397     19.971
REMARK  9 active torsions:
REMARK  status: ('A' for Active; 'I' for Inactive)
REMARK    1  A    between atoms: C_3  and  C_4 
REMARK    2  A    between atoms: C_3  and  C_11 
REMARK    3  A    between atoms: N_6  and  C_21 
REMARK    4  A    between atoms: S_8  and  C_9 
REMARK    5  A    between atoms: C_9  and  C_12 
REMARK    6  A    between atoms: C_11  and  C_13 
REMARK    7  A    between atoms: C_11  and  N_19 
REMARK    8  A    between atoms: C_12  and  C_21 
REMARK       I    between atoms: N_19  and  C_20 
REMARK    9  A    between atoms: C_20  and  C_21 
ROOT
HETATM    1  O           1     -11.881   7.272 -21.767  0.00  0.00    -0.271 OA
HETATM    2  H           1     -12.399   5.920 -18.984  0.00  0.00     0.163 HD
HETATM    3  N           1     -12.439   6.043 -19.988  0.00  0.00    -0.344 N 
HETATM    4  C           1     -11.832   7.124 -20.569  0.00  0.00     0.249 C 
ENDROOT
BRANCH   4   5
HETATM    5  C           1     -11.105   8.132 -19.713  0.00  0.00     0.275 C 
BRANCH   5   6
HETATM    6  N           1      -9.696   8.280 -20.206  0.00  0.00    -0.066 N 
HETATM    7  H           1      -9.695   8.329 -21.250  0.00  0.00     0.275 HD
HETATM    8  H           1      -9.130   7.459 -19.896  0.00  0.00     0.275 HD
HETATM    9  H           1      -9.282   9.157 -19.816  0.00  0.00     0.275 HD
ENDBRANCH   5   6
BRANCH   5  10
HETATM   10  C           1     -11.815   9.476 -19.795  0.00  0.00     0.053 C 
BRANCH  10  11
HETATM   11  C           1     -12.886   9.553 -18.714  0.00  0.00     0.076 C 
BRANCH  11  12
HETATM   12  S           1     -13.963  10.979 -19.029  0.00  0.00    -0.173 SA
HETATM   13  C           1     -15.053  10.725 -17.601  0.00  0.00     0.089 C 
ENDBRANCH  11  12
ENDBRANCH  10  11
ENDBRANCH   5  10
ENDBRANCH   4   5
BRANCH   3  14
HETATM   14  C           1     -13.138   5.076 -20.811  0.00  0.00     0.189 C 
BRANCH  14  15
HETATM   15  C           1     -12.808   3.668 -20.329  0.00  0.00     0.014 C 
HETATM   16  C           1     -13.271   2.656 -21.368  0.00  0.00     0.012 C 
BRANCH  15  17
HETATM   17  C           1     -11.304   3.541 -20.130  0.00  0.00     0.002 C 
HETATM   18  C           1     -10.807   2.269 -20.805  0.00  0.00     0.005 C 
ENDBRANCH  15  17
ENDBRANCH  14  15
BRANCH  14  19
HETATM   19  C           1     -14.626   5.308 -20.705  0.00  0.00     0.197 C 
HETATM   20  O           1     -15.303   5.499 -21.738  0.00  0.00    -0.646 OA
HETATM   21  O           1     -15.180   5.309 -19.585  0.00  0.00    -0.646 OA
ENDBRANCH  14  19
ENDBRANCH   3  14
TORSDOF 9
ENDMDL
MODEL 6
REMARK VINA RESULT:      -4.9     15.037     17.130
REMARK  9 active torsions:
REMARK  status: ('A' for Active; 'I' for Inactive)
REMARK    1  A    between atoms: C_3  and  C_4 
REMARK    2  A    between atoms: C_3  and  C_11 
REMARK    3  A    between atoms: N_6  and  C_21 
REMARK    4  A    between atoms: S_8  and  C_9 
REMARK    5  A    between atoms: C_9  and  C_12 
REMARK    6  A    between atoms: C_11  and  C_13 
REMARK    7  A    between atoms: C_11  and  N_19 
REMARK    8  A    between atoms: C_12  and  C_21 
REMARK       I    between atoms: N_19  and  C_20 
REMARK    9  A    between atoms: C_20  and  C_21 
ROOT
HETATM    1  O           1     -20.491  -7.153  -2.303  0.00  0.00    -0.271 OA
HETATM    2  H           1     -22.301  -9.676  -2.747  0.00  0.00     0.163 HD
HETATM    3  N           1     -21.668  -9.051  -2.266  0.00  0.00    -0.344 N 
HETATM    4  C           1     -21.248  -7.900  -2.877  0.00  0.00     0.249 C 
ENDROOT
BRANCH   4   5
HETATM    5  C           1     -21.728  -7.565  -4.268  0.00  0.00     0.275 C 
BRANCH   5   6
HETATM    6  N           1     -22.583  -6.334  -4.217  0.00  0.00    -0.066 N 
HETATM    7  H           1     -22.914  -6.100  -5.180  0.00  0.00     0.275 HD
HETATM    8  H           1     -22.025  -5.537  -3.838  0.00  0.00     0.275 HD
HETATM    9  H           1     -23.407  -6.509  -3.598  0.00  0.00     0.275 HD
ENDBRANCH   5   6
BRANCH   5  10
HETATM   10  C           1     -20.530  -7.313  -5.172  0.00  0.00     0.053 C 
BRANCH  10  11
HETATM   11  C           1     -20.939  -6.391  -6.314  0.00  0.00     0.076 C 
BRANCH  11  12
HETATM   12  S           1     -20.009  -4.836  -6.200  0.00  0.00    -0.173 SA
HETATM   13  C           1     -21.177  -3.835  -7.162  0.00  0.00     0.089 C 
ENDBRANCH  11  12
ENDBRANCH  10  11
ENDBRANCH   5  10
ENDBRANCH   4   5
BRANCH   3  14
HETATM   14  C           1     -21.207  -9.372  -0.930  0.00  0.00     0.189 C 
BRANCH  14  15
HETATM   15  C           1     -22.407  -9.610  -0.022  0.00  0.00     0.014 C 
HETATM   16  C           1     -23.036  -8.274   0.349  0.00  0.00     0.012 C 
BRANCH  15  17
HETATM   17  C           1     -23.431 -10.468  -0.752  0.00  0.00     0.002 C 
HETATM   18  C           1     -23.756 -11.698   0.086  0.00  0.00     0.005 C 
ENDBRANCH  15  17
ENDBRANCH  14  15
BRANCH  14  19
HETATM   19  C           1     -20.357 -10.618  -0.978  0.00  0.00     0.197 C 
HETATM   20  O           1     -19.912 -11.112   0.081  0.00  0.00    -0.646 OA
HETATM   21  O           1     -20.098 -11.156  -2.076  0.00  0.00    -0.646 OA
ENDBRANCH  14  19
ENDBRANCH   3  14
TORSDOF 9
ENDMDL
MODEL 7
REMARK VINA RESULT:      -4.7     13.243     15.339
REMARK  9 active torsions:
REMARK  status: ('A' for Active; 'I' for Inactive)
REMARK    1  A    between atoms: C_3  and  C_4 
REMARK    2  A    between atoms: C_3  and  C_11 
REMARK    3  A    between atoms: N_6  and  C_21 
REMARK    4  A    between atoms: S_8  and  C_9 
REMARK    5  A    between atoms: C_9  and  C_12 
REMARK    6  A    between atoms: C_11  and  C_13 
REMARK    7  A    between atoms: C_11  and  N_19 
REMARK    8  A    between atoms: C_12  and  C_21 
REMARK       I    between atoms: N_19  and  C_20 
REMARK    9  A    between atoms: C_20  and  C_21 
ROOT
HETATM    1  O           1     -19.816  -7.983  -5.634  0.00  0.00    -0.271 OA
HETATM    2  H           1     -22.465  -7.618  -3.995  0.00  0.00     0.163 HD
HETATM    3  N           1     -21.584  -8.031  -4.270  0.00  0.00    -0.344 N 
HETATM    4  C           1     -20.868  -7.490  -5.304  0.00  0.00     0.249 C 
ENDROOT
BRANCH   4   5
HETATM    5  C           1     -21.394  -6.278  -6.033  0.00  0.00     0.275 C 
BRANCH   5   6
HETATM    6  N           1     -22.685  -5.840  -5.407  0.00  0.00    -0.066 N 
HETATM    7  H           1     -23.386  -6.612  -5.479  0.00  0.00     0.275 HD
HETATM    8  H           1     -23.046  -4.996  -5.905  0.00  0.00     0.275 HD
HETATM    9  H           1     -22.523  -5.609  -4.401  0.00  0.00     0.275 HD
ENDBRANCH   5   6
BRANCH   5  10
HETATM   10  C           1     -20.378  -5.148  -5.941  0.00  0.00     0.053 C 
BRANCH  10  11
HETATM   11  C           1     -19.850  -4.824  -7.333  0.00  0.00     0.076 C 
BRANCH  11  12
HETATM   12  S           1     -21.220  -4.266  -8.386  0.00  0.00    -0.173 SA
HETATM   13  C           1     -20.341  -4.440  -9.964  0.00  0.00     0.089 C 
ENDBRANCH  11  12
ENDBRANCH  10  11
ENDBRANCH   5  10
ENDBRANCH   4   5
BRANCH   3  14
HETATM   14  C           1     -21.078  -9.196  -3.571  0.00  0.00     0.189 C 
BRANCH  14  15
HETATM   15  C           1     -21.337  -9.042  -2.077  0.00  0.00     0.014 C 
HETATM   16  C           1     -20.354  -9.907  -1.300  0.00  0.00     0.012 C 
BRANCH  15  17
HETATM   17  C           1     -21.155  -7.584  -1.679  0.00  0.00     0.002 C 
HETATM   18  C           1     -22.317  -7.148  -0.796  0.00  0.00     0.005 C 
ENDBRANCH  15  17
ENDBRANCH  14  15
BRANCH  14  19
HETATM   19  C           1     -21.780 -10.431  -4.079  0.00  0.00     0.197 C 
HETATM   20  O           1     -22.875 -10.775  -3.585  0.00  0.00    -0.646 OA
HETATM   21  O           1     -21.267 -11.110  -4.995  0.00  0.00    -0.646 OA
ENDBRANCH  14  19
ENDBRANCH   3  14
TORSDOF 9
ENDMDL
MODEL 8
REMARK VINA RESULT:      -4.7     15.040     16.317
REMARK  9 active torsions:
REMARK  status: ('A' for Active; 'I' for Inactive)
REMARK    1  A    between atoms: C_3  and  C_4 
REMARK    2  A    between atoms: C_3  and  C_11 
REMARK    3  A    between atoms: N_6  and  C_21 
REMARK    4  A    between atoms: S_8  and  C_9 
REMARK    5  A    between atoms: C_9  and  C_12 
REMARK    6  A    between atoms: C_11  and  C_13 
REMARK    7  A    between atoms: C_11  and  N_19 
REMARK    8  A    between atoms: C_12  and  C_21 
REMARK       I    between atoms: N_19  and  C_20 
REMARK    9  A    between atoms: C_20  and  C_21 
ROOT
HETATM    1  O           1     -21.673 -10.092  -4.459  0.00  0.00    -0.271 OA
HETATM    2  H           1     -19.408  -7.948  -4.124  0.00  0.00     0.163 HD
HETATM    3  N           1     -20.340  -8.339  -4.085  0.00  0.00    -0.344 N 
HETATM    4  C           1     -20.560  -9.624  -4.505  0.00  0.00     0.249 C 
ENDROOT
BRANCH   4   5
HETATM    5  C           1     -19.414 -10.455  -5.025  0.00  0.00     0.275 C 
BRANCH   5   6
HETATM    6  N           1     -19.732 -10.932  -6.412  0.00  0.00    -0.066 N 
HETATM    7  H           1     -20.228 -10.176  -6.935  0.00  0.00     0.275 HD
HETATM    8  H           1     -20.345 -11.776  -6.358  0.00  0.00     0.275 HD
HETATM    9  H           1     -18.845 -11.176  -6.908  0.00  0.00     0.275 HD
ENDBRANCH   5   6
BRANCH   5  10
HETATM   10  C           1     -18.147  -9.612  -5.058  0.00  0.00     0.053 C 
BRANCH  10  11
HETATM   11  C           1     -17.110 -10.285  -5.948  0.00  0.00     0.076 C 
BRANCH  11  12
HETATM   12  S           1     -15.606 -10.611  -4.986  0.00  0.00    -0.173 SA
HETATM   13  C           1     -16.105  -9.674  -3.513  0.00  0.00     0.089 C 
ENDBRANCH  11  12
ENDBRANCH  10  11
ENDBRANCH   5  10
ENDBRANCH   4   5
BRANCH   3  14
HETATM   14  C           1     -21.442  -7.541  -3.586  0.00  0.00     0.189 C 
BRANCH  14  15
HETATM   15  C           1     -21.081  -6.980  -2.216  0.00  0.00     0.014 C 
HETATM   16  C           1     -22.273  -6.218  -1.650  0.00  0.00     0.012 C 
BRANCH  15  17
HETATM   17  C           1     -20.719  -8.124  -1.279  0.00  0.00     0.002 C 
HETATM   18  C           1     -21.867  -8.371  -0.309  0.00  0.00     0.005 C 
ENDBRANCH  15  17
ENDBRANCH  14  15
BRANCH  14  19
HETATM   19  C           1     -21.712  -6.404  -4.540  0.00  0.00     0.197 C 
HETATM   20  O           1     -20.794  -5.611  -4.843  0.00  0.00    -0.646 OA
HETATM   21  O           1     -22.853  -6.256  -5.029  0.00  0.00    -0.646 OA
ENDBRANCH  14  19
ENDBRANCH   3  14
TORSDOF 9
ENDMDL
MODEL 9
REMARK VINA RESULT:      -4.7     17.294     18.204
REMARK  9 active torsions:
REMARK  status: ('A' for Active; 'I' for Inactive)
REMARK    1  A    between atoms: C_3  and  C_4 
REMARK    2  A    between atoms: C_3  and  C_11 
REMARK    3  A    between atoms: N_6  and  C_21 
REMARK    4  A    between atoms: S_8  and  C_9 
REMARK    5  A    between atoms: C_9  and  C_12 
REMARK    6  A    between atoms: C_11  and  C_13 
REMARK    7  A    between atoms: C_11  and  N_19 
REMARK    8  A    between atoms: C_12  and  C_21 
REMARK       I    between atoms: N_19  and  C_20 
REMARK    9  A    between atoms: C_20  and  C_21 
ROOT
HETATM    1  O           1     -19.758 -11.367  -0.709  0.00  0.00    -0.271 OA
HETATM    2  H           1     -21.293  -9.430  -2.640  0.00  0.00     0.163 HD
HETATM    3  N           1     -21.095  -9.943  -1.790  0.00  0.00    -0.344 N 
HETATM    4  C           1     -19.994 -10.754  -1.722  0.00  0.00     0.249 C 
ENDROOT
BRANCH   4   5
HETATM    5  C           1     -19.078 -10.884  -2.914  0.00  0.00     0.275 C 
BRANCH   5   6
HETATM    6  N           1     -19.858 -11.392  -4.090  0.00  0.00    -0.066 N 
HETATM    7  H           1     -20.865 -11.484  -3.827  0.00  0.00     0.275 HD
HETATM    8  H           1     -19.487 -12.325  -4.378  0.00  0.00     0.275 HD
HETATM    9  H           1     -19.765 -10.720  -4.885  0.00  0.00     0.275 HD
ENDBRANCH   5   6
BRANCH   5  10
HETATM   10  C           1     -18.482  -9.524  -3.249  0.00  0.00     0.053 C 
BRANCH  10  11
HETATM   11  C           1     -17.007  -9.507  -2.871  0.00  0.00     0.076 C 
BRANCH  11  12
HETATM   12  S           1     -16.010 -10.024  -4.296  0.00  0.00    -0.173 SA
HETATM   13  C           1     -15.267 -11.477  -3.503  0.00  0.00     0.089 C 
ENDBRANCH  11  12
ENDBRANCH  10  11
ENDBRANCH   5  10
ENDBRANCH   4   5
BRANCH   3  14
HETATM   14  C           1     -21.976  -9.818  -0.646  0.00  0.00     0.189 C 
BRANCH  14  15
HETATM   15  C           1     -22.292  -8.347  -0.407  0.00  0.00     0.014 C 
HETATM   16  C           1     -21.978  -7.990   1.040  0.00  0.00     0.012 C 
BRANCH  15  17
HETATM   17  C           1     -21.444  -7.490  -1.337  0.00  0.00     0.002 C 
HETATM   18  C           1     -22.254  -6.285  -1.799  0.00  0.00     0.005 C 
ENDBRANCH  15  17
ENDBRANCH  14  15
BRANCH  14  19
HETATM   19  C           1     -23.256 -10.571  -0.913  0.00  0.00     0.197 C 
HETATM   20  O           1     -23.445 -11.108  -2.025  0.00  0.00    -0.646 OA
HETATM   21  O           1     -24.127 -10.659  -0.020  0.00  0.00    -0.646 OA
ENDBRANCH  14  19
ENDBRANCH   3  14
TORSDOF 9
ENDMDL
