MODEL 1
REMARK VINA RESULT:      -5.3      0.000      0.000
REMARK  6 active torsions:
REMARK  status: ('A' for Active; 'I' for Inactive)
REMARK    1  A    between atoms: C_2  and  C_3 
REMARK    2  A    between atoms: C_2  and  N_6 
REMARK       I    between atoms: N_6  and  C_7 
REMARK    3  A    between atoms: C_7  and  C_8 
REMARK    4  A    between atoms: C_8  and  C_9 
REMARK    5  A    between atoms: C_8  and  N_11 
REMARK    6  A    between atoms: C_9  and  Se_10 
ROOT
HETATM    1  N           1     -34.814  -1.203 -13.811  0.00  0.00    -0.345 N 
HETATM    2  C           1     -35.277  -1.728 -12.636  0.00  0.00     0.249 C 
HETATM    3  O           1     -36.415  -1.520 -12.288  0.00  0.00    -0.271 OA
HETATM    4  H           1     -33.860  -1.378 -14.102  0.00  0.00     0.163 HD
ENDROOT
BRANCH   2   5
HETATM    5  C           1     -34.367  -2.567 -11.772  0.00  0.00     0.274 C 
BRANCH   5   6
HETATM    6  C           1     -35.173  -3.679 -11.115  0.00  0.00     0.045 C 
BRANCH   6   7
HETATM    7 Se           1     -34.036  -5.241 -10.856  0.00  0.00     0.000 Se
HETATM    8  H           1     -34.116  -5.676 -12.260  0.00  0.00     0.000 HD
ENDBRANCH   6   7
ENDBRANCH   5   6
BRANCH   5   9
HETATM    9  N           1     -33.749  -1.704 -10.713  0.00  0.00    -0.067 N 
HETATM   10  H           1     -34.374  -0.888 -10.520  0.00  0.00     0.275 HD
HETATM   11  H           1     -33.625  -2.262  -9.838  0.00  0.00     0.275 HD
HETATM   12  H           1     -32.819  -1.360 -11.043  0.00  0.00     0.275 HD
ENDBRANCH   5   9
ENDBRANCH   2   5
BRANCH   1  13
HETATM   13  C           1     -35.689  -0.397 -14.640  0.00  0.00     0.181 C 
HETATM   14  C           1     -35.163   1.032 -14.693  0.00  0.00     0.043 C 
BRANCH  13  15
HETATM   15  C           1     -35.727  -0.971 -16.036  0.00  0.00     0.196 C 
HETATM   16  O           1     -35.089  -2.012 -16.301  0.00  0.00    -0.646 OA
HETATM   17  O           1     -36.398  -0.404 -16.926  0.00  0.00    -0.646 OA
ENDBRANCH  13  15
ENDBRANCH   1  13
TORSDOF 6
ENDMDL
MODEL 2
REMARK VINA RESULT:      -5.0     10.737     11.418
REMARK  6 active torsions:
REMARK  status: ('A' for Active; 'I' for Inactive)
REMARK    1  A    between atoms: C_2  and  C_3 
REMARK    2  A    between atoms: C_2  and  N_6 
REMARK       I    between atoms: N_6  and  C_7 
REMARK    3  A    between atoms: C_7  and  C_8 
REMARK    4  A    between atoms: C_8  and  C_9 
REMARK    5  A    between atoms: C_8  and  N_11 
REMARK    6  A    between atoms: C_9  and  Se_10 
ROOT
HETATM    1  N           1     -27.702  -6.552 -18.951  0.00  0.00    -0.345 N 
HETATM    2  C           1     -26.408  -6.413 -18.529  0.00  0.00     0.249 C 
HETATM    3  O           1     -26.176  -6.039 -17.404  0.00  0.00    -0.271 OA
HETATM    4  H           1     -27.897  -6.865 -19.894  0.00  0.00     0.163 HD
ENDROOT
BRANCH   2   5
HETATM    5  C           1     -25.270  -6.727 -19.470  0.00  0.00     0.274 C 
BRANCH   5   6
HETATM    6  C           1     -25.796  -7.522 -20.657  0.00  0.00     0.045 C 
BRANCH   6   7
HETATM    7 Se           1     -24.334  -7.888 -21.893  0.00  0.00     0.000 Se
HETATM    8  H           1     -23.391  -8.295 -20.838  0.00  0.00     0.000 HD
ENDBRANCH   6   7
ENDBRANCH   5   6
BRANCH   5   9
HETATM    9  N           1     -24.234  -7.536 -18.746  0.00  0.00    -0.067 N 
HETATM   10  H           1     -23.763  -6.938 -18.030  0.00  0.00     0.275 HD
HETATM   11  H           1     -24.694  -8.347 -18.274  0.00  0.00     0.275 HD
HETATM   12  H           1     -23.526  -7.885 -19.430  0.00  0.00     0.275 HD
ENDBRANCH   5   9
ENDBRANCH   2   5
BRANCH   1  13
HETATM   13  C           1     -28.796  -6.250 -18.048  0.00  0.00     0.181 C 
HETATM   14  C           1     -29.387  -4.892 -18.402  0.00  0.00     0.043 C 
BRANCH  13  15
HETATM   15  C           1     -29.862  -7.312 -18.177  0.00  0.00     0.196 C 
HETATM   16  O           1     -29.674  -8.297 -18.922  0.00  0.00    -0.646 OA
HETATM   17  O           1     -30.931  -7.205 -17.538  0.00  0.00    -0.646 OA
ENDBRANCH  13  15
ENDBRANCH   1  13
TORSDOF 6
ENDMDL
MODEL 3
REMARK VINA RESULT:      -5.0     13.557     14.542
REMARK  6 active torsions:
REMARK  status: ('A' for Active; 'I' for Inactive)
REMARK    1  A    between atoms: C_2  and  C_3 
REMARK    2  A    between atoms: C_2  and  N_6 
REMARK       I    between atoms: N_6  and  C_7 
REMARK    3  A    between atoms: C_7  and  C_8 
REMARK    4  A    between atoms: C_8  and  C_9 
REMARK    5  A    between atoms: C_8  and  N_11 
REMARK    6  A    between atoms: C_9  and  Se_10 
ROOT
HETATM    1  N           1     -21.947  -4.786  -8.956  0.00  0.00    -0.345 N 
HETATM    2  C           1     -21.528  -4.543  -7.677  0.00  0.00     0.249 C 
HETATM    3  O           1     -21.514  -3.413  -7.249  0.00  0.00    -0.271 OA
HETATM    4  H           1     -21.959  -5.732  -9.314  0.00  0.00     0.163 HD
ENDROOT
BRANCH   2   5
HETATM    5  C           1     -21.082  -5.687  -6.799  0.00  0.00     0.274 C 
BRANCH   5   6
HETATM    6  C           1     -20.732  -5.159  -5.414  0.00  0.00     0.045 C 
BRANCH   6   7
HETATM    7 Se           1     -21.438  -6.368  -4.059  0.00  0.00     0.000 Se
HETATM    8  H           1     -20.155  -7.055  -3.838  0.00  0.00     0.000 HD
ENDBRANCH   6   7
ENDBRANCH   5   6
BRANCH   5   9
HETATM    9  N           1     -19.875  -6.340  -7.405  0.00  0.00    -0.067 N 
HETATM   10  H           1     -19.419  -5.677  -8.072  0.00  0.00     0.275 HD
HETATM   11  H           1     -19.200  -6.592  -6.648  0.00  0.00     0.275 HD
HETATM   12  H           1     -20.167  -7.204  -7.915  0.00  0.00     0.275 HD
ENDBRANCH   5   9
ENDBRANCH   2   5
BRANCH   1  13
HETATM   13  C           1     -22.375  -3.686  -9.800  0.00  0.00     0.181 C 
HETATM   14  C           1     -21.448  -3.579 -11.003  0.00  0.00     0.043 C 
BRANCH  13  15
HETATM   15  C           1     -23.787  -3.936 -10.273  0.00  0.00     0.196 C 
HETATM   16  O           1     -24.486  -2.985 -10.683  0.00  0.00    -0.646 OA
HETATM   17  O           1     -24.256  -5.095 -10.254  0.00  0.00    -0.646 OA
ENDBRANCH  13  15
ENDBRANCH   1  13
TORSDOF 6
ENDMDL
MODEL 4
REMARK VINA RESULT:      -5.0     11.742     12.675
REMARK  6 active torsions:
REMARK  status: ('A' for Active; 'I' for Inactive)
REMARK    1  A    between atoms: C_2  and  C_3 
REMARK    2  A    between atoms: C_2  and  N_6 
REMARK       I    between atoms: N_6  and  C_7 
REMARK    3  A    between atoms: C_7  and  C_8 
REMARK    4  A    between atoms: C_8  and  C_9 
REMARK    5  A    between atoms: C_8  and  N_11 
REMARK    6  A    between atoms: C_9  and  Se_10 
ROOT
HETATM    1  N           1     -26.495  -6.642 -18.242  0.00  0.00    -0.345 N 
HETATM    2  C           1     -25.358  -6.856 -18.972  0.00  0.00     0.249 C 
HETATM    3  O           1     -24.290  -6.474 -18.554  0.00  0.00    -0.271 OA
HETATM    4  H           1     -27.389  -6.961 -18.593  0.00  0.00     0.163 HD
ENDROOT
BRANCH   2   5
HETATM    5  C           1     -25.436  -7.568 -20.300  0.00  0.00     0.274 C 
BRANCH   5   6
HETATM    6  C           1     -24.834  -6.686 -21.386  0.00  0.00     0.045 C 
BRANCH   6   7
HETATM    7 Se           1     -23.777  -7.782 -22.603  0.00  0.00     0.000 Se
HETATM    8  H           1     -22.974  -8.400 -21.534  0.00  0.00     0.000 HD
ENDBRANCH   6   7
ENDBRANCH   5   6
BRANCH   5   9
HETATM    9  N           1     -26.871  -7.856 -20.628  0.00  0.00    -0.067 N 
HETATM   10  H           1     -27.490  -7.346 -19.958  0.00  0.00     0.275 HD
HETATM   11  H           1     -27.075  -7.536 -21.602  0.00  0.00     0.275 HD
HETATM   12  H           1     -27.046  -8.883 -20.554  0.00  0.00     0.275 HD
ENDBRANCH   5   9
ENDBRANCH   2   5
BRANCH   1  13
HETATM   13  C           1     -26.420  -5.957 -16.966  0.00  0.00     0.181 C 
HETATM   14  C           1     -27.645  -5.069 -16.794  0.00  0.00     0.043 C 
BRANCH  13  15
HETATM   15  C           1     -26.374  -6.975 -15.852  0.00  0.00     0.196 C 
HETATM   16  O           1     -25.273  -7.392 -15.432  0.00  0.00    -0.646 OA
HETATM   17  O           1     -27.437  -7.399 -15.350  0.00  0.00    -0.646 OA
ENDBRANCH  13  15
ENDBRANCH   1  13
TORSDOF 6
ENDMDL
MODEL 5
REMARK VINA RESULT:      -4.7     10.934     11.748
REMARK  6 active torsions:
REMARK  status: ('A' for Active; 'I' for Inactive)
REMARK    1  A    between atoms: C_2  and  C_3 
REMARK    2  A    between atoms: C_2  and  N_6 
REMARK       I    between atoms: N_6  and  C_7 
REMARK    3  A    between atoms: C_7  and  C_8 
REMARK    4  A    between atoms: C_8  and  C_9 
REMARK    5  A    between atoms: C_8  and  N_11 
REMARK    6  A    between atoms: C_9  and  Se_10 
ROOT
HETATM    1  N           1     -26.631  -6.426 -17.881  0.00  0.00    -0.345 N 
HETATM    2  C           1     -26.381  -6.608 -19.214  0.00  0.00     0.249 C 
HETATM    3  O           1     -27.289  -6.571 -20.010  0.00  0.00    -0.271 OA
HETATM    4  H           1     -25.871  -6.458 -17.215  0.00  0.00     0.163 HD
ENDROOT
BRANCH   2   5
HETATM    5  C           1     -24.970  -6.857 -19.691  0.00  0.00     0.274 C 
BRANCH   5   6
HETATM    6  C           1     -24.998  -7.785 -20.897  0.00  0.00     0.045 C 
BRANCH   6   7
HETATM    7 Se           1     -23.177  -8.305 -21.359  0.00  0.00     0.000 Se
HETATM    8  H           1     -22.553  -7.481 -20.310  0.00  0.00     0.000 HD
ENDBRANCH   6   7
ENDBRANCH   5   6
BRANCH   5   9
HETATM    9  N           1     -24.177  -7.493 -18.588  0.00  0.00    -0.067 N 
HETATM   10  H           1     -23.232  -7.760 -18.948  0.00  0.00     0.275 HD
HETATM   11  H           1     -24.069  -6.814 -17.801  0.00  0.00     0.275 HD
HETATM   12  H           1     -24.674  -8.346 -18.248  0.00  0.00     0.275 HD
ENDBRANCH   5   9
ENDBRANCH   2   5
BRANCH   1  13
HETATM   13  C           1     -27.987  -6.188 -17.424  0.00  0.00     0.181 C 
HETATM   14  C           1     -28.190  -6.854 -16.070  0.00  0.00     0.043 C 
BRANCH  13  15
HETATM   15  C           1     -28.219  -4.702 -17.294  0.00  0.00     0.196 C 
HETATM   16  O           1     -29.034  -4.129 -18.049  0.00  0.00    -0.646 OA
HETATM   17  O           1     -27.596  -4.045 -16.432  0.00  0.00    -0.646 OA
ENDBRANCH  13  15
ENDBRANCH   1  13
TORSDOF 6
ENDMDL
MODEL 6
REMARK VINA RESULT:      -4.5     10.371     11.093
REMARK  6 active torsions:
REMARK  status: ('A' for Active; 'I' for Inactive)
REMARK    1  A    between atoms: C_2  and  C_3 
REMARK    2  A    between atoms: C_2  and  N_6 
REMARK       I    between atoms: N_6  and  C_7 
REMARK    3  A    between atoms: C_7  and  C_8 
REMARK    4  A    between atoms: C_8  and  C_9 
REMARK    5  A    between atoms: C_8  and  N_11 
REMARK    6  A    between atoms: C_9  and  Se_10 
ROOT
HETATM    1  N           1     -27.181  -7.040 -19.134  0.00  0.00    -0.345 N 
HETATM    2  C           1     -28.094  -6.178 -18.590  0.00  0.00     0.249 C 
HETATM    3  O           1     -28.483  -5.229 -19.227  0.00  0.00    -0.271 OA
HETATM    4  H           1     -26.854  -7.835 -18.600  0.00  0.00     0.163 HD
ENDROOT
BRANCH   2   5
HETATM    5  C           1     -28.614  -6.413 -17.193  0.00  0.00     0.274 C 
BRANCH   5   6
HETATM    6  C           1     -29.069  -5.090 -16.591  0.00  0.00     0.045 C 
BRANCH   6   7
HETATM    7 Se           1     -31.000  -4.914 -16.793  0.00  0.00     0.000 Se
HETATM    8  H           1     -30.913  -4.045 -17.978  0.00  0.00     0.000 HD
ENDBRANCH   6   7
ENDBRANCH   5   6
BRANCH   5   9
HETATM    9  N           1     -27.524  -6.999 -16.346  0.00  0.00    -0.067 N 
HETATM   10  H           1     -27.924  -7.736 -15.722  0.00  0.00     0.275 HD
HETATM   11  H           1     -26.795  -7.424 -16.963  0.00  0.00     0.275 HD
HETATM   12  H           1     -27.092  -6.246 -15.765  0.00  0.00     0.275 HD
ENDBRANCH   5   9
ENDBRANCH   2   5
BRANCH   1  13
HETATM   13  C           1     -26.680  -6.814 -20.477  0.00  0.00     0.181 C 
HETATM   14  C           1     -25.294  -6.187 -20.403  0.00  0.00     0.043 C 
BRANCH  13  15
HETATM   15  C           1     -26.600  -8.130 -21.211  0.00  0.00     0.196 C 
HETATM   16  O           1     -27.633  -8.810 -21.389  0.00  0.00    -0.646 OA
HETATM   17  O           1     -25.500  -8.539 -21.641  0.00  0.00    -0.646 OA
ENDBRANCH  13  15
ENDBRANCH   1  13
TORSDOF 6
ENDMDL
MODEL 7
REMARK VINA RESULT:      -4.5     14.205     15.243
REMARK  6 active torsions:
REMARK  status: ('A' for Active; 'I' for Inactive)
REMARK    1  A    between atoms: C_2  and  C_3 
REMARK    2  A    between atoms: C_2  and  N_6 
REMARK       I    between atoms: N_6  and  C_7 
REMARK    3  A    between atoms: C_7  and  C_8 
REMARK    4  A    between atoms: C_8  and  C_9 
REMARK    5  A    between atoms: C_8  and  N_11 
REMARK    6  A    between atoms: C_9  and  Se_10 
ROOT
HETATM    1  N           1     -21.660  -5.161  -8.273  0.00  0.00    -0.345 N 
HETATM    2  C           1     -21.142  -5.135  -7.007  0.00  0.00     0.249 C 
HETATM    3  O           1     -20.625  -4.128  -6.585  0.00  0.00    -0.271 OA
HETATM    4  H           1     -22.092  -6.005  -8.626  0.00  0.00     0.163 HD
ENDROOT
BRANCH   2   5
HETATM    5  C           1     -21.215  -6.366  -6.136  0.00  0.00     0.274 C 
BRANCH   5   6
HETATM    6  C           1     -21.353  -5.950  -4.678  0.00  0.00     0.045 C 
BRANCH   6   7
HETATM    7 Se           1     -21.125  -7.510  -3.532  0.00  0.00     0.000 Se
HETATM    8  H           1     -20.910  -8.443  -4.650  0.00  0.00     0.000 HD
ENDBRANCH   6   7
ENDBRANCH   5   6
BRANCH   5   9
HETATM    9  N           1     -19.963  -7.174  -6.309  0.00  0.00    -0.067 N 
HETATM   10  H           1     -19.701  -7.198  -7.321  0.00  0.00     0.275 HD
HETATM   11  H           1     -19.189  -6.738  -5.760  0.00  0.00     0.275 HD
HETATM   12  H           1     -20.128  -8.148  -5.968  0.00  0.00     0.275 HD
ENDBRANCH   5   9
ENDBRANCH   2   5
BRANCH   1  13
HETATM   13  C           1     -21.589  -3.978  -9.110  0.00  0.00     0.181 C 
HETATM   14  C           1     -20.612  -4.222 -10.252  0.00  0.00     0.043 C 
BRANCH  13  15
HETATM   15  C           1     -22.958  -3.679  -9.673  0.00  0.00     0.196 C 
HETATM   16  O           1     -23.976  -3.867  -8.972  0.00  0.00    -0.646 OA
HETATM   17  O           1     -23.071  -3.243 -10.838  0.00  0.00    -0.646 OA
ENDBRANCH  13  15
ENDBRANCH   1  13
TORSDOF 6
ENDMDL
MODEL 8
REMARK VINA RESULT:      -4.5     14.373     15.893
REMARK  6 active torsions:
REMARK  status: ('A' for Active; 'I' for Inactive)
REMARK    1  A    between atoms: C_2  and  C_3 
REMARK    2  A    between atoms: C_2  and  N_6 
REMARK       I    between atoms: N_6  and  C_7 
REMARK    3  A    between atoms: C_7  and  C_8 
REMARK    4  A    between atoms: C_8  and  C_9 
REMARK    5  A    between atoms: C_8  and  N_11 
REMARK    6  A    between atoms: C_9  and  Se_10 
ROOT
HETATM    1  N           1     -21.516  -5.016  -7.575  0.00  0.00    -0.345 N 
HETATM    2  C           1     -20.958  -4.646  -8.768  0.00  0.00     0.249 C 
HETATM    3  O           1     -19.789  -4.862  -8.982  0.00  0.00    -0.271 OA
HETATM    4  H           1     -22.495  -4.835  -7.396  0.00  0.00     0.163 HD
ENDROOT
BRANCH   2   5
HETATM    5  C           1     -21.804  -3.968  -9.819  0.00  0.00     0.274 C 
BRANCH   5   6
HETATM    6  C           1     -23.118  -4.721  -9.978  0.00  0.00     0.045 C 
BRANCH   6   7
HETATM    7 Se           1     -24.604  -3.466  -9.859  0.00  0.00     0.000 Se
HETATM    8  H           1     -25.584  -4.391 -10.453  0.00  0.00     0.000 HD
ENDBRANCH   6   7
ENDBRANCH   5   6
BRANCH   5   9
HETATM    9  N           1     -21.068  -3.965 -11.126  0.00  0.00    -0.067 N 
HETATM   10  H           1     -20.570  -3.054 -11.244  0.00  0.00     0.275 HD
HETATM   11  H           1     -20.372  -4.745 -11.134  0.00  0.00     0.275 HD
HETATM   12  H           1     -21.748  -4.095 -11.908  0.00  0.00     0.275 HD
ENDBRANCH   5   9
ENDBRANCH   2   5
BRANCH   1  13
HETATM   13  C           1     -20.703  -5.668  -6.566  0.00  0.00     0.181 C 
HETATM   14  C           1     -20.158  -4.623  -5.601  0.00  0.00     0.043 C 
BRANCH  13  15
HETATM   15  C           1     -21.547  -6.663  -5.807  0.00  0.00     0.196 C 
HETATM   16  O           1     -22.434  -6.260  -5.024  0.00  0.00    -0.646 OA
HETATM   17  O           1     -21.359  -7.889  -5.962  0.00  0.00    -0.646 OA
ENDBRANCH  13  15
ENDBRANCH   1  13
TORSDOF 6
ENDMDL
MODEL 9
REMARK VINA RESULT:      -4.3     16.216     17.019
REMARK  6 active torsions:
REMARK  status: ('A' for Active; 'I' for Inactive)
REMARK    1  A    between atoms: C_2  and  C_3 
REMARK    2  A    between atoms: C_2  and  N_6 
REMARK       I    between atoms: N_6  and  C_7 
REMARK    3  A    between atoms: C_7  and  C_8 
REMARK    4  A    between atoms: C_8  and  C_9 
REMARK    5  A    between atoms: C_8  and  N_11 
REMARK    6  A    between atoms: C_9  and  Se_10 
ROOT
HETATM    1  N           1     -20.939  -5.295  -5.227  0.00  0.00    -0.345 N 
HETATM    2  C           1     -21.628  -6.189  -4.453  0.00  0.00     0.249 C 
HETATM    3  O           1     -22.525  -6.839  -4.935  0.00  0.00    -0.271 OA
HETATM    4  H           1     -20.187  -4.751  -4.823  0.00  0.00     0.163 HD
ENDROOT
BRANCH   2   5
HETATM    5  C           1     -21.268  -6.363  -2.998  0.00  0.00     0.274 C 
BRANCH   5   6
HETATM    6  C           1     -21.051  -7.841  -2.701  0.00  0.00     0.045 C 
BRANCH   6   7
HETATM    7 Se           1     -21.685  -8.242  -0.902  0.00  0.00     0.000 Se
HETATM    8  H           1     -22.196  -6.884  -0.654  0.00  0.00     0.000 HD
ENDBRANCH   6   7
ENDBRANCH   5   6
BRANCH   5   9
HETATM    9  N           1     -22.383  -5.839  -2.142  0.00  0.00    -0.067 N 
HETATM   10  H           1     -22.086  -4.944  -1.692  0.00  0.00     0.275 HD
HETATM   11  H           1     -23.225  -5.667  -2.737  0.00  0.00     0.275 HD
HETATM   12  H           1     -22.614  -6.541  -1.404  0.00  0.00     0.275 HD
ENDBRANCH   5   9
ENDBRANCH   2   5
BRANCH   1  13
HETATM   13  C           1     -21.285  -5.128  -6.625  0.00  0.00     0.181 C 
HETATM   14  C           1     -21.419  -3.644  -6.941  0.00  0.00     0.043 C 
BRANCH  13  15
HETATM   15  C           1     -20.201  -5.731  -7.486  0.00  0.00     0.196 C 
HETATM   16  O           1     -19.583  -6.744  -7.094  0.00  0.00    -0.646 OA
HETATM   17  O           1     -19.923  -5.216  -8.591  0.00  0.00    -0.646 OA
ENDBRANCH  13  15
ENDBRANCH   1  13
TORSDOF 6
ENDMDL
