MODEL 1
REMARK VINA RESULT:      -6.7      0.000      0.000
REMARK  9 active torsions:
REMARK  status: ('A' for Active; 'I' for Inactive)
REMARK    1  A    between atoms: C_1  and  C_4 
REMARK       I    between atoms: N_2  and  C_16 
REMARK    2  A    between atoms: C_3  and  C_16 
REMARK    3  A    between atoms: C_3  and  C_4 
REMARK    4  A    between atoms: C_4  and  N_23 
REMARK    5  A    between atoms: N_5  and  C_17 
REMARK    6  A    between atoms: C_12  and  C_17 
REMARK    7  A    between atoms: C_12  and  C_22 
REMARK       I    between atoms: C_14  and  N_23 
REMARK    8  A    between atoms: C_14  and  C_17 
REMARK    9  A    between atoms: C_21  and  C_22 
ROOT
HETATM    1  O           1     -36.807  -1.031 -12.714  0.00  0.00    -0.271 OA
HETATM    2  H           1     -34.051  -0.979 -14.212  0.00  0.00     0.163 HD
HETATM    3  C           1     -35.625  -1.207 -12.887  0.00  0.00     0.249 C 
HETATM    4  N           1     -35.042  -0.832 -14.067  0.00  0.00    -0.344 N 
ENDROOT
BRANCH   3   5
HETATM    5  C           1     -34.791  -1.842 -11.802  0.00  0.00     0.275 C 
BRANCH   5   6
HETATM    6  N           1     -35.676  -2.226 -10.652  0.00  0.00    -0.066 N 
HETATM    7  H           1     -36.115  -1.368 -10.249  0.00  0.00     0.275 HD
HETATM    8  H           1     -36.422  -2.875 -10.989  0.00  0.00     0.275 HD
HETATM    9  H           1     -35.104  -2.702  -9.918  0.00  0.00     0.275 HD
ENDBRANCH   5   6
BRANCH   5  10
HETATM   10  C           1     -34.103  -3.085 -12.349  0.00  0.00     0.053 C 
BRANCH  10  11
HETATM   11  C           1     -33.260  -3.724 -11.253  0.00  0.00     0.115 C 
BRANCH  11  12
HETATM   12  C           1     -33.788  -5.105 -10.951  0.00  0.00     0.172 C 
HETATM   13  O           1     -33.057  -6.105 -11.123  0.00  0.00    -0.648 OA
HETATM   14  O           1     -34.955  -5.249 -10.529  0.00  0.00    -0.648 OA
ENDBRANCH  11  12
ENDBRANCH  10  11
ENDBRANCH   5  10
ENDBRANCH   3   5
BRANCH   4  15
HETATM   15  C           1     -35.844  -0.222 -15.110  0.00  0.00     0.194 C 
BRANCH  15  16
HETATM   16  C           1     -35.693  -1.013 -16.387  0.00  0.00     0.197 C 
HETATM   17  O           1     -34.662  -1.692 -16.583  0.00  0.00    -0.646 OA
HETATM   18  O           1     -36.600  -0.989 -17.247  0.00  0.00    -0.646 OA
ENDBRANCH  15  16
BRANCH  15  19
HETATM   19  C           1     -35.374   1.208 -15.340  0.00  0.00     0.138 C 
BRANCH  19  20
HETATM   20  C           1     -36.442   1.976 -16.081  0.00  0.00     0.217 C 
HETATM   21  N           1     -37.751   1.586 -15.991  0.00  0.00    -0.370 N 
HETATM   22  H           1     -38.003   0.784 -15.429  0.00  0.00     0.159 HD
HETATM   23  H           1     -38.467   2.101 -16.488  0.00  0.00     0.159 HD
HETATM   24  O           1     -36.141   2.934 -16.753  0.00  0.00    -0.274 OA
ENDBRANCH  19  20
ENDBRANCH  15  19
ENDBRANCH   4  15
TORSDOF 9
ENDMDL
MODEL 2
REMARK VINA RESULT:      -6.6      1.841      3.326
REMARK  9 active torsions:
REMARK  status: ('A' for Active; 'I' for Inactive)
REMARK    1  A    between atoms: C_1  and  C_4 
REMARK       I    between atoms: N_2  and  C_16 
REMARK    2  A    between atoms: C_3  and  C_16 
REMARK    3  A    between atoms: C_3  and  C_4 
REMARK    4  A    between atoms: C_4  and  N_23 
REMARK    5  A    between atoms: N_5  and  C_17 
REMARK    6  A    between atoms: C_12  and  C_17 
REMARK    7  A    between atoms: C_12  and  C_22 
REMARK       I    between atoms: C_14  and  N_23 
REMARK    8  A    between atoms: C_14  and  C_17 
REMARK    9  A    between atoms: C_21  and  C_22 
ROOT
HETATM    1  O           1     -33.750  -2.191 -11.207  0.00  0.00    -0.271 OA
HETATM    2  H           1     -35.393  -2.015 -13.874  0.00  0.00     0.163 HD
HETATM    3  C           1     -34.283  -2.577 -12.220  0.00  0.00     0.249 C 
HETATM    4  N           1     -34.947  -1.691 -13.025  0.00  0.00    -0.344 N 
ENDROOT
BRANCH   3   5
HETATM    5  C           1     -34.215  -4.036 -12.599  0.00  0.00     0.275 C 
BRANCH   5   6
HETATM    6  N           1     -33.427  -4.187 -13.867  0.00  0.00    -0.066 N 
HETATM    7  H           1     -34.047  -4.001 -14.686  0.00  0.00     0.275 HD
HETATM    8  H           1     -32.635  -3.505 -13.867  0.00  0.00     0.275 HD
HETATM    9  H           1     -33.050  -5.160 -13.928  0.00  0.00     0.275 HD
ENDBRANCH   5   6
BRANCH   5  10
HETATM   10  C           1     -33.536  -4.820 -11.484  0.00  0.00     0.053 C 
BRANCH  10  11
HETATM   11  C           1     -34.594  -5.405 -10.557  0.00  0.00     0.115 C 
BRANCH  11  12
HETATM   12  C           1     -34.309  -6.869 -10.328  0.00  0.00     0.172 C 
HETATM   13  O           1     -35.188  -7.607  -9.833  0.00  0.00    -0.648 OA
HETATM   14  O           1     -33.194  -7.344 -10.632  0.00  0.00    -0.648 OA
ENDBRANCH  11  12
ENDBRANCH  10  11
ENDBRANCH   5  10
ENDBRANCH   3   5
BRANCH   4  15
HETATM   15  C           1     -35.013  -0.289 -12.661  0.00  0.00     0.194 C 
BRANCH  15  16
HETATM   16  C           1     -36.266  -0.036 -11.859  0.00  0.00     0.197 C 
HETATM   17  O           1     -36.199   0.577 -10.772  0.00  0.00    -0.646 OA
HETATM   18  O           1     -37.370  -0.440 -12.282  0.00  0.00    -0.646 OA
ENDBRANCH  15  16
BRANCH  15  19
HETATM   19  C           1     -35.037   0.562 -13.923  0.00  0.00     0.138 C 
BRANCH  19  20
HETATM   20  C           1     -35.620  -0.241 -15.061  0.00  0.00     0.217 C 
HETATM   21  N           1     -36.959  -0.162 -15.336  0.00  0.00    -0.370 N 
HETATM   22  H           1     -37.557   0.434 -14.778  0.00  0.00     0.159 HD
HETATM   23  H           1     -37.351  -0.700 -16.099  0.00  0.00     0.159 HD
HETATM   24  O           1     -34.907  -0.952 -15.727  0.00  0.00    -0.274 OA
ENDBRANCH  19  20
ENDBRANCH  15  19
ENDBRANCH   4  15
TORSDOF 9
ENDMDL
MODEL 3
REMARK VINA RESULT:      -6.4     12.781     15.344
REMARK  9 active torsions:
REMARK  status: ('A' for Active; 'I' for Inactive)
REMARK    1  A    between atoms: C_1  and  C_4 
REMARK       I    between atoms: N_2  and  C_16 
REMARK    2  A    between atoms: C_3  and  C_16 
REMARK    3  A    between atoms: C_3  and  C_4 
REMARK    4  A    between atoms: C_4  and  N_23 
REMARK    5  A    between atoms: N_5  and  C_17 
REMARK    6  A    between atoms: C_12  and  C_17 
REMARK    7  A    between atoms: C_12  and  C_22 
REMARK       I    between atoms: C_14  and  N_23 
REMARK    8  A    between atoms: C_14  and  C_17 
REMARK    9  A    between atoms: C_21  and  C_22 
ROOT
HETATM    1  O           1     -21.472  -3.641  -7.273  0.00  0.00    -0.271 OA
HETATM    2  H           1     -22.448  -5.934  -9.178  0.00  0.00     0.163 HD
HETATM    3  C           1     -21.650  -4.769  -7.665  0.00  0.00     0.249 C 
HETATM    4  N           1     -22.300  -4.988  -8.850  0.00  0.00    -0.344 N 
ENDROOT
BRANCH   3   5
HETATM    5  C           1     -21.156  -5.937  -6.849  0.00  0.00     0.275 C 
BRANCH   5   6
HETATM    6  N           1     -19.756  -6.282  -7.266  0.00  0.00    -0.066 N 
HETATM    7  H           1     -19.590  -7.303  -7.120  0.00  0.00     0.275 HD
HETATM    8  H           1     -19.626  -6.048  -8.276  0.00  0.00     0.275 HD
HETATM    9  H           1     -19.077  -5.733  -6.690  0.00  0.00     0.275 HD
ENDBRANCH   5   6
BRANCH   5  10
HETATM   10  C           1     -21.168  -5.568  -5.372  0.00  0.00     0.053 C 
BRANCH  10  11
HETATM   11  C           1     -22.193  -6.426  -4.641  0.00  0.00     0.115 C 
BRANCH  11  12
HETATM   12  C           1     -21.809  -6.540  -3.186  0.00  0.00     0.172 C 
HETATM   13  O           1     -20.829  -7.240  -2.852  0.00  0.00    -0.648 OA
HETATM   14  O           1     -22.470  -5.934  -2.316  0.00  0.00    -0.648 OA
ENDBRANCH  11  12
ENDBRANCH  10  11
ENDBRANCH   5  10
ENDBRANCH   3   5
BRANCH   4  15
HETATM   15  C           1     -22.775  -3.865  -9.635  0.00  0.00     0.194 C 
BRANCH  15  16
HETATM   16  C           1     -24.284  -3.859  -9.639  0.00  0.00     0.197 C 
HETATM   17  O           1     -24.913  -4.925  -9.818  0.00  0.00    -0.646 OA
HETATM   18  O           1     -24.905  -2.788  -9.465  0.00  0.00    -0.646 OA
ENDBRANCH  15  16
BRANCH  15  19
HETATM   19  C           1     -22.263  -3.992 -11.063  0.00  0.00     0.138 C 
BRANCH  19  20
HETATM   20  C           1     -20.764  -3.817 -11.078  0.00  0.00     0.217 C 
HETATM   21  N           1     -20.220  -2.611 -11.427  0.00  0.00    -0.370 N 
HETATM   22  H           1     -20.822  -1.836 -11.676  0.00  0.00     0.159 HD
HETATM   23  H           1     -19.214  -2.493 -11.438  0.00  0.00     0.159 HD
HETATM   24  O           1     -20.044  -4.741 -10.782  0.00  0.00    -0.274 OA
ENDBRANCH  19  20
ENDBRANCH  15  19
ENDBRANCH   4  15
TORSDOF 9
ENDMDL
MODEL 4
REMARK VINA RESULT:      -6.1      2.883      3.932
REMARK  9 active torsions:
REMARK  status: ('A' for Active; 'I' for Inactive)
REMARK    1  A    between atoms: C_1  and  C_4 
REMARK       I    between atoms: N_2  and  C_16 
REMARK    2  A    between atoms: C_3  and  C_16 
REMARK    3  A    between atoms: C_3  and  C_4 
REMARK    4  A    between atoms: C_4  and  N_23 
REMARK    5  A    between atoms: N_5  and  C_17 
REMARK    6  A    between atoms: C_12  and  C_17 
REMARK    7  A    between atoms: C_12  and  C_22 
REMARK       I    between atoms: C_14  and  N_23 
REMARK    8  A    between atoms: C_14  and  C_17 
REMARK    9  A    between atoms: C_21  and  C_22 
ROOT
HETATM    1  O           1     -38.042  -0.230 -12.948  0.00  0.00    -0.271 OA
HETATM    2  H           1     -34.967  -0.827 -12.782  0.00  0.00     0.163 HD
HETATM    3  C           1     -36.979  -0.489 -12.436  0.00  0.00     0.249 C 
HETATM    4  N           1     -35.857  -0.611 -13.211  0.00  0.00    -0.344 N 
ENDROOT
BRANCH   3   5
HETATM    5  C           1     -36.888  -0.676 -10.942  0.00  0.00     0.275 C 
BRANCH   5   6
HETATM    6  N           1     -35.472  -0.997 -10.564  0.00  0.00    -0.066 N 
HETATM    7  H           1     -34.903  -0.121 -10.571  0.00  0.00     0.275 HD
HETATM    8  H           1     -35.454  -1.417  -9.607  0.00  0.00     0.275 HD
HETATM    9  H           1     -35.074  -1.676 -11.251  0.00  0.00     0.275 HD
ENDBRANCH   5   6
BRANCH   5  10
HETATM   10  C           1     -37.323   0.603 -10.240  0.00  0.00     0.053 C 
BRANCH  10  11
HETATM   11  C           1     -37.760   0.279  -8.817  0.00  0.00     0.115 C 
BRANCH  11  12
HETATM   12  C           1     -36.750   0.834  -7.842  0.00  0.00     0.172 C 
HETATM   13  O           1     -35.578   0.401  -7.841  0.00  0.00    -0.648 OA
HETATM   14  O           1     -37.087   1.727  -7.035  0.00  0.00    -0.648 OA
ENDBRANCH  11  12
ENDBRANCH  10  11
ENDBRANCH   5  10
ENDBRANCH   3   5
BRANCH   4  15
HETATM   15  C           1     -35.945  -0.430 -14.647  0.00  0.00     0.194 C 
BRANCH  15  16
HETATM   16  C           1     -35.165  -1.521 -15.339  0.00  0.00     0.197 C 
HETATM   17  O           1     -34.889  -1.418 -16.554  0.00  0.00    -0.646 OA
HETATM   18  O           1     -34.795  -2.528 -14.697  0.00  0.00    -0.646 OA
ENDBRANCH  15  16
BRANCH  15  19
HETATM   19  C           1     -35.365   0.926 -15.024  0.00  0.00     0.138 C 
BRANCH  19  20
HETATM   20  C           1     -36.364   1.687 -15.861  0.00  0.00     0.217 C 
HETATM   21  N           1     -37.676   1.296 -15.882  0.00  0.00    -0.370 N 
HETATM   22  H           1     -37.975   0.498 -15.337  0.00  0.00     0.159 HD
HETATM   23  H           1     -38.347   1.805 -16.444  0.00  0.00     0.159 HD
HETATM   24  O           1     -36.007   2.639 -16.512  0.00  0.00    -0.274 OA
ENDBRANCH  19  20
ENDBRANCH  15  19
ENDBRANCH   4  15
TORSDOF 9
ENDMDL
MODEL 5
REMARK VINA RESULT:      -6.0      1.920      6.604
REMARK  9 active torsions:
REMARK  status: ('A' for Active; 'I' for Inactive)
REMARK    1  A    between atoms: C_1  and  C_4 
REMARK       I    between atoms: N_2  and  C_16 
REMARK    2  A    between atoms: C_3  and  C_16 
REMARK    3  A    between atoms: C_3  and  C_4 
REMARK    4  A    between atoms: C_4  and  N_23 
REMARK    5  A    between atoms: N_5  and  C_17 
REMARK    6  A    between atoms: C_12  and  C_17 
REMARK    7  A    between atoms: C_12  and  C_22 
REMARK       I    between atoms: C_14  and  N_23 
REMARK    8  A    between atoms: C_14  and  C_17 
REMARK    9  A    between atoms: C_21  and  C_22 
ROOT
HETATM    1  O           1     -34.862  -2.218 -14.318  0.00  0.00    -0.271 OA
HETATM    2  H           1     -34.944  -1.238 -11.339  0.00  0.00     0.163 HD
HETATM    3  C           1     -34.970  -1.442 -13.398  0.00  0.00     0.249 C 
HETATM    4  N           1     -34.854  -1.888 -12.109  0.00  0.00    -0.344 N 
ENDROOT
BRANCH   3   5
HETATM    5  C           1     -35.234   0.018 -13.671  0.00  0.00     0.275 C 
BRANCH   5   6
HETATM    6  N           1     -34.338   0.488 -14.779  0.00  0.00    -0.066 N 
HETATM    7  H           1     -34.324   1.533 -14.796  0.00  0.00     0.275 HD
HETATM    8  H           1     -33.370   0.130 -14.620  0.00  0.00     0.275 HD
HETATM    9  H           1     -34.698   0.130 -15.692  0.00  0.00     0.275 HD
ENDBRANCH   5   6
BRANCH   5  10
HETATM   10  C           1     -36.688   0.205 -14.081  0.00  0.00     0.053 C 
BRANCH  10  11
HETATM   11  C           1     -36.753   0.648 -15.537  0.00  0.00     0.115 C 
BRANCH  11  12
HETATM   12  C           1     -36.939  -0.560 -16.423  0.00  0.00     0.172 C 
HETATM   13  O           1     -35.991  -0.970 -17.126  0.00  0.00    -0.648 OA
HETATM   14  O           1     -38.040  -1.149 -16.453  0.00  0.00    -0.648 OA
ENDBRANCH  11  12
ENDBRANCH  10  11
ENDBRANCH   5  10
ENDBRANCH   3   5
BRANCH   4  15
HETATM   15  C           1     -34.601  -3.291 -11.847  0.00  0.00     0.194 C 
BRANCH  15  16
HETATM   16  C           1     -35.648  -3.822 -10.899  0.00  0.00     0.197 C 
HETATM   17  O           1     -35.544  -4.980 -10.439  0.00  0.00    -0.646 OA
HETATM   18  O           1     -36.618  -3.105 -10.575  0.00  0.00    -0.646 OA
ENDBRANCH  15  16
BRANCH  15  19
HETATM   19  C           1     -33.221  -3.450 -11.221  0.00  0.00     0.138 C 
BRANCH  19  20
HETATM   20  C           1     -32.571  -4.706 -11.747  0.00  0.00     0.217 C 
HETATM   21  N           1     -33.084  -5.931 -11.416  0.00  0.00    -0.370 N 
HETATM   22  H           1     -33.899  -5.994 -10.820  0.00  0.00     0.159 HD
HETATM   23  H           1     -32.648  -6.774 -11.769  0.00  0.00     0.159 HD
HETATM   24  O           1     -31.598  -4.630 -12.458  0.00  0.00    -0.274 OA
ENDBRANCH  19  20
ENDBRANCH  15  19
ENDBRANCH   4  15
TORSDOF 9
ENDMDL
MODEL 6
REMARK VINA RESULT:      -5.9     13.312     17.198
REMARK  9 active torsions:
REMARK  status: ('A' for Active; 'I' for Inactive)
REMARK    1  A    between atoms: C_1  and  C_4 
REMARK       I    between atoms: N_2  and  C_16 
REMARK    2  A    between atoms: C_3  and  C_16 
REMARK    3  A    between atoms: C_3  and  C_4 
REMARK    4  A    between atoms: C_4  and  N_23 
REMARK    5  A    between atoms: N_5  and  C_17 
REMARK    6  A    between atoms: C_12  and  C_17 
REMARK    7  A    between atoms: C_12  and  C_22 
REMARK       I    between atoms: C_14  and  N_23 
REMARK    8  A    between atoms: C_14  and  C_17 
REMARK    9  A    between atoms: C_21  and  C_22 
ROOT
HETATM    1  O           1     -19.568  -4.533  -6.283  0.00  0.00    -0.271 OA
HETATM    2  H           1     -22.434  -5.767  -6.600  0.00  0.00     0.163 HD
HETATM    3  C           1     -20.677  -4.684  -6.738  0.00  0.00     0.249 C 
HETATM    4  N           1     -21.505  -5.642  -6.219  0.00  0.00    -0.344 N 
ENDROOT
BRANCH   3   5
HETATM    5  C           1     -21.148  -3.814  -7.877  0.00  0.00     0.275 C 
BRANCH   5   6
HETATM    6  N           1     -20.203  -3.952  -9.034  0.00  0.00    -0.066 N 
HETATM    7  H           1     -19.396  -4.554  -8.755  0.00  0.00     0.275 HD
HETATM    8  H           1     -20.702  -4.391  -9.841  0.00  0.00     0.275 HD
HETATM    9  H           1     -19.853  -3.007  -9.311  0.00  0.00     0.275 HD
ENDBRANCH   5   6
BRANCH   5  10
HETATM   10  C           1     -22.542  -4.249  -8.307  0.00  0.00     0.053 C 
BRANCH  10  11
HETATM   11  C           1     -22.695  -4.055  -9.810  0.00  0.00     0.115 C 
BRANCH  11  12
HETATM   12  C           1     -24.098  -3.594 -10.119  0.00  0.00     0.172 C 
HETATM   13  O           1     -24.620  -3.872 -11.220  0.00  0.00    -0.648 OA
HETATM   14  O           1     -24.739  -2.934  -9.273  0.00  0.00    -0.648 OA
ENDBRANCH  11  12
ENDBRANCH  10  11
ENDBRANCH   5  10
ENDBRANCH   3   5
BRANCH   4  15
HETATM   15  C           1     -21.052  -6.477  -5.124  0.00  0.00     0.194 C 
BRANCH  15  16
HETATM   16  C           1     -20.545  -7.790  -5.670  0.00  0.00     0.197 C 
HETATM   17  O           1     -21.336  -8.744  -5.835  0.00  0.00    -0.646 OA
HETATM   18  O           1     -19.336  -7.922  -5.956  0.00  0.00    -0.646 OA
ENDBRANCH  15  16
BRANCH  15  19
HETATM   19  C           1     -22.211  -6.736  -4.171  0.00  0.00     0.138 C 
BRANCH  19  20
HETATM   20  C           1     -21.725  -6.628  -2.746  0.00  0.00     0.217 C 
HETATM   21  N           1     -22.325  -5.750  -1.884  0.00  0.00    -0.370 N 
HETATM   22  H           1     -23.093  -5.173  -2.202  0.00  0.00     0.159 HD
HETATM   23  H           1     -21.999  -5.677  -0.928  0.00  0.00     0.159 HD
HETATM   24  O           1     -20.807  -7.316  -2.367  0.00  0.00    -0.274 OA
ENDBRANCH  19  20
ENDBRANCH  15  19
ENDBRANCH   4  15
TORSDOF 9
ENDMDL
MODEL 7
REMARK VINA RESULT:      -5.8     13.959     17.720
REMARK  9 active torsions:
REMARK  status: ('A' for Active; 'I' for Inactive)
REMARK    1  A    between atoms: C_1  and  C_4 
REMARK       I    between atoms: N_2  and  C_16 
REMARK    2  A    between atoms: C_3  and  C_16 
REMARK    3  A    between atoms: C_3  and  C_4 
REMARK    4  A    between atoms: C_4  and  N_23 
REMARK    5  A    between atoms: N_5  and  C_17 
REMARK    6  A    between atoms: C_12  and  C_17 
REMARK    7  A    between atoms: C_12  and  C_22 
REMARK       I    between atoms: C_14  and  N_23 
REMARK    8  A    between atoms: C_14  and  C_17 
REMARK    9  A    between atoms: C_21  and  C_22 
ROOT
HETATM    1  O           1     -20.721  -4.558  -5.882  0.00  0.00    -0.271 OA
HETATM    2  H           1     -21.737  -7.380  -6.800  0.00  0.00     0.163 HD
HETATM    3  C           1     -21.256  -5.379  -6.589  0.00  0.00     0.249 C 
HETATM    4  N           1     -21.289  -6.693  -6.208  0.00  0.00    -0.344 N 
ENDROOT
BRANCH   3   5
HETATM    5  C           1     -21.887  -4.955  -7.892  0.00  0.00     0.275 C 
BRANCH   5   6
HETATM    6  N           1     -23.132  -4.165  -7.610  0.00  0.00    -0.066 N 
HETATM    7  H           1     -22.978  -3.559  -6.774  0.00  0.00     0.275 HD
HETATM    8  H           1     -23.360  -3.568  -8.437  0.00  0.00     0.275 HD
HETATM    9  H           1     -23.924  -4.821  -7.424  0.00  0.00     0.275 HD
ENDBRANCH   5   6
BRANCH   5  10
HETATM   10  C           1     -20.907  -4.093  -8.676  0.00  0.00     0.053 C 
BRANCH  10  11
HETATM   11  C           1     -20.988  -4.448 -10.155  0.00  0.00     0.115 C 
BRANCH  11  12
HETATM   12  C           1     -21.908  -3.479 -10.856  0.00  0.00     0.172 C 
HETATM   13  O           1     -23.146  -3.579 -10.714  0.00  0.00    -0.648 OA
HETATM   14  O           1     -21.433  -2.578 -11.580  0.00  0.00    -0.648 OA
ENDBRANCH  11  12
ENDBRANCH  10  11
ENDBRANCH   5  10
ENDBRANCH   3   5
BRANCH   4  15
HETATM   15  C           1     -20.682  -7.100  -4.956  0.00  0.00     0.194 C 
BRANCH  15  16
HETATM   16  C           1     -19.726  -8.241  -5.208  0.00  0.00     0.197 C 
HETATM   17  O           1     -19.687  -9.210  -4.419  0.00  0.00    -0.646 OA
HETATM   18  O           1     -18.974  -8.216  -6.206  0.00  0.00    -0.646 OA
ENDBRANCH  15  16
BRANCH  15  19
HETATM   19  C           1     -21.769  -7.553  -3.989  0.00  0.00     0.138 C 
BRANCH  19  20
HETATM   20  C           1     -21.551  -6.900  -2.646  0.00  0.00     0.217 C 
HETATM   21  N           1     -22.326  -5.835  -2.270  0.00  0.00    -0.370 N 
HETATM   22  H           1     -23.043  -5.486  -2.892  0.00  0.00     0.159 HD
HETATM   23  H           1     -22.180  -5.397  -1.369  0.00  0.00     0.159 HD
HETATM   24  O           1     -20.694  -7.316  -1.903  0.00  0.00    -0.274 OA
ENDBRANCH  19  20
ENDBRANCH  15  19
ENDBRANCH   4  15
TORSDOF 9
ENDMDL
MODEL 8
REMARK VINA RESULT:      -5.7     13.975     16.946
REMARK  9 active torsions:
REMARK  status: ('A' for Active; 'I' for Inactive)
REMARK    1  A    between atoms: C_1  and  C_4 
REMARK       I    between atoms: N_2  and  C_16 
REMARK    2  A    between atoms: C_3  and  C_16 
REMARK    3  A    between atoms: C_3  and  C_4 
REMARK    4  A    between atoms: C_4  and  N_23 
REMARK    5  A    between atoms: N_5  and  C_17 
REMARK    6  A    between atoms: C_12  and  C_17 
REMARK    7  A    between atoms: C_12  and  C_22 
REMARK       I    between atoms: C_14  and  N_23 
REMARK    8  A    between atoms: C_14  and  C_17 
REMARK    9  A    between atoms: C_21  and  C_22 
ROOT
HETATM    1  O           1     -21.048  -7.700  -6.315  0.00  0.00    -0.271 OA
HETATM    2  H           1     -22.098  -4.971  -5.178  0.00  0.00     0.163 HD
HETATM    3  C           1     -21.516  -6.928  -5.511  0.00  0.00     0.249 C 
HETATM    4  N           1     -21.705  -5.616  -5.851  0.00  0.00    -0.344 N 
ENDROOT
BRANCH   3   5
HETATM    5  C           1     -21.890  -7.413  -4.133  0.00  0.00     0.275 C 
BRANCH   5   6
HETATM    6  N           1     -21.447  -8.837  -3.967  0.00  0.00    -0.066 N 
HETATM    7  H           1     -21.958  -9.443  -4.647  0.00  0.00     0.275 HD
HETATM    8  H           1     -20.419  -8.905  -4.143  0.00  0.00     0.275 HD
HETATM    9  H           1     -21.656  -9.154  -2.993  0.00  0.00     0.275 HD
ENDBRANCH   5   6
BRANCH   5  10
HETATM   10  C           1     -21.208  -6.545  -3.085  0.00  0.00     0.053 C 
BRANCH  10  11
HETATM   11  C           1     -22.212  -6.173  -2.001  0.00  0.00     0.115 C 
BRANCH  11  12
HETATM   12  C           1     -22.184  -7.214  -0.909  0.00  0.00     0.172 C 
HETATM   13  O           1     -23.151  -7.325  -0.126  0.00  0.00    -0.648 OA
HETATM   14  O           1     -21.193  -7.966  -0.788  0.00  0.00    -0.648 OA
ENDBRANCH  11  12
ENDBRANCH  10  11
ENDBRANCH   5  10
ENDBRANCH   3   5
BRANCH   4  15
HETATM   15  C           1     -21.345  -5.151  -7.176  0.00  0.00     0.194 C 
BRANCH  15  16
HETATM   16  C           1     -19.923  -4.647  -7.162  0.00  0.00     0.197 C 
HETATM   17  O           1     -19.308  -4.541  -6.079  0.00  0.00    -0.646 OA
HETATM   18  O           1     -19.359  -4.337  -8.234  0.00  0.00    -0.646 OA
ENDBRANCH  15  16
BRANCH  15  19
HETATM   19  C           1     -22.280  -4.022  -7.588  0.00  0.00     0.138 C 
BRANCH  19  20
HETATM   20  C           1     -22.792  -4.276  -8.985  0.00  0.00     0.217 C 
HETATM   21  N           1     -21.909  -4.428 -10.020  0.00  0.00    -0.370 N 
HETATM   22  H           1     -20.913  -4.370  -9.848  0.00  0.00     0.159 HD
HETATM   23  H           1     -22.251  -4.599 -10.957  0.00  0.00     0.159 HD
HETATM   24  O           1     -23.981  -4.346  -9.190  0.00  0.00    -0.274 OA
ENDBRANCH  19  20
ENDBRANCH  15  19
ENDBRANCH   4  15
TORSDOF 9
ENDMDL
MODEL 9
REMARK VINA RESULT:      -5.7      2.416      4.113
REMARK  9 active torsions:
REMARK  status: ('A' for Active; 'I' for Inactive)
REMARK    1  A    between atoms: C_1  and  C_4 
REMARK       I    between atoms: N_2  and  C_16 
REMARK    2  A    between atoms: C_3  and  C_16 
REMARK    3  A    between atoms: C_3  and  C_4 
REMARK    4  A    between atoms: C_4  and  N_23 
REMARK    5  A    between atoms: N_5  and  C_17 
REMARK    6  A    between atoms: C_12  and  C_17 
REMARK    7  A    between atoms: C_12  and  C_22 
REMARK       I    between atoms: C_14  and  N_23 
REMARK    8  A    between atoms: C_14  and  C_17 
REMARK    9  A    between atoms: C_21  and  C_22 
ROOT
HETATM    1  O           1     -33.727  -1.473 -10.625  0.00  0.00    -0.271 OA
HETATM    2  H           1     -36.638  -2.440 -11.283  0.00  0.00     0.163 HD
HETATM    3  C           1     -34.645  -2.246 -10.760  0.00  0.00     0.249 C 
HETATM    4  N           1     -35.870  -1.791 -11.169  0.00  0.00    -0.344 N 
ENDROOT
BRANCH   3   5
HETATM    5  C           1     -34.441  -3.714 -10.479  0.00  0.00     0.275 C 
BRANCH   5   6
HETATM    6  N           1     -35.745  -4.440 -10.639  0.00  0.00    -0.066 N 
HETATM    7  H           1     -36.533  -3.797 -10.401  0.00  0.00     0.275 HD
HETATM    8  H           1     -35.844  -4.761 -11.628  0.00  0.00     0.275 HD
HETATM    9  H           1     -35.763  -5.266  -9.999  0.00  0.00     0.275 HD
ENDBRANCH   5   6
BRANCH   5  10
HETATM   10  C           1     -33.421  -4.283 -11.455  0.00  0.00     0.053 C 
BRANCH  10  11
HETATM   11  C           1     -33.480  -3.504 -12.763  0.00  0.00     0.115 C 
BRANCH  11  12
HETATM   12  C           1     -34.304  -4.270 -13.769  0.00  0.00     0.172 C 
HETATM   13  O           1     -34.279  -3.943 -14.976  0.00  0.00    -0.648 OA
HETATM   14  O           1     -35.011  -5.230 -13.396  0.00  0.00    -0.648 OA
ENDBRANCH  11  12
ENDBRANCH  10  11
ENDBRANCH   5  10
ENDBRANCH   3   5
BRANCH   4  15
HETATM   15  C           1     -36.066  -0.380 -11.439  0.00  0.00     0.194 C 
BRANCH  15  16
HETATM   16  C           1     -36.840   0.245 -10.305  0.00  0.00     0.197 C 
HETATM   17  O           1     -37.972   0.733 -10.516  0.00  0.00    -0.646 OA
HETATM   18  O           1     -36.350   0.277  -9.156  0.00  0.00    -0.646 OA
ENDBRANCH  15  16
BRANCH  15  19
HETATM   19  C           1     -36.844  -0.216 -12.738  0.00  0.00     0.138 C 
BRANCH  19  20
HETATM   20  C           1     -35.882   0.024 -13.875  0.00  0.00     0.217 C 
HETATM   21  N           1     -36.180   0.949 -14.839  0.00  0.00    -0.370 N 
HETATM   22  H           1     -37.045   1.471 -14.790  0.00  0.00     0.159 HD
HETATM   23  H           1     -35.534   1.110 -15.602  0.00  0.00     0.159 HD
HETATM   24  O           1     -34.849  -0.599 -13.935  0.00  0.00    -0.274 OA
ENDBRANCH  19  20
ENDBRANCH  15  19
ENDBRANCH   4  15
TORSDOF 9
ENDMDL
