MODEL 1
REMARK VINA RESULT:      -6.5      0.000      0.000
REMARK  8 active torsions:
REMARK  status: ('A' for Active; 'I' for Inactive)
REMARK    1  A    between atoms: N_1  and  C_6 
REMARK       I    between atoms: N_1  and  C_3 
REMARK    2  A    between atoms: C_3  and  C_9 
REMARK    3  A    between atoms: N_4  and  C_9 
REMARK    4  A    between atoms: C_5  and  C_8 
REMARK    5  A    between atoms: C_5  and  C_6 
REMARK    6  A    between atoms: C_6  and  C_17 
REMARK    7  A    between atoms: C_8  and  C_20 
REMARK    8  A    between atoms: C_9  and  C_18 
ROOT
HETATM    1  N           1     -27.474  -6.609 -18.473  0.00  0.00    -0.345 N 
HETATM    2  C           1     -26.263  -6.267 -17.935  0.00  0.00     0.249 C 
HETATM    3  H           1     -27.514  -7.100 -19.357  0.00  0.00     0.163 HD
HETATM    4  O           1     -26.216  -5.681 -16.880  0.00  0.00    -0.271 OA
ENDROOT
BRANCH   1   5
HETATM    5  C           1     -28.700  -6.270 -17.777  0.00  0.00     0.186 C 
BRANCH   5   6
HETATM    6  C           1     -29.372  -5.096 -18.476  0.00  0.00     0.046 C 
BRANCH   6   7
HETATM    7  C           1     -29.742  -4.035 -17.448  0.00  0.00     0.116 C 
BRANCH   7   8
HETATM    8  C           1     -31.244  -3.953 -17.327  0.00  0.00     0.172 C 
HETATM    9  O           1     -31.878  -4.874 -16.767  0.00  0.00    -0.648 OA
HETATM   10  O           1     -31.854  -2.964 -17.787  0.00  0.00    -0.648 OA
ENDBRANCH   7   8
ENDBRANCH   6   7
ENDBRANCH   5   6
BRANCH   5  11
HETATM   11  C           1     -29.628  -7.460 -17.783  0.00  0.00     0.196 C 
HETATM   12  O           1     -29.479  -8.372 -16.943  0.00  0.00    -0.646 OA
HETATM   13  O           1     -30.544  -7.532 -18.631  0.00  0.00    -0.646 OA
ENDBRANCH   5  11
ENDBRANCH   1   5
BRANCH   2  14
HETATM   14  C           1     -24.988  -6.620 -18.659  0.00  0.00     0.278 C 
BRANCH  14  15
HETATM   15  N           1     -24.243  -7.664 -17.881  0.00  0.00    -0.066 N 
HETATM   16  H           1     -24.604  -8.612 -18.135  0.00  0.00     0.275 HD
HETATM   17  H           1     -23.225  -7.606 -18.108  0.00  0.00     0.275 HD
HETATM   18  H           1     -24.383  -7.500 -16.858  0.00  0.00     0.275 HD
ENDBRANCH  14  15
BRANCH  14  19
HETATM   19  C           1     -25.322  -7.161 -20.043  0.00  0.00     0.017 C 
HETATM   20  C           1     -24.178  -8.036 -20.537  0.00  0.00     0.012 C 
HETATM   21  C           1     -25.524  -6.000 -21.007  0.00  0.00     0.012 C 
ENDBRANCH  14  19
ENDBRANCH   2  14
TORSDOF 8
ENDMDL
MODEL 2
REMARK VINA RESULT:      -6.1      1.653      2.181
REMARK  8 active torsions:
REMARK  status: ('A' for Active; 'I' for Inactive)
REMARK    1  A    between atoms: N_1  and  C_6 
REMARK       I    between atoms: N_1  and  C_3 
REMARK    2  A    between atoms: C_3  and  C_9 
REMARK    3  A    between atoms: N_4  and  C_9 
REMARK    4  A    between atoms: C_5  and  C_8 
REMARK    5  A    between atoms: C_5  and  C_6 
REMARK    6  A    between atoms: C_6  and  C_17 
REMARK    7  A    between atoms: C_8  and  C_20 
REMARK    8  A    between atoms: C_9  and  C_18 
ROOT
HETATM    1  N           1     -27.568  -6.099 -18.281  0.00  0.00    -0.345 N 
HETATM    2  C           1     -26.382  -6.365 -18.910  0.00  0.00     0.249 C 
HETATM    3  H           1     -28.421  -6.025 -18.819  0.00  0.00     0.163 HD
HETATM    4  O           1     -25.364  -6.453 -18.266  0.00  0.00    -0.271 OA
ENDROOT
BRANCH   1   5
HETATM    5  C           1     -27.603  -5.923 -16.842  0.00  0.00     0.186 C 
BRANCH   5   6
HETATM    6  C           1     -28.383  -4.660 -16.503  0.00  0.00     0.046 C 
BRANCH   6   7
HETATM    7  C           1     -29.172  -4.207 -17.724  0.00  0.00     0.116 C 
BRANCH   7   8
HETATM    8  C           1     -30.631  -4.079 -17.361  0.00  0.00     0.172 C 
HETATM    9  O           1     -31.228  -2.996 -17.544  0.00  0.00    -0.648 OA
HETATM   10  O           1     -31.242  -5.055 -16.877  0.00  0.00    -0.648 OA
ENDBRANCH   7   8
ENDBRANCH   6   7
ENDBRANCH   5   6
BRANCH   5  11
HETATM   11  C           1     -28.273  -7.116 -16.206  0.00  0.00     0.196 C 
HETATM   12  O           1     -29.203  -7.701 -16.801  0.00  0.00    -0.646 OA
HETATM   13  O           1     -27.899  -7.517 -15.082  0.00  0.00    -0.646 OA
ENDBRANCH   5  11
ENDBRANCH   1   5
BRANCH   2  14
HETATM   14  C           1     -26.346  -6.548 -20.407  0.00  0.00     0.278 C 
BRANCH  14  15
HETATM   15  N           1     -25.324  -5.625 -21.000  0.00  0.00    -0.066 N 
HETATM   16  H           1     -25.114  -5.920 -21.980  0.00  0.00     0.275 HD
HETATM   17  H           1     -25.697  -4.649 -21.002  0.00  0.00     0.275 HD
HETATM   18  H           1     -24.449  -5.662 -20.429  0.00  0.00     0.275 HD
ENDBRANCH  14  15
BRANCH  14  19
HETATM   19  C           1     -25.979  -7.989 -20.735  0.00  0.00     0.017 C 
HETATM   20  C           1     -24.824  -8.006 -21.728  0.00  0.00     0.012 C 
HETATM   21  C           1     -27.182  -8.694 -21.345  0.00  0.00     0.012 C 
ENDBRANCH  14  19
ENDBRANCH   2  14
TORSDOF 8
ENDMDL
MODEL 3
REMARK VINA RESULT:      -6.0      1.718      2.978
REMARK  8 active torsions:
REMARK  status: ('A' for Active; 'I' for Inactive)
REMARK    1  A    between atoms: N_1  and  C_6 
REMARK       I    between atoms: N_1  and  C_3 
REMARK    2  A    between atoms: C_3  and  C_9 
REMARK    3  A    between atoms: N_4  and  C_9 
REMARK    4  A    between atoms: C_5  and  C_8 
REMARK    5  A    between atoms: C_5  and  C_6 
REMARK    6  A    between atoms: C_6  and  C_17 
REMARK    7  A    between atoms: C_8  and  C_20 
REMARK    8  A    between atoms: C_9  and  C_18 
ROOT
HETATM    1  N           1     -26.388  -6.722 -18.249  0.00  0.00    -0.345 N 
HETATM    2  C           1     -25.190  -6.946 -18.873  0.00  0.00     0.249 C 
HETATM    3  H           1     -27.244  -7.075 -18.656  0.00  0.00     0.163 HD
HETATM    4  O           1     -24.168  -6.525 -18.386  0.00  0.00    -0.271 OA
ENDROOT
BRANCH   1   5
HETATM    5  C           1     -26.429  -5.981 -17.003  0.00  0.00     0.186 C 
BRANCH   5   6
HETATM    6  C           1     -27.708  -5.156 -16.946  0.00  0.00     0.046 C 
BRANCH   6   7
HETATM    7  C           1     -28.517  -5.383 -18.216  0.00  0.00     0.116 C 
BRANCH   7   8
HETATM    8  C           1     -29.617  -6.380 -17.941  0.00  0.00     0.172 C 
HETATM    9  O           1     -29.542  -7.538 -18.406  0.00  0.00    -0.648 OA
HETATM   10  O           1     -30.602  -6.047 -17.249  0.00  0.00    -0.648 OA
ENDBRANCH   7   8
ENDBRANCH   6   7
ENDBRANCH   5   6
BRANCH   5  11
HETATM   11  C           1     -26.399  -6.945 -15.843  0.00  0.00     0.196 C 
HETATM   12  O           1     -25.306  -7.283 -15.341  0.00  0.00    -0.646 OA
HETATM   13  O           1     -27.467  -7.405 -15.385  0.00  0.00    -0.646 OA
ENDBRANCH   5  11
ENDBRANCH   1   5
BRANCH   2  14
HETATM   14  C           1     -25.147  -7.718 -20.168  0.00  0.00     0.278 C 
BRANCH  14  15
HETATM   15  N           1     -26.546  -7.994 -20.633  0.00  0.00    -0.066 N 
HETATM   16  H           1     -26.984  -7.106 -20.967  0.00  0.00     0.275 HD
HETATM   17  H           1     -26.522  -8.686 -21.415  0.00  0.00     0.275 HD
HETATM   18  H           1     -27.105  -8.383 -19.840  0.00  0.00     0.275 HD
ENDBRANCH  14  15
BRANCH  14  19
HETATM   19  C           1     -24.414  -6.900 -21.223  0.00  0.00     0.017 C 
HETATM   20  C           1     -25.295  -5.742 -21.671  0.00  0.00     0.012 C 
HETATM   21  C           1     -24.093  -7.785 -22.420  0.00  0.00     0.012 C 
ENDBRANCH  14  19
ENDBRANCH   2  14
TORSDOF 8
ENDMDL
MODEL 4
REMARK VINA RESULT:      -5.9      2.039      3.413
REMARK  8 active torsions:
REMARK  status: ('A' for Active; 'I' for Inactive)
REMARK    1  A    between atoms: N_1  and  C_6 
REMARK       I    between atoms: N_1  and  C_3 
REMARK    2  A    between atoms: C_3  and  C_9 
REMARK    3  A    between atoms: N_4  and  C_9 
REMARK    4  A    between atoms: C_5  and  C_8 
REMARK    5  A    between atoms: C_5  and  C_6 
REMARK    6  A    between atoms: C_6  and  C_17 
REMARK    7  A    between atoms: C_8  and  C_20 
REMARK    8  A    between atoms: C_9  and  C_18 
ROOT
HETATM    1  N           1     -27.796  -6.327 -18.510  0.00  0.00    -0.345 N 
HETATM    2  C           1     -27.179  -6.403 -19.730  0.00  0.00     0.249 C 
HETATM    3  H           1     -27.639  -7.048 -17.818  0.00  0.00     0.163 HD
HETATM    4  O           1     -27.366  -5.543 -20.556  0.00  0.00    -0.271 OA
ENDROOT
BRANCH   1   5
HETATM    5  C           1     -28.675  -5.213 -18.210  0.00  0.00     0.186 C 
BRANCH   5   6
HETATM    6  C           1     -30.021  -5.742 -17.737  0.00  0.00     0.046 C 
BRANCH   6   7
HETATM    7  C           1     -29.919  -7.240 -17.483  0.00  0.00     0.116 C 
BRANCH   7   8
HETATM    8  C           1     -30.437  -7.991 -18.686  0.00  0.00     0.172 C 
HETATM    9  O           1     -29.669  -8.727 -19.342  0.00  0.00    -0.648 OA
HETATM   10  O           1     -31.635  -7.876 -19.025  0.00  0.00    -0.648 OA
ENDBRANCH   7   8
ENDBRANCH   6   7
ENDBRANCH   5   6
BRANCH   5  11
HETATM   11  C           1     -28.057  -4.364 -17.127  0.00  0.00     0.196 C 
HETATM   12  O           1     -28.433  -3.183 -16.969  0.00  0.00    -0.646 OA
HETATM   13  O           1     -27.168  -4.842 -16.389  0.00  0.00    -0.646 OA
ENDBRANCH   5  11
ENDBRANCH   1   5
BRANCH   2  14
HETATM   14  C           1     -26.264  -7.562 -20.042  0.00  0.00     0.278 C 
BRANCH  14  15
HETATM   15  N           1     -26.897  -8.431 -21.088  0.00  0.00    -0.066 N 
HETATM   16  H           1     -26.153  -8.857 -21.685  0.00  0.00     0.275 HD
HETATM   17  H           1     -27.448  -9.188 -20.625  0.00  0.00     0.275 HD
HETATM   18  H           1     -27.532  -7.851 -21.683  0.00  0.00     0.275 HD
ENDBRANCH  14  15
BRANCH  14  19
HETATM   19  C           1     -24.933  -7.035 -20.558  0.00  0.00     0.017 C 
HETATM   20  C           1     -24.494  -7.854 -21.764  0.00  0.00     0.012 C 
HETATM   21  C           1     -23.883  -7.147 -19.461  0.00  0.00     0.012 C 
ENDBRANCH  14  19
ENDBRANCH   2  14
TORSDOF 8
ENDMDL
MODEL 5
REMARK VINA RESULT:      -5.9     11.927     13.591
REMARK  8 active torsions:
REMARK  status: ('A' for Active; 'I' for Inactive)
REMARK    1  A    between atoms: N_1  and  C_6 
REMARK       I    between atoms: N_1  and  C_3 
REMARK    2  A    between atoms: C_3  and  C_9 
REMARK    3  A    between atoms: N_4  and  C_9 
REMARK    4  A    between atoms: C_5  and  C_8 
REMARK    5  A    between atoms: C_5  and  C_6 
REMARK    6  A    between atoms: C_6  and  C_17 
REMARK    7  A    between atoms: C_8  and  C_20 
REMARK    8  A    between atoms: C_9  and  C_18 
ROOT
HETATM    1  N           1     -21.329  -5.143  -6.512  0.00  0.00    -0.345 N 
HETATM    2  C           1     -21.213  -6.418  -6.026  0.00  0.00     0.249 C 
HETATM    3  H           1     -21.280  -4.355  -5.879  0.00  0.00     0.163 HD
HETATM    4  O           1     -21.273  -7.359  -6.781  0.00  0.00    -0.271 OA
ENDROOT
BRANCH   1   5
HETATM    5  C           1     -21.523  -4.922  -7.931  0.00  0.00     0.186 C 
BRANCH   5   6
HETATM    6  C           1     -22.476  -3.752  -8.138  0.00  0.00     0.046 C 
BRANCH   6   7
HETATM    7  C           1     -23.709  -4.227  -8.895  0.00  0.00     0.116 C 
BRANCH   7   8
HETATM    8  C           1     -23.803  -3.497 -10.212  0.00  0.00     0.172 C 
HETATM    9  O           1     -22.764  -3.221 -10.850  0.00  0.00    -0.648 OA
HETATM   10  O           1     -24.920  -3.168 -10.665  0.00  0.00    -0.648 OA
ENDBRANCH   7   8
ENDBRANCH   6   7
ENDBRANCH   5   6
BRANCH   5  11
HETATM   11  C           1     -20.195  -4.612  -8.578  0.00  0.00     0.196 C 
HETATM   12  O           1     -20.031  -4.820  -9.798  0.00  0.00    -0.646 OA
HETATM   13  O           1     -19.260  -4.147  -7.890  0.00  0.00    -0.646 OA
ENDBRANCH   5  11
ENDBRANCH   1   5
BRANCH   2  14
HETATM   14  C           1     -21.011  -6.648  -4.549  0.00  0.00     0.278 C 
BRANCH  14  15
HETATM   15  N           1     -22.180  -6.089  -3.792  0.00  0.00    -0.066 N 
HETATM   16  H           1     -22.232  -6.539  -2.850  0.00  0.00     0.275 HD
HETATM   17  H           1     -22.059  -5.058  -3.680  0.00  0.00     0.275 HD
HETATM   18  H           1     -23.061  -6.283  -4.320  0.00  0.00     0.275 HD
ENDBRANCH  14  15
BRANCH  14  19
HETATM   19  C           1     -20.898  -8.142  -4.278  0.00  0.00     0.017 C 
HETATM   20  C           1     -21.484  -8.455  -2.907  0.00  0.00     0.012 C 
HETATM   21  C           1     -19.433  -8.554  -4.309  0.00  0.00     0.012 C 
ENDBRANCH  14  19
ENDBRANCH   2  14
TORSDOF 8
ENDMDL
MODEL 6
REMARK VINA RESULT:      -5.8      2.507      5.549
REMARK  8 active torsions:
REMARK  status: ('A' for Active; 'I' for Inactive)
REMARK    1  A    between atoms: N_1  and  C_6 
REMARK       I    between atoms: N_1  and  C_3 
REMARK    2  A    between atoms: C_3  and  C_9 
REMARK    3  A    between atoms: N_4  and  C_9 
REMARK    4  A    between atoms: C_5  and  C_8 
REMARK    5  A    between atoms: C_5  and  C_6 
REMARK    6  A    between atoms: C_6  and  C_17 
REMARK    7  A    between atoms: C_8  and  C_20 
REMARK    8  A    between atoms: C_9  and  C_18 
ROOT
HETATM    1  N           1     -27.445  -7.198 -19.228  0.00  0.00    -0.345 N 
HETATM    2  C           1     -28.341  -6.305 -18.705  0.00  0.00     0.249 C 
HETATM    3  H           1     -27.356  -8.121 -18.824  0.00  0.00     0.163 HD
HETATM    4  O           1     -28.446  -5.203 -19.188  0.00  0.00    -0.271 OA
ENDROOT
BRANCH   1   5
HETATM    5  C           1     -26.623  -6.821 -20.362  0.00  0.00     0.186 C 
BRANCH   5   6
HETATM    6  C           1     -25.280  -6.303 -19.866  0.00  0.00     0.046 C 
BRANCH   6   7
HETATM    7  C           1     -24.546  -7.416 -19.129  0.00  0.00     0.116 C 
BRANCH   7   8
HETATM    8  C           1     -24.549  -7.126 -17.648  0.00  0.00     0.172 C 
HETATM    9  O           1     -25.262  -6.207 -17.192  0.00  0.00    -0.648 OA
HETATM   10  O           1     -23.837  -7.805 -16.878  0.00  0.00    -0.648 OA
ENDBRANCH   7   8
ENDBRANCH   6   7
ENDBRANCH   5   6
BRANCH   5  11
HETATM   11  C           1     -26.404  -8.024 -21.246  0.00  0.00     0.196 C 
HETATM   12  O           1     -27.320  -8.859 -21.403  0.00  0.00    -0.646 OA
HETATM   13  O           1     -25.305  -8.185 -21.821  0.00  0.00    -0.646 OA
ENDBRANCH   5  11
ENDBRANCH   1   5
BRANCH   2  14
HETATM   14  C           1     -29.196  -6.697 -17.526  0.00  0.00     0.278 C 
BRANCH  14  15
HETATM   15  N           1     -29.327  -8.191 -17.477  0.00  0.00    -0.066 N 
HETATM   16  H           1     -28.515  -8.628 -17.968  0.00  0.00     0.275 HD
HETATM   17  H           1     -29.343  -8.506 -16.482  0.00  0.00     0.275 HD
HETATM   18  H           1     -30.215  -8.477 -17.949  0.00  0.00     0.275 HD
ENDBRANCH  14  15
BRANCH  14  19
HETATM   19  C           1     -28.546  -6.203 -16.240  0.00  0.00     0.017 C 
HETATM   20  C           1     -27.936  -7.382 -15.493  0.00  0.00     0.012 C 
HETATM   21  C           1     -29.597  -5.537 -15.363  0.00  0.00     0.012 C 
ENDBRANCH  14  19
ENDBRANCH   2  14
TORSDOF 8
ENDMDL
MODEL 7
REMARK VINA RESULT:      -5.7     14.683     16.047
REMARK  8 active torsions:
REMARK  status: ('A' for Active; 'I' for Inactive)
REMARK    1  A    between atoms: N_1  and  C_6 
REMARK       I    between atoms: N_1  and  C_3 
REMARK    2  A    between atoms: C_3  and  C_9 
REMARK    3  A    between atoms: N_4  and  C_9 
REMARK    4  A    between atoms: C_5  and  C_8 
REMARK    5  A    between atoms: C_5  and  C_6 
REMARK    6  A    between atoms: C_6  and  C_17 
REMARK    7  A    between atoms: C_8  and  C_20 
REMARK    8  A    between atoms: C_9  and  C_18 
ROOT
HETATM    1  N           1     -21.671  -8.318  -4.275  0.00  0.00    -0.345 N 
HETATM    2  C           1     -20.894  -7.884  -5.315  0.00  0.00     0.249 C 
HETATM    3  H           1     -22.543  -7.850  -4.066  0.00  0.00     0.163 HD
HETATM    4  O           1     -19.852  -8.443  -5.565  0.00  0.00    -0.271 OA
ENDROOT
BRANCH   1   5
HETATM    5  C           1     -21.244  -9.448  -3.473  0.00  0.00     0.186 C 
BRANCH   5   6
HETATM    6  C           1     -21.452  -9.131  -1.998  0.00  0.00     0.046 C 
BRANCH   6   7
HETATM    7  C           1     -20.966  -7.718  -1.708  0.00  0.00     0.116 C 
BRANCH   7   8
HETATM    8  C           1     -22.153  -6.812  -1.488  0.00  0.00     0.172 C 
HETATM    9  O           1     -22.861  -6.946  -0.466  0.00  0.00    -0.648 OA
HETATM   10  O           1     -22.428  -5.928  -2.327  0.00  0.00    -0.648 OA
ENDBRANCH   7   8
ENDBRANCH   6   7
ENDBRANCH   5   6
BRANCH   5  11
HETATM   11  C           1     -22.055 -10.664  -3.847  0.00  0.00     0.196 C 
HETATM   12  O           1     -21.758 -11.324  -4.865  0.00  0.00    -0.646 OA
HETATM   13  O           1     -23.025 -11.010  -3.138  0.00  0.00    -0.646 OA
ENDBRANCH   5  11
ENDBRANCH   1   5
BRANCH   2  14
HETATM   14  C           1     -21.338  -6.708  -6.150  0.00  0.00     0.278 C 
BRANCH  14  15
HETATM   15  N           1     -22.352  -5.909  -5.388  0.00  0.00    -0.066 N 
HETATM   16  H           1     -21.944  -4.982  -5.129  0.00  0.00     0.275 HD
HETATM   17  H           1     -23.198  -5.763  -5.983  0.00  0.00     0.275 HD
HETATM   18  H           1     -22.622  -6.426  -4.520  0.00  0.00     0.275 HD
ENDBRANCH  14  15
BRANCH  14  19
HETATM   19  C           1     -20.136  -5.830  -6.471  0.00  0.00     0.017 C 
HETATM   20  C           1     -20.106  -4.642  -5.518  0.00  0.00     0.012 C 
HETATM   21  C           1     -20.243  -5.327  -7.904  0.00  0.00     0.012 C 
ENDBRANCH  14  19
ENDBRANCH   2  14
TORSDOF 8
ENDMDL
MODEL 8
REMARK VINA RESULT:      -5.7      2.353      5.970
REMARK  8 active torsions:
REMARK  status: ('A' for Active; 'I' for Inactive)
REMARK    1  A    between atoms: N_1  and  C_6 
REMARK       I    between atoms: N_1  and  C_3 
REMARK    2  A    between atoms: C_3  and  C_9 
REMARK    3  A    between atoms: N_4  and  C_9 
REMARK    4  A    between atoms: C_5  and  C_8 
REMARK    5  A    between atoms: C_5  and  C_6 
REMARK    6  A    between atoms: C_6  and  C_17 
REMARK    7  A    between atoms: C_8  and  C_20 
REMARK    8  A    between atoms: C_9  and  C_18 
ROOT
HETATM    1  N           1     -27.054  -5.889 -17.696  0.00  0.00    -0.345 N 
HETATM    2  C           1     -28.229  -6.052 -17.013  0.00  0.00     0.249 C 
HETATM    3  H           1     -26.914  -5.069 -18.272  0.00  0.00     0.163 HD
HETATM    4  O           1     -28.397  -7.032 -16.326  0.00  0.00    -0.271 OA
ENDROOT
BRANCH   1   5
HETATM    5  C           1     -26.011  -6.890 -17.595  0.00  0.00     0.186 C 
BRANCH   5   6
HETATM    6  C           1     -25.025  -6.714 -18.742  0.00  0.00     0.046 C 
BRANCH   6   7
HETATM    7  C           1     -25.779  -6.723 -20.066  0.00  0.00     0.116 C 
BRANCH   7   8
HETATM    8  C           1     -25.307  -7.885 -20.906  0.00  0.00     0.172 C 
HETATM    9  O           1     -24.088  -8.158 -20.968  0.00  0.00    -0.648 OA
HETATM   10  O           1     -26.134  -8.575 -21.539  0.00  0.00    -0.648 OA
ENDBRANCH   7   8
ENDBRANCH   6   7
ENDBRANCH   5   6
BRANCH   5  11
HETATM   11  C           1     -25.287  -6.731 -16.280  0.00  0.00     0.196 C 
HETATM   12  O           1     -24.998  -7.739 -15.601  0.00  0.00    -0.646 OA
HETATM   13  O           1     -24.979  -5.591 -15.871  0.00  0.00    -0.646 OA
ENDBRANCH   5  11
ENDBRANCH   1   5
BRANCH   2  14
HETATM   14  C           1     -29.315  -5.010 -17.118  0.00  0.00     0.278 C 
BRANCH  14  15
HETATM   15  N           1     -29.370  -4.486 -18.522  0.00  0.00    -0.066 N 
HETATM   16  H           1     -29.970  -3.631 -18.552  0.00  0.00     0.275 HD
HETATM   17  H           1     -28.405  -4.246 -18.842  0.00  0.00     0.275 HD
HETATM   18  H           1     -29.775  -5.217 -19.151  0.00  0.00     0.275 HD
ENDBRANCH  14  15
BRANCH  14  19
HETATM   19  C           1     -30.656  -5.635 -16.756  0.00  0.00     0.017 C 
HETATM   20  C           1     -31.004  -6.715 -17.771  0.00  0.00     0.012 C 
HETATM   21  C           1     -31.736  -4.562 -16.769  0.00  0.00     0.012 C 
ENDBRANCH  14  19
ENDBRANCH   2  14
TORSDOF 8
ENDMDL
MODEL 9
REMARK VINA RESULT:      -5.7     13.304     14.927
REMARK  8 active torsions:
REMARK  status: ('A' for Active; 'I' for Inactive)
REMARK    1  A    between atoms: N_1  and  C_6 
REMARK       I    between atoms: N_1  and  C_3 
REMARK    2  A    between atoms: C_3  and  C_9 
REMARK    3  A    between atoms: N_4  and  C_9 
REMARK    4  A    between atoms: C_5  and  C_8 
REMARK    5  A    between atoms: C_5  and  C_6 
REMARK    6  A    between atoms: C_6  and  C_17 
REMARK    7  A    between atoms: C_8  and  C_20 
REMARK    8  A    between atoms: C_9  and  C_18 
ROOT
HETATM    1  N           1     -21.540  -6.343  -6.391  0.00  0.00    -0.345 N 
HETATM    2  C           1     -21.612  -5.070  -6.889  0.00  0.00     0.249 C 
HETATM    3  H           1     -21.944  -7.112  -6.909  0.00  0.00     0.163 HD
HETATM    4  O           1     -21.130  -4.151  -6.270  0.00  0.00    -0.271 OA
ENDROOT
BRANCH   1   5
HETATM    5  C           1     -20.885  -6.589  -5.122  0.00  0.00     0.186 C 
BRANCH   5   6
HETATM    6  C           1     -21.929  -6.946  -4.072  0.00  0.00     0.046 C 
BRANCH   6   7
HETATM    7  C           1     -21.654  -6.165  -2.794  0.00  0.00     0.116 C 
BRANCH   7   8
HETATM    8  C           1     -21.887  -7.057  -1.599  0.00  0.00     0.172 C 
HETATM    9  O           1     -21.235  -8.116  -1.473  0.00  0.00    -0.648 OA
HETATM   10  O           1     -22.731  -6.736  -0.736  0.00  0.00    -0.648 OA
ENDBRANCH   7   8
ENDBRANCH   6   7
ENDBRANCH   5   6
BRANCH   5  11
HETATM   11  C           1     -19.911  -7.731  -5.272  0.00  0.00     0.196 C 
HETATM   12  O           1     -19.199  -7.815  -6.296  0.00  0.00    -0.646 OA
HETATM   13  O           1     -19.816  -8.595  -4.373  0.00  0.00    -0.646 OA
ENDBRANCH   5  11
ENDBRANCH   1   5
BRANCH   2  14
HETATM   14  C           1     -22.294  -4.813  -8.211  0.00  0.00     0.278 C 
BRANCH  14  15
HETATM   15  N           1     -23.593  -4.101  -7.973  0.00  0.00    -0.066 N 
HETATM   16  H           1     -24.385  -4.772  -8.090  0.00  0.00     0.275 HD
HETATM   17  H           1     -23.604  -3.714  -7.003  0.00  0.00     0.275 HD
HETATM   18  H           1     -23.692  -3.321  -8.662  0.00  0.00     0.275 HD
ENDBRANCH  14  15
BRANCH  14  19
HETATM   19  C           1     -21.395  -3.952  -9.088  0.00  0.00     0.017 C 
HETATM   20  C           1     -22.157  -3.531 -10.337  0.00  0.00     0.012 C 
HETATM   21  C           1     -20.163  -4.750  -9.490  0.00  0.00     0.012 C 
ENDBRANCH  14  19
ENDBRANCH   2  14
TORSDOF 8
ENDMDL
