MODEL 1
REMARK VINA RESULT:      -7.2      0.000      0.000
REMARK  8 active torsions:
REMARK  status: ('A' for Active; 'I' for Inactive)
REMARK    1  A    between atoms: N_7  and  C_9 
REMARK    2  A    between atoms: C_9  and  C_10 
REMARK       I    between atoms: C_10  and  N_11 
REMARK    3  A    between atoms: N_11  and  C_21 
REMARK    4  A    between atoms: C_14  and  C_21 
REMARK       I    between atoms: N_18  and  C_20 
REMARK    5  A    between atoms: N_18  and  C_24 
REMARK       I    between atoms: N_19  and  C_20 
REMARK    6  A    between atoms: C_21  and  C_22 
REMARK    7  A    between atoms: C_22  and  C_23 
REMARK    8  A    between atoms: C_23  and  C_24 
ROOT
HETATM    1  C           1     -25.916  -6.172 -17.246  0.00  0.00     0.185 C 
ENDROOT
BRANCH   1   2
HETATM    2  N           1     -25.895  -6.804 -18.552  0.00  0.00    -0.345 N 
HETATM    3  C           1     -24.733  -6.848 -19.274  0.00  0.00     0.248 C 
HETATM    4  O           1     -23.723  -6.361 -18.823  0.00  0.00    -0.271 OA
HETATM    5  H           1     -26.741  -7.212 -18.929  0.00  0.00     0.163 HD
BRANCH   3   6
HETATM    6  C           1     -24.712  -7.505 -20.632  0.00  0.00     0.270 C 
HETATM    7  C           1     -26.090  -8.074 -20.942  0.00  0.00     0.050 C 
BRANCH   6   8
HETATM    8  N           1     -23.702  -8.613 -20.635  0.00  0.00    -0.067 N 
HETATM    9  H           1     -23.286  -8.709 -19.682  0.00  0.00     0.275 HD
HETATM   10  H           1     -24.167  -9.508 -20.905  0.00  0.00     0.275 HD
HETATM   11  H           1     -22.946  -8.391 -21.324  0.00  0.00     0.275 HD
ENDBRANCH   6   8
ENDBRANCH   3   6
ENDBRANCH   1   2
BRANCH   1  12
HETATM   12  C           1     -25.729  -7.222 -16.178  0.00  0.00     0.196 C 
HETATM   13  O           1     -24.639  -7.827 -16.082  0.00  0.00    -0.646 OA
HETATM   14  O           1     -26.663  -7.487 -15.392  0.00  0.00    -0.646 OA
ENDBRANCH   1  12
BRANCH   1  15
HETATM   15  C           1     -27.252  -5.472 -17.043  0.00  0.00     0.038 C 
BRANCH  15  16
HETATM   16  C           1     -28.193  -5.833 -18.184  0.00  0.00     0.023 C 
BRANCH  16  17
HETATM   17  C           1     -29.259  -4.753 -18.325  0.00  0.00     0.138 C 
BRANCH  17  18
HETATM   18  N           1     -30.385  -5.054 -17.428  0.00  0.00    -0.227 N 
HETATM   19  H           1     -30.477  -6.010 -17.005  0.00  0.00     0.177 HD
HETATM   20  C           1     -31.242  -4.159 -17.167  0.00  0.00     0.665 C 
HETATM   21  N           1     -31.130  -3.006 -17.677  0.00  0.00    -0.235 N 
HETATM   22  N           1     -32.238  -4.426 -16.374  0.00  0.00    -0.235 N 
HETATM   23  H           1     -31.842  -2.265 -17.460  0.00  0.00     0.174 HD
HETATM   24  H           1     -30.327  -2.791 -18.317  0.00  0.00     0.174 HD
HETATM   25  H           1     -32.945  -3.688 -16.158  0.00  0.00     0.174 HD
HETATM   26  H           1     -32.330  -5.378 -15.953  0.00  0.00     0.174 HD
ENDBRANCH  17  18
ENDBRANCH  16  17
ENDBRANCH  15  16
ENDBRANCH   1  15
TORSDOF 8
ENDMDL
MODEL 2
REMARK VINA RESULT:      -7.1      1.729      2.494
REMARK  8 active torsions:
REMARK  status: ('A' for Active; 'I' for Inactive)
REMARK    1  A    between atoms: N_7  and  C_9 
REMARK    2  A    between atoms: C_9  and  C_10 
REMARK       I    between atoms: C_10  and  N_11 
REMARK    3  A    between atoms: N_11  and  C_21 
REMARK    4  A    between atoms: C_14  and  C_21 
REMARK       I    between atoms: N_18  and  C_20 
REMARK    5  A    between atoms: N_18  and  C_24 
REMARK       I    between atoms: N_19  and  C_20 
REMARK    6  A    between atoms: C_21  and  C_22 
REMARK    7  A    between atoms: C_22  and  C_23 
REMARK    8  A    between atoms: C_23  and  C_24 
ROOT
HETATM    1  C           1     -28.116  -6.294 -17.100  0.00  0.00     0.185 C 
ENDROOT
BRANCH   1   2
HETATM    2  N           1     -26.875  -6.638 -17.767  0.00  0.00    -0.345 N 
HETATM    3  C           1     -25.675  -6.313 -17.193  0.00  0.00     0.248 C 
HETATM    4  O           1     -25.650  -5.741 -16.129  0.00  0.00    -0.271 OA
HETATM    5  H           1     -26.896  -7.117 -18.658  0.00  0.00     0.163 HD
BRANCH   3   6
HETATM    6  C           1     -24.385  -6.672 -17.887  0.00  0.00     0.270 C 
HETATM    7  C           1     -24.684  -7.149 -19.301  0.00  0.00     0.050 C 
BRANCH   6   8
HETATM    8  N           1     -23.694  -7.764 -17.126  0.00  0.00    -0.067 N 
HETATM    9  H           1     -23.898  -7.661 -16.107  0.00  0.00     0.275 HD
HETATM   10  H           1     -24.039  -8.692 -17.459  0.00  0.00     0.275 HD
HETATM   11  H           1     -22.662  -7.698 -17.283  0.00  0.00     0.275 HD
ENDBRANCH   6   8
ENDBRANCH   3   6
ENDBRANCH   1   2
BRANCH   1  12
HETATM   12  C           1     -28.554  -7.447 -16.231  0.00  0.00     0.196 C 
HETATM   13  O           1     -28.109  -7.556 -15.068  0.00  0.00    -0.646 OA
HETATM   14  O           1     -29.361  -8.292 -16.674  0.00  0.00    -0.646 OA
ENDBRANCH   1  12
BRANCH   1  15
HETATM   15  C           1     -29.188  -6.006 -18.142  0.00  0.00     0.038 C 
BRANCH  15  16
HETATM   16  C           1     -29.176  -4.523 -18.487  0.00  0.00     0.023 C 
BRANCH  16  17
HETATM   17  C           1     -29.782  -3.728 -17.338  0.00  0.00     0.138 C 
BRANCH  17  18
HETATM   18  N           1     -31.090  -3.193 -17.746  0.00  0.00    -0.227 N 
HETATM   19  H           1     -31.145  -2.440 -18.475  0.00  0.00     0.177 HD
HETATM   20  C           1     -32.150  -3.643 -17.218  0.00  0.00     0.665 C 
HETATM   21  N           1     -32.083  -4.551 -16.339  0.00  0.00    -0.235 N 
HETATM   22  N           1     -33.306  -3.170 -17.579  0.00  0.00    -0.235 N 
HETATM   23  H           1     -32.963  -4.924 -15.902  0.00  0.00     0.174 HD
HETATM   24  H           1     -31.150  -4.933 -16.048  0.00  0.00     0.174 HD
HETATM   25  H           1     -34.180  -3.541 -17.144  0.00  0.00     0.174 HD
HETATM   26  H           1     -33.360  -2.420 -18.304  0.00  0.00     0.174 HD
ENDBRANCH  17  18
ENDBRANCH  16  17
ENDBRANCH  15  16
ENDBRANCH   1  15
TORSDOF 8
ENDMDL
MODEL 3
REMARK VINA RESULT:      -6.1     11.214     13.338
REMARK  8 active torsions:
REMARK  status: ('A' for Active; 'I' for Inactive)
REMARK    1  A    between atoms: N_7  and  C_9 
REMARK    2  A    between atoms: C_9  and  C_10 
REMARK       I    between atoms: C_10  and  N_11 
REMARK    3  A    between atoms: N_11  and  C_21 
REMARK    4  A    between atoms: C_14  and  C_21 
REMARK       I    between atoms: N_18  and  C_20 
REMARK    5  A    between atoms: N_18  and  C_24 
REMARK       I    between atoms: N_19  and  C_20 
REMARK    6  A    between atoms: C_21  and  C_22 
REMARK    7  A    between atoms: C_22  and  C_23 
REMARK    8  A    between atoms: C_23  and  C_24 
ROOT
HETATM    1  C           1     -21.327  -5.433  -6.809  0.00  0.00     0.185 C 
ENDROOT
BRANCH   1   2
HETATM    2  N           1     -21.056  -5.360  -5.386  0.00  0.00    -0.345 N 
HETATM    3  C           1     -21.595  -6.289  -4.537  0.00  0.00     0.248 C 
HETATM    4  O           1     -22.294  -7.172  -4.973  0.00  0.00    -0.271 OA
HETATM    5  H           1     -20.471  -4.620  -5.020  0.00  0.00     0.163 HD
BRANCH   3   6
HETATM    6  C           1     -21.314  -6.211  -3.057  0.00  0.00     0.270 C 
HETATM    7  C           1     -20.797  -7.557  -2.567  0.00  0.00     0.050 C 
BRANCH   6   8
HETATM    8  N           1     -22.576  -5.864  -2.326  0.00  0.00    -0.067 N 
HETATM    9  H           1     -22.622  -6.404  -1.433  0.00  0.00     0.275 HD
HETATM   10  H           1     -22.587  -4.841  -2.116  0.00  0.00     0.275 HD
HETATM   11  H           1     -23.401  -6.107  -2.922  0.00  0.00     0.275 HD
ENDBRANCH   6   8
ENDBRANCH   3   6
ENDBRANCH   1   2
BRANCH   1  12
HETATM   12  C           1     -20.049  -5.752  -7.546  0.00  0.00     0.196 C 
HETATM   13  O           1     -19.381  -6.760  -7.230  0.00  0.00    -0.646 OA
HETATM   14  O           1     -19.658  -5.007  -8.471  0.00  0.00    -0.646 OA
ENDBRANCH   1  12
BRANCH   1  15
HETATM   15  C           1     -21.873  -4.097  -7.291  0.00  0.00     0.038 C 
BRANCH  15  16
HETATM   16  C           1     -23.282  -4.289  -7.834  0.00  0.00     0.023 C 
BRANCH  16  17
HETATM   17  C           1     -23.259  -4.194  -9.355  0.00  0.00     0.138 C 
BRANCH  17  18
HETATM   18  N           1     -21.939  -3.721  -9.797  0.00  0.00    -0.227 N 
HETATM   19  H           1     -21.323  -3.188  -9.135  0.00  0.00     0.177 HD
HETATM   20  C           1     -21.546  -3.955 -10.978  0.00  0.00     0.665 C 
HETATM   21  N           1     -22.288  -4.597 -11.777  0.00  0.00    -0.235 N 
HETATM   22  N           1     -20.379  -3.537 -11.369  0.00  0.00    -0.235 N 
HETATM   23  H           1     -21.962  -4.792 -12.757  0.00  0.00     0.174 HD
HETATM   24  H           1     -23.231  -4.936 -11.461  0.00  0.00     0.174 HD
HETATM   25  H           1     -20.054  -3.730 -12.343  0.00  0.00     0.174 HD
HETATM   26  H           1     -19.766  -3.007 -10.709  0.00  0.00     0.174 HD
ENDBRANCH  17  18
ENDBRANCH  16  17
ENDBRANCH  15  16
ENDBRANCH   1  15
TORSDOF 8
ENDMDL
MODEL 4
REMARK VINA RESULT:      -6.1      2.985      7.083
REMARK  8 active torsions:
REMARK  status: ('A' for Active; 'I' for Inactive)
REMARK    1  A    between atoms: N_7  and  C_9 
REMARK    2  A    between atoms: C_9  and  C_10 
REMARK       I    between atoms: C_10  and  N_11 
REMARK    3  A    between atoms: N_11  and  C_21 
REMARK    4  A    between atoms: C_14  and  C_21 
REMARK       I    between atoms: N_18  and  C_20 
REMARK    5  A    between atoms: N_18  and  C_24 
REMARK       I    between atoms: N_19  and  C_20 
REMARK    6  A    between atoms: C_21  and  C_22 
REMARK    7  A    between atoms: C_22  and  C_23 
REMARK    8  A    between atoms: C_23  and  C_24 
ROOT
HETATM    1  C           1     -30.361  -6.041 -17.224  0.00  0.00     0.185 C 
ENDROOT
BRANCH   1   2
HETATM    2  N           1     -31.701  -5.764 -16.744  0.00  0.00    -0.345 N 
HETATM    3  C           1     -32.223  -4.504 -16.855  0.00  0.00     0.248 C 
HETATM    4  O           1     -31.567  -3.621 -17.355  0.00  0.00    -0.271 OA
HETATM    5  H           1     -32.251  -6.504 -16.325  0.00  0.00     0.163 HD
BRANCH   3   6
HETATM    6  C           1     -33.617  -4.217 -16.356  0.00  0.00     0.270 C 
HETATM    7  C           1     -34.089  -2.878 -16.905  0.00  0.00     0.050 C 
BRANCH   6   8
HETATM    8  N           1     -33.610  -4.168 -14.857  0.00  0.00    -0.067 N 
HETATM    9  H           1     -34.478  -4.618 -14.489  0.00  0.00     0.275 HD
HETATM   10  H           1     -32.773  -4.677 -14.496  0.00  0.00     0.275 HD
HETATM   11  H           1     -33.575  -3.171 -14.542  0.00  0.00     0.275 HD
ENDBRANCH   6   8
ENDBRANCH   3   6
ENDBRANCH   1   2
BRANCH   1  12
HETATM   12  C           1     -30.307  -7.443 -17.779  0.00  0.00     0.196 C 
HETATM   13  O           1     -30.954  -7.732 -18.809  0.00  0.00    -0.646 OA
HETATM   14  O           1     -29.616  -8.315 -17.210  0.00  0.00    -0.646 OA
ENDBRANCH   1  12
BRANCH   1  15
HETATM   15  C           1     -29.373  -5.911 -16.073  0.00  0.00     0.038 C 
BRANCH  15  16
HETATM   16  C           1     -28.210  -5.025 -16.498  0.00  0.00     0.023 C 
BRANCH  16  17
HETATM   17  C           1     -27.237  -5.835 -17.346  0.00  0.00     0.138 C 
BRANCH  17  18
HETATM   18  N           1     -26.245  -6.480 -16.475  0.00  0.00    -0.227 N 
HETATM   19  H           1     -26.401  -6.515 -15.437  0.00  0.00     0.177 HD
HETATM   20  C           1     -25.201  -6.993 -16.976  0.00  0.00     0.665 C 
HETATM   21  N           1     -25.012  -6.951 -18.226  0.00  0.00    -0.235 N 
HETATM   22  N           1     -24.323  -7.564 -16.205  0.00  0.00    -0.235 N 
HETATM   23  H           1     -24.147  -7.377 -18.642  0.00  0.00     0.174 HD
HETATM   24  H           1     -25.721  -6.490 -18.849  0.00  0.00     0.174 HD
HETATM   25  H           1     -23.462  -7.987 -16.618  0.00  0.00     0.174 HD
HETATM   26  H           1     -24.479  -7.598 -15.172  0.00  0.00     0.174 HD
ENDBRANCH  17  18
ENDBRANCH  16  17
ENDBRANCH  15  16
ENDBRANCH   1  15
TORSDOF 8
ENDMDL
MODEL 5
REMARK VINA RESULT:      -5.9     11.594     13.391
REMARK  8 active torsions:
REMARK  status: ('A' for Active; 'I' for Inactive)
REMARK    1  A    between atoms: N_7  and  C_9 
REMARK    2  A    between atoms: C_9  and  C_10 
REMARK       I    between atoms: C_10  and  N_11 
REMARK    3  A    between atoms: N_11  and  C_21 
REMARK    4  A    between atoms: C_14  and  C_21 
REMARK       I    between atoms: N_18  and  C_20 
REMARK    5  A    between atoms: N_18  and  C_24 
REMARK       I    between atoms: N_19  and  C_20 
REMARK    6  A    between atoms: C_21  and  C_22 
REMARK    7  A    between atoms: C_22  and  C_23 
REMARK    8  A    between atoms: C_23  and  C_24 
ROOT
HETATM    1  C           1     -20.898  -5.104  -6.389  0.00  0.00     0.185 C 
ENDROOT
BRANCH   1   2
HETATM    2  N           1     -20.644  -5.347  -4.981  0.00  0.00    -0.345 N 
HETATM    3  C           1     -21.544  -6.058  -4.235  0.00  0.00     0.248 C 
HETATM    4  O           1     -22.550  -6.486  -4.749  0.00  0.00    -0.271 OA
HETATM    5  H           1     -19.801  -4.988  -4.550  0.00  0.00     0.163 HD
BRANCH   3   6
HETATM    6  C           1     -21.280  -6.309  -2.771  0.00  0.00     0.270 C 
HETATM    7  C           1     -21.041  -7.796  -2.546  0.00  0.00     0.050 C 
BRANCH   6   8
HETATM    8  N           1     -22.465  -5.865  -1.966  0.00  0.00    -0.067 N 
HETATM    9  H           1     -22.315  -4.886  -1.636  0.00  0.00     0.275 HD
HETATM   10  H           1     -23.323  -5.906  -2.559  0.00  0.00     0.275 HD
HETATM   11  H           1     -22.580  -6.497  -1.140  0.00  0.00     0.275 HD
ENDBRANCH   6   8
ENDBRANCH   3   6
ENDBRANCH   1   2
BRANCH   1  12
HETATM   12  C           1     -19.648  -5.401  -7.181  0.00  0.00     0.196 C 
HETATM   13  O           1     -18.708  -4.578  -7.196  0.00  0.00    -0.646 OA
HETATM   14  O           1     -19.554  -6.470  -7.823  0.00  0.00    -0.646 OA
ENDBRANCH   1  12
BRANCH   1  15
HETATM   15  C           1     -21.292  -3.648  -6.589  0.00  0.00     0.038 C 
BRANCH  15  16
HETATM   16  C           1     -21.739  -3.436  -8.029  0.00  0.00     0.023 C 
BRANCH  16  17
HETATM   17  C           1     -22.729  -4.526  -8.421  0.00  0.00     0.138 C 
BRANCH  17  18
HETATM   18  N           1     -24.075  -3.948  -8.540  0.00  0.00    -0.227 N 
HETATM   19  H           1     -24.558  -3.563  -7.691  0.00  0.00     0.177 HD
HETATM   20  C           1     -24.652  -3.914  -9.667  0.00  0.00     0.665 C 
HETATM   21  N           1     -24.069  -4.378 -10.690  0.00  0.00    -0.235 N 
HETATM   22  N           1     -25.842  -3.403  -9.773  0.00  0.00    -0.235 N 
HETATM   23  H           1     -24.548  -4.350 -11.625  0.00  0.00     0.174 HD
HETATM   24  H           1     -23.108  -4.791 -10.605  0.00  0.00     0.174 HD
HETATM   25  H           1     -26.318  -3.375 -10.702  0.00  0.00     0.174 HD
HETATM   26  H           1     -26.323  -3.020  -8.928  0.00  0.00     0.174 HD
ENDBRANCH  17  18
ENDBRANCH  16  17
ENDBRANCH  15  16
ENDBRANCH   1  15
TORSDOF 8
ENDMDL
MODEL 6
REMARK VINA RESULT:      -5.8     12.096     13.871
REMARK  8 active torsions:
REMARK  status: ('A' for Active; 'I' for Inactive)
REMARK    1  A    between atoms: N_7  and  C_9 
REMARK    2  A    between atoms: C_9  and  C_10 
REMARK       I    between atoms: C_10  and  N_11 
REMARK    3  A    between atoms: N_11  and  C_21 
REMARK    4  A    between atoms: C_14  and  C_21 
REMARK       I    between atoms: N_18  and  C_20 
REMARK    5  A    between atoms: N_18  and  C_24 
REMARK       I    between atoms: N_19  and  C_20 
REMARK    6  A    between atoms: C_21  and  C_22 
REMARK    7  A    between atoms: C_22  and  C_23 
REMARK    8  A    between atoms: C_23  and  C_24 
ROOT
HETATM    1  C           1     -20.594  -6.866  -5.311  0.00  0.00     0.185 C 
ENDROOT
BRANCH   1   2
HETATM    2  N           1     -20.861  -8.273  -5.541  0.00  0.00    -0.345 N 
HETATM    3  C           1     -20.272  -9.220  -4.747  0.00  0.00     0.248 C 
HETATM    4  O           1     -19.532  -8.885  -3.854  0.00  0.00    -0.271 OA
HETATM    5  H           1     -21.481  -8.554  -6.289  0.00  0.00     0.163 HD
BRANCH   3   6
HETATM    6  C           1     -20.549 -10.684  -4.987  0.00  0.00     0.270 C 
HETATM    7  C           1     -19.327 -11.503  -4.596  0.00  0.00     0.050 C 
BRANCH   6   8
HETATM    8  N           1     -20.855 -10.903  -6.439  0.00  0.00    -0.067 N 
HETATM    9  H           1     -21.650 -11.574  -6.531  0.00  0.00     0.275 HD
HETATM   10  H           1     -21.114  -9.993  -6.881  0.00  0.00     0.275 HD
HETATM   11  H           1     -20.011 -11.295  -6.916  0.00  0.00     0.275 HD
ENDBRANCH   6   8
ENDBRANCH   3   6
ENDBRANCH   1   2
BRANCH   1  12
HETATM   12  C           1     -21.789  -6.233  -4.640  0.00  0.00     0.196 C 
HETATM   13  O           1     -21.737  -5.932  -3.427  0.00  0.00    -0.646 OA
HETATM   14  O           1     -22.829  -6.010  -5.295  0.00  0.00    -0.646 OA
ENDBRANCH   1  12
BRANCH   1  15
HETATM   15  C           1     -20.334  -6.175  -6.642  0.00  0.00     0.038 C 
BRANCH  15  16
HETATM   16  C           1     -19.959  -4.720  -6.395  0.00  0.00     0.023 C 
BRANCH  16  17
HETATM   17  C           1     -20.530  -3.851  -7.509  0.00  0.00     0.138 C 
BRANCH  17  18
HETATM   18  N           1     -21.990  -3.766  -7.366  0.00  0.00    -0.227 N 
HETATM   19  H           1     -22.411  -3.441  -6.461  0.00  0.00     0.177 HD
HETATM   20  C           1     -22.741  -4.085  -8.335  0.00  0.00     0.665 C 
HETATM   21  N           1     -22.234  -4.477  -9.426  0.00  0.00    -0.235 N 
HETATM   22  N           1     -24.033  -4.010  -8.208  0.00  0.00    -0.235 N 
HETATM   23  H           1     -22.856  -4.742 -10.229  0.00  0.00     0.174 HD
HETATM   24  H           1     -21.191  -4.538  -9.528  0.00  0.00     0.174 HD
HETATM   25  H           1     -24.652  -4.273  -9.007  0.00  0.00     0.174 HD
HETATM   26  H           1     -24.451  -3.686  -7.307  0.00  0.00     0.174 HD
ENDBRANCH  17  18
ENDBRANCH  16  17
ENDBRANCH  15  16
ENDBRANCH   1  15
TORSDOF 8
ENDMDL
MODEL 7
REMARK VINA RESULT:      -5.6     13.914     15.565
REMARK  8 active torsions:
REMARK  status: ('A' for Active; 'I' for Inactive)
REMARK    1  A    between atoms: N_7  and  C_9 
REMARK    2  A    between atoms: C_9  and  C_10 
REMARK       I    between atoms: C_10  and  N_11 
REMARK    3  A    between atoms: N_11  and  C_21 
REMARK    4  A    between atoms: C_14  and  C_21 
REMARK       I    between atoms: N_18  and  C_20 
REMARK    5  A    between atoms: N_18  and  C_24 
REMARK       I    between atoms: N_19  and  C_20 
REMARK    6  A    between atoms: C_21  and  C_22 
REMARK    7  A    between atoms: C_22  and  C_23 
REMARK    8  A    between atoms: C_23  and  C_24 
ROOT
HETATM    1  C           1     -20.847  -6.856  -4.749  0.00  0.00     0.185 C 
ENDROOT
BRANCH   1   2
HETATM    2  N           1     -21.292  -6.469  -6.074  0.00  0.00    -0.345 N 
HETATM    3  C           1     -21.027  -5.212  -6.546  0.00  0.00     0.248 C 
HETATM    4  O           1     -20.420  -4.425  -5.860  0.00  0.00    -0.271 OA
HETATM    5  H           1     -21.800  -7.128  -6.650  0.00  0.00     0.163 HD
BRANCH   3   6
HETATM    6  C           1     -21.490  -4.810  -7.924  0.00  0.00     0.270 C 
HETATM    7  C           1     -20.288  -4.404  -8.766  0.00  0.00     0.050 C 
BRANCH   6   8
HETATM    8  N           1     -22.437  -3.652  -7.815  0.00  0.00    -0.067 N 
HETATM    9  H           1     -23.325  -3.969  -7.365  0.00  0.00     0.275 HD
HETATM   10  H           1     -22.002  -2.900  -7.236  0.00  0.00     0.275 HD
HETATM   11  H           1     -22.644  -3.281  -8.771  0.00  0.00     0.275 HD
ENDBRANCH   6   8
ENDBRANCH   3   6
ENDBRANCH   1   2
BRANCH   1  12
HETATM   12  C           1     -20.362  -8.285  -4.781  0.00  0.00     0.196 C 
HETATM   13  O           1     -19.536  -8.645  -5.648  0.00  0.00    -0.646 OA
HETATM   14  O           1     -20.787  -9.109  -3.942  0.00  0.00    -0.646 OA
ENDBRANCH   1  12
BRANCH   1  15
HETATM   15  C           1     -22.006  -6.735  -3.770  0.00  0.00     0.038 C 
BRANCH  15  16
HETATM   16  C           1     -21.529  -6.040  -2.501  0.00  0.00     0.023 C 
BRANCH  16  17
HETATM   17  C           1     -22.305  -6.577  -1.305  0.00  0.00     0.138 C 
BRANCH  17  18
HETATM   18  N           1     -22.046  -8.016  -1.156  0.00  0.00    -0.227 N 
HETATM   19  H           1     -21.377  -8.499  -1.806  0.00  0.00     0.177 HD
HETATM   20  C           1     -22.629  -8.674  -0.244  0.00  0.00     0.665 C 
HETATM   21  N           1     -23.436  -8.092   0.539  0.00  0.00    -0.235 N 
HETATM   22  N           1     -22.400  -9.946  -0.113  0.00  0.00    -0.235 N 
HETATM   23  H           1     -23.920  -8.637   1.295  0.00  0.00     0.174 HD
HETATM   24  H           1     -23.621  -7.064   0.433  0.00  0.00     0.174 HD
HETATM   25  H           1     -22.881 -10.489   0.639  0.00  0.00     0.174 HD
HETATM   26  H           1     -21.734 -10.426  -0.760  0.00  0.00     0.174 HD
ENDBRANCH  17  18
ENDBRANCH  16  17
ENDBRANCH  15  16
ENDBRANCH   1  15
TORSDOF 8
ENDMDL
MODEL 8
REMARK VINA RESULT:      -5.6     10.701     12.807
REMARK  8 active torsions:
REMARK  status: ('A' for Active; 'I' for Inactive)
REMARK    1  A    between atoms: N_7  and  C_9 
REMARK    2  A    between atoms: C_9  and  C_10 
REMARK       I    between atoms: C_10  and  N_11 
REMARK    3  A    between atoms: N_11  and  C_21 
REMARK    4  A    between atoms: C_14  and  C_21 
REMARK       I    between atoms: N_18  and  C_20 
REMARK    5  A    between atoms: N_18  and  C_24 
REMARK       I    between atoms: N_19  and  C_20 
REMARK    6  A    between atoms: C_21  and  C_22 
REMARK    7  A    between atoms: C_22  and  C_23 
REMARK    8  A    between atoms: C_23  and  C_24 
ROOT
HETATM    1  C           1     -21.739  -4.814  -7.038  0.00  0.00     0.185 C 
ENDROOT
BRANCH   1   2
HETATM    2  N           1     -21.752  -5.845  -6.018  0.00  0.00    -0.345 N 
HETATM    3  C           1     -20.962  -5.720  -4.907  0.00  0.00     0.248 C 
HETATM    4  O           1     -20.254  -4.750  -4.775  0.00  0.00    -0.271 OA
HETATM    5  H           1     -22.344  -6.658  -6.128  0.00  0.00     0.163 HD
BRANCH   3   6
HETATM    6  C           1     -20.975  -6.793  -3.847  0.00  0.00     0.270 C 
HETATM    7  C           1     -21.647  -8.043  -4.397  0.00  0.00     0.050 C 
BRANCH   6   8
HETATM    8  N           1     -21.733  -6.303  -2.649  0.00  0.00    -0.067 N 
HETATM    9  H           1     -21.969  -5.294  -2.775  0.00  0.00     0.275 HD
HETATM   10  H           1     -22.612  -6.856  -2.544  0.00  0.00     0.275 HD
HETATM   11  H           1     -21.143  -6.418  -1.793  0.00  0.00     0.275 HD
ENDBRANCH   6   8
ENDBRANCH   3   6
ENDBRANCH   1   2
BRANCH   1  12
HETATM   12  C           1     -23.158  -4.436  -7.385  0.00  0.00     0.196 C 
HETATM   13  O           1     -23.423  -3.976  -8.517  0.00  0.00    -0.646 OA
HETATM   14  O           1     -24.069  -4.581  -6.541  0.00  0.00    -0.646 OA
ENDBRANCH   1  12
BRANCH   1  15
HETATM   15  C           1     -21.034  -5.339  -8.281  0.00  0.00     0.038 C 
BRANCH  15  16
HETATM   16  C           1     -20.042  -4.298  -8.780  0.00  0.00     0.023 C 
BRANCH  16  17
HETATM   17  C           1     -20.355  -3.951 -10.231  0.00  0.00     0.138 C 
BRANCH  17  18
HETATM   18  N           1     -21.627  -4.575 -10.621  0.00  0.00    -0.227 N 
HETATM   19  H           1     -22.168  -5.146  -9.925  0.00  0.00     0.177 HD
HETATM   20  C           1     -22.072  -4.424 -11.797  0.00  0.00     0.665 C 
HETATM   21  N           1     -21.420  -3.736 -12.637  0.00  0.00    -0.235 N 
HETATM   22  N           1     -23.197  -4.976 -12.143  0.00  0.00    -0.235 N 
HETATM   23  H           1     -21.789  -3.611 -13.612  0.00  0.00     0.174 HD
HETATM   24  H           1     -20.511  -3.290 -12.358  0.00  0.00     0.174 HD
HETATM   25  H           1     -23.563  -4.851 -13.113  0.00  0.00     0.174 HD
HETATM   26  H           1     -23.734  -5.544 -11.450  0.00  0.00     0.174 HD
ENDBRANCH  17  18
ENDBRANCH  16  17
ENDBRANCH  15  16
ENDBRANCH   1  15
TORSDOF 8
ENDMDL
MODEL 9
REMARK VINA RESULT:      -5.4     15.319     17.371
REMARK  8 active torsions:
REMARK  status: ('A' for Active; 'I' for Inactive)
REMARK    1  A    between atoms: N_7  and  C_9 
REMARK    2  A    between atoms: C_9  and  C_10 
REMARK       I    between atoms: C_10  and  N_11 
REMARK    3  A    between atoms: N_11  and  C_21 
REMARK    4  A    between atoms: C_14  and  C_21 
REMARK       I    between atoms: N_18  and  C_20 
REMARK    5  A    between atoms: N_18  and  C_24 
REMARK       I    between atoms: N_19  and  C_20 
REMARK    6  A    between atoms: C_21  and  C_22 
REMARK    7  A    between atoms: C_22  and  C_23 
REMARK    8  A    between atoms: C_23  and  C_24 
ROOT
HETATM    1  C           1     -21.229  -8.012  -1.485  0.00  0.00     0.185 C 
ENDROOT
BRANCH   1   2
HETATM    2  N           1     -21.924  -9.284  -1.437  0.00  0.00    -0.345 N 
HETATM    3  C           1     -21.709 -10.144  -0.394  0.00  0.00     0.248 C 
HETATM    4  O           1     -20.941  -9.842   0.489  0.00  0.00    -0.271 OA
HETATM    5  H           1     -22.567  -9.538  -2.176  0.00  0.00     0.163 HD
BRANCH   3   6
HETATM    6  C           1     -22.431 -11.467  -0.344  0.00  0.00     0.270 C 
HETATM    7  C           1     -23.926 -11.225  -0.187  0.00  0.00     0.050 C 
BRANCH   6   8
HETATM    8  N           1     -21.929 -12.268   0.820  0.00  0.00    -0.067 N 
HETATM    9  H           1     -22.217 -13.265   0.708  0.00  0.00     0.275 HD
HETATM   10  H           1     -20.887 -12.208   0.860  0.00  0.00     0.275 HD
HETATM   11  H           1     -22.335 -11.886   1.705  0.00  0.00     0.275 HD
ENDBRANCH   6   8
ENDBRANCH   3   6
ENDBRANCH   1   2
BRANCH   1  12
HETATM   12  C           1     -22.221  -6.892  -1.286  0.00  0.00     0.196 C 
HETATM   13  O           1     -22.231  -5.920  -2.073  0.00  0.00    -0.646 OA
HETATM   14  O           1     -23.031  -6.936  -0.336  0.00  0.00    -0.646 OA
ENDBRANCH   1  12
BRANCH   1  15
HETATM   15  C           1     -20.550  -7.856  -2.839  0.00  0.00     0.038 C 
BRANCH  15  16
HETATM   16  C           1     -21.288  -8.691  -3.877  0.00  0.00     0.023 C 
BRANCH  16  17
HETATM   17  C           1     -21.678  -7.808  -5.056  0.00  0.00     0.138 C 
BRANCH  17  18
HETATM   18  N           1     -21.086  -6.473  -4.887  0.00  0.00    -0.227 N 
HETATM   19  H           1     -21.037  -6.038  -3.933  0.00  0.00     0.177 HD
HETATM   20  C           1     -20.637  -5.848  -5.892  0.00  0.00     0.665 C 
HETATM   21  N           1     -20.697  -6.372  -7.042  0.00  0.00    -0.235 N 
HETATM   22  N           1     -20.114  -4.667  -5.742  0.00  0.00    -0.235 N 
HETATM   23  H           1     -20.324  -5.854  -7.877  0.00  0.00     0.174 HD
HETATM   24  H           1     -21.119  -7.326  -7.163  0.00  0.00     0.174 HD
HETATM   25  H           1     -19.743  -4.151  -6.572  0.00  0.00     0.174 HD
HETATM   26  H           1     -20.065  -4.235  -4.793  0.00  0.00     0.174 HD
ENDBRANCH  17  18
ENDBRANCH  16  17
ENDBRANCH  15  16
ENDBRANCH   1  15
TORSDOF 8
ENDMDL
