MODEL 1
REMARK VINA RESULT:      -6.5      0.000      0.000
REMARK  9 active torsions:
REMARK  status: ('A' for Active; 'I' for Inactive)
REMARK    1  A    between atoms: N_1  and  C_5 
REMARK       I    between atoms: N_1  and  C_23 
REMARK    2  A    between atoms: C_2  and  C_18 
REMARK    3  A    between atoms: C_2  and  O_3 
REMARK    4  A    between atoms: C_4  and  C_10 
REMARK    5  A    between atoms: C_4  and  C_5 
REMARK    6  A    between atoms: C_5  and  C_16 
REMARK       I    between atoms: N_6  and  C_21 
REMARK    7  A    between atoms: C_10  and  C_21 
REMARK    8  A    between atoms: C_18  and  C_23 
REMARK    9  A    between atoms: C_18  and  N_22 
ROOT
HETATM    1  N           1     -27.684  -6.829 -19.265  0.00  0.00    -0.345 N 
HETATM    2  O           1     -26.062  -6.166 -17.881  0.00  0.00    -0.271 OA
HETATM    3  H           1     -27.940  -7.216 -20.164  0.00  0.00     0.163 HD
HETATM    4  C           1     -26.366  -6.628 -18.954  0.00  0.00     0.251 C 
ENDROOT
BRANCH   1   5
HETATM    5  C           1     -28.716  -6.486 -18.305  0.00  0.00     0.186 C 
BRANCH   5   6
HETATM    6  C           1     -29.319  -5.136 -18.669  0.00  0.00     0.045 C 
BRANCH   6   7
HETATM    7  C           1     -29.496  -4.301 -17.407  0.00  0.00     0.105 C 
BRANCH   7   8
HETATM    8  C           1     -30.964  -4.026 -17.187  0.00  0.00     0.215 C 
HETATM    9  N           1     -31.731  -4.922 -16.491  0.00  0.00    -0.370 N 
HETATM   10  H           1     -31.314  -5.768 -16.124  0.00  0.00     0.159 HD
HETATM   11  H           1     -32.715  -4.738 -16.344  0.00  0.00     0.159 HD
HETATM   12  O           1     -31.462  -3.017 -17.626  0.00  0.00    -0.274 OA
ENDBRANCH   7   8
ENDBRANCH   6   7
ENDBRANCH   5   6
BRANCH   5  13
HETATM   13  C           1     -29.793  -7.542 -18.328  0.00  0.00     0.196 C 
HETATM   14  O           1     -30.712  -7.518 -17.480  0.00  0.00    -0.646 OA
HETATM   15  O           1     -29.768  -8.440 -19.197  0.00  0.00    -0.646 OA
ENDBRANCH   5  13
ENDBRANCH   1   5
BRANCH   4  16
HETATM   16  C           1     -25.293  -6.985 -19.954  0.00  0.00     0.297 C 
BRANCH  16  17
HETATM   17  C           1     -25.872  -7.920 -21.007  0.00  0.00     0.206 C 
BRANCH  17  18
HETATM   18  O           1     -24.828  -8.548 -21.701  0.00  0.00    -0.398 OA
HETATM   19  H           1     -24.123  -7.926 -21.757  0.00  0.00     0.209 HD
ENDBRANCH  17  18
ENDBRANCH  16  17
BRANCH  16  20
HETATM   20  N           1     -24.160  -7.668 -19.247  0.00  0.00    -0.064 N 
HETATM   21  H           1     -24.051  -8.637 -19.620  0.00  0.00     0.275 HD
HETATM   22  H           1     -24.363  -7.709 -18.223  0.00  0.00     0.275 HD
HETATM   23  H           1     -23.277  -7.133 -19.405  0.00  0.00     0.275 HD
ENDBRANCH  16  20
ENDBRANCH   4  16
TORSDOF 9
ENDMDL
MODEL 2
REMARK VINA RESULT:      -6.3      1.285      1.460
REMARK  9 active torsions:
REMARK  status: ('A' for Active; 'I' for Inactive)
REMARK    1  A    between atoms: N_1  and  C_5 
REMARK       I    between atoms: N_1  and  C_23 
REMARK    2  A    between atoms: C_2  and  C_18 
REMARK    3  A    between atoms: C_2  and  O_3 
REMARK    4  A    between atoms: C_4  and  C_10 
REMARK    5  A    between atoms: C_4  and  C_5 
REMARK    6  A    between atoms: C_5  and  C_16 
REMARK       I    between atoms: N_6  and  C_21 
REMARK    7  A    between atoms: C_10  and  C_21 
REMARK    8  A    between atoms: C_18  and  C_23 
REMARK    9  A    between atoms: C_18  and  N_22 
ROOT
HETATM    1  N           1     -27.321  -6.491 -18.118  0.00  0.00    -0.345 N 
HETATM    2  O           1     -26.295  -5.733 -16.285  0.00  0.00    -0.271 OA
HETATM    3  H           1     -27.240  -6.923 -19.030  0.00  0.00     0.163 HD
HETATM    4  C           1     -26.198  -6.249 -17.372  0.00  0.00     0.251 C 
ENDROOT
BRANCH   1   5
HETATM    5  C           1     -28.627  -6.126 -17.603  0.00  0.00     0.186 C 
BRANCH   5   6
HETATM    6  C           1     -29.201  -4.989 -18.437  0.00  0.00     0.045 C 
BRANCH   6   7
HETATM    7  C           1     -29.557  -3.821 -17.526  0.00  0.00     0.105 C 
BRANCH   7   8
HETATM    8  C           1     -31.051  -3.783 -17.316  0.00  0.00     0.215 C 
HETATM    9  N           1     -31.636  -4.629 -16.412  0.00  0.00    -0.370 N 
HETATM   10  H           1     -31.067  -5.279 -15.885  0.00  0.00     0.159 HD
HETATM   11  H           1     -32.638  -4.603 -16.271  0.00  0.00     0.159 HD
HETATM   12  O           1     -31.730  -3.007 -17.945  0.00  0.00    -0.274 OA
ENDBRANCH   7   8
ENDBRANCH   6   7
ENDBRANCH   5   6
BRANCH   5  13
HETATM   13  C           1     -29.546  -7.320 -17.677  0.00  0.00     0.196 C 
HETATM   14  O           1     -30.475  -7.343 -18.513  0.00  0.00    -0.646 OA
HETATM   15  O           1     -29.377  -8.287 -16.903  0.00  0.00    -0.646 OA
ENDBRANCH   5  13
ENDBRANCH   1   5
BRANCH   4  16
HETATM   16  C           1     -24.840  -6.629 -17.910  0.00  0.00     0.297 C 
BRANCH  16  17
HETATM   17  C           1     -24.965  -7.018 -19.376  0.00  0.00     0.206 C 
BRANCH  17  18
HETATM   18  O           1     -23.874  -7.819 -19.743  0.00  0.00    -0.398 OA
HETATM   19  H           1     -24.201  -8.696 -19.851  0.00  0.00     0.209 HD
ENDBRANCH  17  18
ENDBRANCH  16  17
BRANCH  16  20
HETATM   20  N           1     -24.301  -7.790 -17.128  0.00  0.00    -0.064 N 
HETATM   21  H           1     -23.333  -7.572 -16.803  0.00  0.00     0.275 HD
HETATM   22  H           1     -24.281  -8.640 -17.737  0.00  0.00     0.275 HD
HETATM   23  H           1     -24.915  -7.969 -16.301  0.00  0.00     0.275 HD
ENDBRANCH  16  20
ENDBRANCH   4  16
TORSDOF 9
ENDMDL
MODEL 3
REMARK VINA RESULT:      -6.2      2.537      2.855
REMARK  9 active torsions:
REMARK  status: ('A' for Active; 'I' for Inactive)
REMARK    1  A    between atoms: N_1  and  C_5 
REMARK       I    between atoms: N_1  and  C_23 
REMARK    2  A    between atoms: C_2  and  C_18 
REMARK    3  A    between atoms: C_2  and  O_3 
REMARK    4  A    between atoms: C_4  and  C_10 
REMARK    5  A    between atoms: C_4  and  C_5 
REMARK    6  A    between atoms: C_5  and  C_16 
REMARK       I    between atoms: N_6  and  C_21 
REMARK    7  A    between atoms: C_10  and  C_21 
REMARK    8  A    between atoms: C_18  and  C_23 
REMARK    9  A    between atoms: C_18  and  N_22 
ROOT
HETATM    1  N           1     -27.715  -6.492 -17.307  0.00  0.00    -0.345 N 
HETATM    2  O           1     -27.256  -7.506 -15.371  0.00  0.00    -0.271 OA
HETATM    3  H           1     -27.386  -5.920 -18.075  0.00  0.00     0.163 HD
HETATM    4  C           1     -26.864  -6.825 -16.287  0.00  0.00     0.251 C 
ENDROOT
BRANCH   1   5
HETATM    5  C           1     -29.089  -6.956 -17.285  0.00  0.00     0.186 C 
BRANCH   5   6
HETATM    6  C           1     -30.024  -5.766 -17.115  0.00  0.00     0.045 C 
BRANCH   6   7
HETATM    7  C           1     -29.593  -4.643 -18.049  0.00  0.00     0.105 C 
BRANCH   7   8
HETATM    8  C           1     -30.238  -3.350 -17.613  0.00  0.00     0.215 C 
HETATM    9  N           1     -29.474  -2.225 -17.452  0.00  0.00    -0.370 N 
HETATM   10  H           1     -28.478  -2.260 -17.625  0.00  0.00     0.159 HD
HETATM   11  H           1     -29.907  -1.358 -17.159  0.00  0.00     0.159 HD
HETATM   12  O           1     -31.427  -3.308 -17.406  0.00  0.00    -0.274 OA
ENDBRANCH   7   8
ENDBRANCH   6   7
ENDBRANCH   5   6
BRANCH   5  13
HETATM   13  C           1     -29.400  -7.660 -18.583  0.00  0.00     0.196 C 
HETATM   14  O           1     -28.538  -7.714 -19.487  0.00  0.00    -0.646 OA
HETATM   15  O           1     -30.520  -8.189 -18.754  0.00  0.00    -0.646 OA
ENDBRANCH   5  13
ENDBRANCH   1   5
BRANCH   4  16
HETATM   16  C           1     -25.434  -6.341 -16.310  0.00  0.00     0.297 C 
BRANCH  16  17
HETATM   17  C           1     -24.593  -7.283 -17.161  0.00  0.00     0.206 C 
BRANCH  17  18
HETATM   18  O           1     -24.294  -8.438 -16.426  0.00  0.00    -0.398 OA
HETATM   19  H           1     -24.808  -9.138 -16.793  0.00  0.00     0.209 HD
ENDBRANCH  17  18
ENDBRANCH  16  17
BRANCH  16  20
HETATM   20  N           1     -24.894  -6.315 -14.911  0.00  0.00    -0.064 N 
HETATM   21  H           1     -25.672  -6.481 -14.234  0.00  0.00     0.275 HD
HETATM   22  H           1     -24.461  -5.382 -14.723  0.00  0.00     0.275 HD
HETATM   23  H           1     -24.172  -7.062 -14.802  0.00  0.00     0.275 HD
ENDBRANCH  16  20
ENDBRANCH   4  16
TORSDOF 9
ENDMDL
MODEL 4
REMARK VINA RESULT:      -6.1      1.536      1.729
REMARK  9 active torsions:
REMARK  status: ('A' for Active; 'I' for Inactive)
REMARK    1  A    between atoms: N_1  and  C_5 
REMARK       I    between atoms: N_1  and  C_23 
REMARK    2  A    between atoms: C_2  and  C_18 
REMARK    3  A    between atoms: C_2  and  O_3 
REMARK    4  A    between atoms: C_4  and  C_10 
REMARK    5  A    between atoms: C_4  and  C_5 
REMARK    6  A    between atoms: C_5  and  C_16 
REMARK       I    between atoms: N_6  and  C_21 
REMARK    7  A    between atoms: C_10  and  C_21 
REMARK    8  A    between atoms: C_18  and  C_23 
REMARK    9  A    between atoms: C_18  and  N_22 
ROOT
HETATM    1  N           1     -27.054  -6.277 -18.147  0.00  0.00    -0.345 N 
HETATM    2  O           1     -24.896  -6.607 -17.679  0.00  0.00    -0.271 OA
HETATM    3  H           1     -27.790  -6.268 -18.842  0.00  0.00     0.163 HD
HETATM    4  C           1     -25.773  -6.597 -18.509  0.00  0.00     0.251 C 
ENDROOT
BRANCH   1   5
HETATM    5  C           1     -27.358  -5.950 -16.767  0.00  0.00     0.186 C 
BRANCH   5   6
HETATM    6  C           1     -28.146  -4.648 -16.716  0.00  0.00     0.045 C 
BRANCH   6   7
HETATM    7  C           1     -29.137  -4.608 -17.871  0.00  0.00     0.105 C 
BRANCH   7   8
HETATM    8  C           1     -30.509  -4.263 -17.345  0.00  0.00     0.215 C 
HETATM    9  N           1     -31.234  -5.200 -16.657  0.00  0.00    -0.370 N 
HETATM   10  H           1     -30.849  -6.123 -16.502  0.00  0.00     0.159 HD
HETATM   11  H           1     -32.153  -4.969 -16.305  0.00  0.00     0.159 HD
HETATM   12  O           1     -30.969  -3.161 -17.531  0.00  0.00    -0.274 OA
ENDBRANCH   7   8
ENDBRANCH   6   7
ENDBRANCH   5   6
BRANCH   5  13
HETATM   13  C           1     -28.179  -7.060 -16.158  0.00  0.00     0.196 C 
HETATM   14  O           1     -27.894  -7.499 -15.023  0.00  0.00    -0.646 OA
HETATM   15  O           1     -29.146  -7.539 -16.789  0.00  0.00    -0.646 OA
ENDBRANCH   5  13
ENDBRANCH   1   5
BRANCH   4  16
HETATM   16  C           1     -25.458  -6.936 -19.945  0.00  0.00     0.297 C 
BRANCH  16  17
HETATM   17  C           1     -26.689  -7.541 -20.606  0.00  0.00     0.206 C 
BRANCH  17  18
HETATM   18  O           1     -26.307  -8.627 -21.405  0.00  0.00    -0.398 OA
HETATM   19  H           1     -25.887  -8.271 -22.169  0.00  0.00     0.209 HD
ENDBRANCH  17  18
ENDBRANCH  16  17
BRANCH  16  20
HETATM   20  N           1     -24.331  -7.926 -19.988  0.00  0.00    -0.064 N 
HETATM   21  H           1     -24.642  -8.786 -20.493  0.00  0.00     0.275 HD
HETATM   22  H           1     -24.050  -8.175 -19.013  0.00  0.00     0.275 HD
HETATM   23  H           1     -23.516  -7.504 -20.488  0.00  0.00     0.275 HD
ENDBRANCH  16  20
ENDBRANCH   4  16
TORSDOF 9
ENDMDL
MODEL 5
REMARK VINA RESULT:      -5.9     10.675     12.171
REMARK  9 active torsions:
REMARK  status: ('A' for Active; 'I' for Inactive)
REMARK    1  A    between atoms: N_1  and  C_5 
REMARK       I    between atoms: N_1  and  C_23 
REMARK    2  A    between atoms: C_2  and  C_18 
REMARK    3  A    between atoms: C_2  and  O_3 
REMARK    4  A    between atoms: C_4  and  C_10 
REMARK    5  A    between atoms: C_4  and  C_5 
REMARK    6  A    between atoms: C_5  and  C_16 
REMARK       I    between atoms: N_6  and  C_21 
REMARK    7  A    between atoms: C_10  and  C_21 
REMARK    8  A    between atoms: C_18  and  C_23 
REMARK    9  A    between atoms: C_18  and  N_22 
ROOT
HETATM    1  N           1     -23.205  -4.540  -8.667  0.00  0.00    -0.345 N 
HETATM    2  O           1     -21.438  -3.369  -7.966  0.00  0.00    -0.271 OA
HETATM    3  H           1     -23.886  -5.264  -8.474  0.00  0.00     0.163 HD
HETATM    4  C           1     -22.250  -4.232  -7.735  0.00  0.00     0.251 C 
ENDROOT
BRANCH   1   5
HETATM    5  C           1     -23.240  -3.832  -9.932  0.00  0.00     0.186 C 
BRANCH   5   6
HETATM    6  C           1     -22.891  -4.792 -11.061  0.00  0.00     0.045 C 
BRANCH   6   7
HETATM    7  C           1     -21.844  -4.155 -11.965  0.00  0.00     0.105 C 
BRANCH   7   8
HETATM    8  C           1     -20.612  -3.827 -11.156  0.00  0.00     0.215 C 
HETATM    9  N           1     -19.980  -4.812 -10.444  0.00  0.00    -0.370 N 
HETATM   10  H           1     -20.337  -5.758 -10.461  0.00  0.00     0.159 HD
HETATM   11  H           1     -19.154  -4.593  -9.902  0.00  0.00     0.159 HD
HETATM   12  O           1     -20.185  -2.698 -11.135  0.00  0.00    -0.274 OA
ENDBRANCH   7   8
ENDBRANCH   6   7
ENDBRANCH   5   6
BRANCH   5  13
HETATM   13  C           1     -24.624  -3.273 -10.155  0.00  0.00     0.196 C 
HETATM   14  O           1     -25.224  -2.699  -9.221  0.00  0.00    -0.646 OA
HETATM   15  O           1     -25.169  -3.384 -11.274  0.00  0.00    -0.646 OA
ENDBRANCH   5  13
ENDBRANCH   1   5
BRANCH   4  16
HETATM   16  C           1     -22.214  -4.970  -6.419  0.00  0.00     0.297 C 
BRANCH  16  17
HETATM   17  C           1     -21.364  -6.225  -6.565  0.00  0.00     0.206 C 
BRANCH  17  18
HETATM   18  O           1     -20.492  -6.077  -7.652  0.00  0.00    -0.398 OA
HETATM   19  H           1     -20.740  -5.285  -8.097  0.00  0.00     0.209 HD
ENDBRANCH  17  18
ENDBRANCH  16  17
BRANCH  16  20
HETATM   20  N           1     -23.609  -5.354  -6.024  0.00  0.00    -0.064 N 
HETATM   21  H           1     -24.238  -5.282  -6.854  0.00  0.00     0.275 HD
HETATM   22  H           1     -23.947  -4.710  -5.273  0.00  0.00     0.275 HD
HETATM   23  H           1     -23.613  -6.336  -5.668  0.00  0.00     0.275 HD
ENDBRANCH  16  20
ENDBRANCH   4  16
TORSDOF 9
ENDMDL
MODEL 6
REMARK VINA RESULT:      -5.9      1.915      2.431
REMARK  9 active torsions:
REMARK  status: ('A' for Active; 'I' for Inactive)
REMARK    1  A    between atoms: N_1  and  C_5 
REMARK       I    between atoms: N_1  and  C_23 
REMARK    2  A    between atoms: C_2  and  C_18 
REMARK    3  A    between atoms: C_2  and  O_3 
REMARK    4  A    between atoms: C_4  and  C_10 
REMARK    5  A    between atoms: C_4  and  C_5 
REMARK    6  A    between atoms: C_5  and  C_16 
REMARK       I    between atoms: N_6  and  C_21 
REMARK    7  A    between atoms: C_10  and  C_21 
REMARK    8  A    between atoms: C_18  and  C_23 
REMARK    9  A    between atoms: C_18  and  N_22 
ROOT
HETATM    1  N           1     -26.958  -6.678 -18.610  0.00  0.00    -0.345 N 
HETATM    2  O           1     -26.853  -5.654 -20.592  0.00  0.00    -0.271 OA
HETATM    3  H           1     -26.765  -7.507 -18.062  0.00  0.00     0.163 HD
HETATM    4  C           1     -26.624  -6.642 -19.938  0.00  0.00     0.251 C 
ENDROOT
BRANCH   1   5
HETATM    5  C           1     -27.589  -5.529 -17.990  0.00  0.00     0.186 C 
BRANCH   5   6
HETATM    6  C           1     -29.102  -5.705 -18.018  0.00  0.00     0.045 C 
BRANCH   6   7
HETATM    7  C           1     -29.762  -4.369 -18.331  0.00  0.00     0.105 C 
BRANCH   7   8
HETATM    8  C           1     -30.883  -4.119 -17.352  0.00  0.00     0.215 C 
HETATM    9  N           1     -31.093  -4.991 -16.316  0.00  0.00    -0.370 N 
HETATM   10  H           1     -30.497  -5.801 -16.208  0.00  0.00     0.159 HD
HETATM   11  H           1     -31.844  -4.824 -15.659  0.00  0.00     0.159 HD
HETATM   12  O           1     -31.594  -3.152 -17.481  0.00  0.00    -0.274 OA
ENDBRANCH   7   8
ENDBRANCH   6   7
ENDBRANCH   5   6
BRANCH   5  13
HETATM   13  C           1     -27.123  -5.413 -16.559  0.00  0.00     0.196 C 
HETATM   14  O           1     -27.930  -5.088 -15.663  0.00  0.00    -0.646 OA
HETATM   15  O           1     -25.928  -5.644 -16.272  0.00  0.00    -0.646 OA
ENDBRANCH   5  13
ENDBRANCH   1   5
BRANCH   4  16
HETATM   16  C           1     -25.967  -7.838 -20.583  0.00  0.00     0.297 C 
BRANCH  16  17
HETATM   17  C           1     -24.936  -7.364 -21.599  0.00  0.00     0.206 C 
BRANCH  17  18
HETATM   18  O           1     -24.512  -8.450 -22.377  0.00  0.00    -0.398 OA
HETATM   19  H           1     -24.372  -8.124 -23.250  0.00  0.00     0.209 HD
ENDBRANCH  17  18
ENDBRANCH  16  17
BRANCH  16  20
HETATM   20  N           1     -27.008  -8.666 -21.276  0.00  0.00    -0.064 N 
HETATM   21  H           1     -27.382  -8.139 -22.096  0.00  0.00     0.275 HD
HETATM   22  H           1     -27.787  -8.874 -20.610  0.00  0.00     0.275 HD
HETATM   23  H           1     -26.581  -9.562 -21.602  0.00  0.00     0.275 HD
ENDBRANCH  16  20
ENDBRANCH   4  16
TORSDOF 9
ENDMDL
MODEL 7
REMARK VINA RESULT:      -5.6      1.741      2.042
REMARK  9 active torsions:
REMARK  status: ('A' for Active; 'I' for Inactive)
REMARK    1  A    between atoms: N_1  and  C_5 
REMARK       I    between atoms: N_1  and  C_23 
REMARK    2  A    between atoms: C_2  and  C_18 
REMARK    3  A    between atoms: C_2  and  O_3 
REMARK    4  A    between atoms: C_4  and  C_10 
REMARK    5  A    between atoms: C_4  and  C_5 
REMARK    6  A    between atoms: C_5  and  C_16 
REMARK       I    between atoms: N_6  and  C_21 
REMARK    7  A    between atoms: C_10  and  C_21 
REMARK    8  A    between atoms: C_18  and  C_23 
REMARK    9  A    between atoms: C_18  and  N_22 
ROOT
HETATM    1  N           1     -27.853  -6.873 -19.111  0.00  0.00    -0.345 N 
HETATM    2  O           1     -26.256  -6.084 -17.765  0.00  0.00    -0.271 OA
HETATM    3  H           1     -28.093  -7.339 -19.977  0.00  0.00     0.163 HD
HETATM    4  C           1     -26.541  -6.641 -18.798  0.00  0.00     0.251 C 
ENDROOT
BRANCH   1   5
HETATM    5  C           1     -28.902  -6.449 -18.203  0.00  0.00     0.186 C 
BRANCH   5   6
HETATM    6  C           1     -29.434  -5.091 -18.640  0.00  0.00     0.045 C 
BRANCH   6   7
HETATM    7  C           1     -29.896  -4.309 -17.418  0.00  0.00     0.105 C 
BRANCH   7   8
HETATM    8  C           1     -28.921  -3.192 -17.137  0.00  0.00     0.215 C 
HETATM    9  N           1     -29.267  -1.895 -17.411  0.00  0.00    -0.370 N 
HETATM   10  H           1     -30.177  -1.687 -17.801  0.00  0.00     0.159 HD
HETATM   11  H           1     -28.614  -1.147 -17.222  0.00  0.00     0.159 HD
HETATM   12  O           1     -27.835  -3.441 -16.670  0.00  0.00    -0.274 OA
ENDBRANCH   7   8
ENDBRANCH   6   7
ENDBRANCH   5   6
BRANCH   5  13
HETATM   13  C           1     -30.022  -7.460 -18.225  0.00  0.00     0.196 C 
HETATM   14  O           1     -29.997  -8.403 -19.045  0.00  0.00    -0.646 OA
HETATM   15  O           1     -30.975  -7.354 -17.422  0.00  0.00    -0.646 OA
ENDBRANCH   5  13
ENDBRANCH   1   5
BRANCH   4  16
HETATM   16  C           1     -25.450  -7.081 -19.743  0.00  0.00     0.297 C 
BRANCH  16  17
HETATM   17  C           1     -24.115  -7.081 -19.012  0.00  0.00     0.206 C 
BRANCH  17  18
HETATM   18  O           1     -23.167  -7.786 -19.768  0.00  0.00    -0.398 OA
HETATM   19  H           1     -22.571  -7.148 -20.124  0.00  0.00     0.209 HD
ENDBRANCH  17  18
ENDBRANCH  16  17
BRANCH  16  20
HETATM   20  N           1     -25.384  -6.135 -20.905  0.00  0.00    -0.064 N 
HETATM   21  H           1     -25.220  -5.165 -20.554  0.00  0.00     0.275 HD
HETATM   22  H           1     -26.287  -6.167 -21.432  0.00  0.00     0.275 HD
HETATM   23  H           1     -24.602  -6.414 -21.539  0.00  0.00     0.275 HD
ENDBRANCH  16  20
ENDBRANCH   4  16
TORSDOF 9
ENDMDL
MODEL 8
REMARK VINA RESULT:      -5.6      2.006      6.077
REMARK  9 active torsions:
REMARK  status: ('A' for Active; 'I' for Inactive)
REMARK    1  A    between atoms: N_1  and  C_5 
REMARK       I    between atoms: N_1  and  C_23 
REMARK    2  A    between atoms: C_2  and  C_18 
REMARK    3  A    between atoms: C_2  and  O_3 
REMARK    4  A    between atoms: C_4  and  C_10 
REMARK    5  A    between atoms: C_4  and  C_5 
REMARK    6  A    between atoms: C_5  and  C_16 
REMARK       I    between atoms: N_6  and  C_21 
REMARK    7  A    between atoms: C_10  and  C_21 
REMARK    8  A    between atoms: C_18  and  C_23 
REMARK    9  A    between atoms: C_18  and  N_22 
ROOT
HETATM    1  N           1     -28.746  -5.411 -16.759  0.00  0.00    -0.345 N 
HETATM    2  O           1     -30.556  -6.355 -17.663  0.00  0.00    -0.271 OA
HETATM    3  H           1     -28.334  -4.606 -16.304  0.00  0.00     0.163 HD
HETATM    4  C           1     -30.066  -5.394 -17.121  0.00  0.00     0.251 C 
ENDROOT
BRANCH   1   5
HETATM    5  C           1     -27.935  -6.583 -17.029  0.00  0.00     0.186 C 
BRANCH   5   6
HETATM    6  C           1     -26.784  -6.203 -17.951  0.00  0.00     0.045 C 
BRANCH   6   7
HETATM    7  C           1     -27.237  -6.318 -19.401  0.00  0.00     0.105 C 
BRANCH   7   8
HETATM    8  C           1     -26.312  -7.250 -20.145  0.00  0.00     0.215 C 
HETATM    9  N           1     -24.991  -7.328 -19.794  0.00  0.00    -0.370 N 
HETATM   10  H           1     -24.634  -6.760 -19.036  0.00  0.00     0.159 HD
HETATM   11  H           1     -24.371  -7.953 -20.292  0.00  0.00     0.159 HD
HETATM   12  O           1     -26.738  -7.928 -21.049  0.00  0.00    -0.274 OA
ENDBRANCH   7   8
ENDBRANCH   6   7
ENDBRANCH   5   6
BRANCH   5  13
HETATM   13  C           1     -27.384  -7.120 -15.731  0.00  0.00     0.196 C 
HETATM   14  O           1     -26.148  -7.177 -15.552  0.00  0.00    -0.646 OA
HETATM   15  O           1     -28.164  -7.507 -14.833  0.00  0.00    -0.646 OA
ENDBRANCH   5  13
ENDBRANCH   1   5
BRANCH   4  16
HETATM   16  C           1     -30.909  -4.174 -16.841  0.00  0.00     0.297 C 
BRANCH  16  17
HETATM   17  C           1     -32.381  -4.564 -16.838  0.00  0.00     0.206 C 
BRANCH  17  18
HETATM   18  O           1     -33.146  -3.511 -17.358  0.00  0.00    -0.398 OA
HETATM   19  H           1     -33.246  -2.878 -16.668  0.00  0.00     0.209 HD
ENDBRANCH  17  18
ENDBRANCH  16  17
BRANCH  16  20
HETATM   20  N           1     -30.666  -3.144 -17.904  0.00  0.00    -0.064 N 
HETATM   21  H           1     -29.905  -3.473 -18.539  0.00  0.00     0.275 HD
HETATM   22  H           1     -30.383  -2.242 -17.458  0.00  0.00     0.275 HD
HETATM   23  H           1     -31.542  -3.000 -18.456  0.00  0.00     0.275 HD
ENDBRANCH  16  20
ENDBRANCH   4  16
TORSDOF 9
ENDMDL
MODEL 9
REMARK VINA RESULT:      -5.5      1.761      5.973
REMARK  9 active torsions:
REMARK  status: ('A' for Active; 'I' for Inactive)
REMARK    1  A    between atoms: N_1  and  C_5 
REMARK       I    between atoms: N_1  and  C_23 
REMARK    2  A    between atoms: C_2  and  C_18 
REMARK    3  A    between atoms: C_2  and  O_3 
REMARK    4  A    between atoms: C_4  and  C_10 
REMARK    5  A    between atoms: C_4  and  C_5 
REMARK    6  A    between atoms: C_5  and  C_16 
REMARK       I    between atoms: N_6  and  C_21 
REMARK    7  A    between atoms: C_10  and  C_21 
REMARK    8  A    between atoms: C_18  and  C_23 
REMARK    9  A    between atoms: C_18  and  N_22 
ROOT
HETATM    1  N           1     -27.371  -5.625 -17.874  0.00  0.00    -0.345 N 
HETATM    2  O           1     -29.124  -6.921 -17.394  0.00  0.00    -0.271 OA
HETATM    3  H           1     -27.026  -4.709 -18.134  0.00  0.00     0.163 HD
HETATM    4  C           1     -28.714  -5.829 -17.704  0.00  0.00     0.251 C 
ENDROOT
BRANCH   1   5
HETATM    5  C           1     -26.440  -6.721 -17.684  0.00  0.00     0.186 C 
BRANCH   5   6
HETATM    6  C           1     -25.328  -6.629 -18.721  0.00  0.00     0.045 C 
BRANCH   6   7
HETATM    7  C           1     -25.932  -6.668 -20.118  0.00  0.00     0.105 C 
BRANCH   7   8
HETATM    8  C           1     -25.456  -7.906 -20.838  0.00  0.00     0.215 C 
HETATM    9  N           1     -24.131  -8.254 -20.798  0.00  0.00    -0.370 N 
HETATM   10  H           1     -23.473  -7.681 -20.286  0.00  0.00     0.159 HD
HETATM   11  H           1     -23.812  -9.084 -21.280  0.00  0.00     0.159 HD
HETATM   12  O           1     -26.242  -8.590 -21.449  0.00  0.00    -0.274 OA
ENDBRANCH   7   8
ENDBRANCH   6   7
ENDBRANCH   5   6
BRANCH   5  13
HETATM   13  C           1     -25.846  -6.640 -16.299  0.00  0.00     0.196 C 
HETATM   14  O           1     -26.192  -7.460 -15.422  0.00  0.00    -0.646 OA
HETATM   15  O           1     -25.008  -5.752 -16.031  0.00  0.00    -0.646 OA
ENDBRANCH   5  13
ENDBRANCH   1   5
BRANCH   4  16
HETATM   16  C           1     -29.681  -4.687 -17.903  0.00  0.00     0.297 C 
BRANCH  16  17
HETATM   17  C           1     -29.009  -3.379 -17.510  0.00  0.00     0.206 C 
BRANCH  17  18
HETATM   18  O           1     -28.336  -3.544 -16.292  0.00  0.00    -0.398 OA
HETATM   19  H           1     -28.558  -2.803 -15.754  0.00  0.00     0.209 HD
ENDBRANCH  17  18
ENDBRANCH  16  17
BRANCH  16  20
HETATM   20  N           1     -30.892  -4.904 -17.044  0.00  0.00    -0.064 N 
HETATM   21  H           1     -30.794  -4.357 -16.160  0.00  0.00     0.275 HD
HETATM   22  H           1     -30.980  -5.921 -16.817  0.00  0.00     0.275 HD
HETATM   23  H           1     -31.745  -4.588 -17.557  0.00  0.00     0.275 HD
ENDBRANCH  16  20
ENDBRANCH   4  16
TORSDOF 9
ENDMDL
