MODEL 1
REMARK VINA RESULT:      -6.4      0.000      0.000
REMARK  10 active torsions:
REMARK  status: ('A' for Active; 'I' for Inactive)
REMARK    1  A    between atoms: C_5  and  C_6 
REMARK    2  A    between atoms: C_5  and  C_24 
REMARK    3  A    between atoms: C_6  and  C_7 
REMARK    4  A    between atoms: C_7  and  N_8 
REMARK    5  A    between atoms: C_9  and  C_26 
REMARK    6  A    between atoms: C_9  and  C_17 
REMARK    7  A    between atoms: N_14  and  C_26 
REMARK    8  A    between atoms: C_19  and  C_24 
REMARK    9  A    between atoms: C_24  and  N_28 
REMARK       I    between atoms: C_25  and  N_28 
REMARK   10  A    between atoms: C_25  and  C_26 
ROOT
HETATM    1  O           1     -24.540  -6.601 -18.465  0.00  0.00    -0.271 OA
HETATM    2  H           1     -27.661  -6.885 -18.622  0.00  0.00     0.163 HD
HETATM    3  C           1     -25.612  -6.924 -18.917  0.00  0.00     0.249 C 
HETATM    4  N           1     -26.762  -6.615 -18.243  0.00  0.00    -0.345 N 
ENDROOT
BRANCH   3   5
HETATM    5  C           1     -25.684  -7.670 -20.228  0.00  0.00     0.280 C 
BRANCH   5   6
HETATM    6  C           1     -24.832  -6.954 -21.267  0.00  0.00     0.101 C 
BRANCH   6   7
HETATM    7  C           1     -23.650  -7.804 -21.616  0.00  0.00     0.028 A 
HETATM    8  N           1     -22.788  -8.353 -20.702  0.00  0.00    -0.355 N 
HETATM    9  C           1     -21.904  -9.015 -21.413  0.00  0.00     0.180 A 
ATOM     10  HN          1     -22.825  -8.266 -19.686  1.00  0.00     0.166 HD
HETATM   11  N           1     -22.163  -8.915 -22.750  0.00  0.00    -0.360 N 
HETATM   12  C           1     -23.280  -8.140 -22.896  0.00  0.00     0.114 A 
HETATM   13  H           1     -21.604  -9.352 -23.524  0.00  0.00     0.166 HD
ENDBRANCH   6   7
ENDBRANCH   5   6
BRANCH   5  14
HETATM   14  N           1     -27.108  -7.718 -20.697  0.00  0.00    -0.066 N 
HETATM   15  H           1     -27.626  -6.891 -20.324  0.00  0.00     0.275 HD
HETATM   16  H           1     -27.131  -7.701 -21.741  0.00  0.00     0.275 HD
HETATM   17  H           1     -27.559  -8.596 -20.352  0.00  0.00     0.275 HD
ENDBRANCH   5  14
ENDBRANCH   3   5
BRANCH   4  18
HETATM   18  C           1     -26.693  -5.899 -16.984  0.00  0.00     0.185 C 
BRANCH  18  19
HETATM   19  C           1     -27.832  -4.891 -16.908  0.00  0.00     0.038 C 
BRANCH  19  20
HETATM   20  C           1     -28.794  -5.123 -18.067  0.00  0.00     0.030 C 
BRANCH  20  21
HETATM   21  C           1     -30.226  -4.928 -17.585  0.00  0.00     0.230 C 
BRANCH  21  22
HETATM   22  N           1     -30.551  -5.963 -16.550  0.00  0.00    -0.079 N 
HETATM   23  H           1     -30.940  -6.814 -17.017  0.00  0.00     0.274 HD
HETATM   24  H           1     -29.682  -6.219 -16.030  0.00  0.00     0.274 HD
HETATM   25  H           1     -31.257  -5.579 -15.882  0.00  0.00     0.274 HD
ENDBRANCH  21  22
ENDBRANCH  20  21
ENDBRANCH  19  20
ENDBRANCH  18  19
BRANCH  18  26
HETATM   26  C           1     -26.813  -6.878 -15.842  0.00  0.00     0.196 C 
HETATM   27  O           1     -25.783  -7.359 -15.321  0.00  0.00    -0.646 OA
HETATM   28  O           1     -27.941  -7.210 -15.418  0.00  0.00    -0.646 OA
ENDBRANCH  18  26
ENDBRANCH   4  18
TORSDOF 10
ENDMDL
MODEL 2
REMARK VINA RESULT:      -6.4     11.001     12.717
REMARK  10 active torsions:
REMARK  status: ('A' for Active; 'I' for Inactive)
REMARK    1  A    between atoms: C_5  and  C_6 
REMARK    2  A    between atoms: C_5  and  C_24 
REMARK    3  A    between atoms: C_6  and  C_7 
REMARK    4  A    between atoms: C_7  and  N_8 
REMARK    5  A    between atoms: C_9  and  C_26 
REMARK    6  A    between atoms: C_9  and  C_17 
REMARK    7  A    between atoms: N_14  and  C_26 
REMARK    8  A    between atoms: C_19  and  C_24 
REMARK    9  A    between atoms: C_24  and  N_28 
REMARK       I    between atoms: C_25  and  N_28 
REMARK   10  A    between atoms: C_25  and  C_26 
ROOT
HETATM    1  O           1     -33.636  -2.180 -11.141  0.00  0.00    -0.271 OA
HETATM    2  H           1     -35.370  -2.001 -13.750  0.00  0.00     0.163 HD
HETATM    3  C           1     -34.181  -2.559 -12.150  0.00  0.00     0.249 C 
HETATM    4  N           1     -34.913  -1.683 -12.905  0.00  0.00    -0.345 N 
ENDROOT
BRANCH   3   5
HETATM    5  C           1     -34.056  -4.001 -12.578  0.00  0.00     0.280 C 
BRANCH   5   6
HETATM    6  C           1     -33.027  -4.703 -11.702  0.00  0.00     0.101 C 
BRANCH   6   7
HETATM    7  C           1     -33.682  -5.831 -10.967  0.00  0.00     0.028 A 
HETATM    8  N           1     -33.194  -7.111 -10.909  0.00  0.00    -0.355 N 
HETATM    9  C           1     -34.056  -7.778 -10.176  0.00  0.00     0.180 A 
ATOM     10  HN          1     -32.343  -7.469 -11.342  1.00  0.00     0.166 HD
HETATM   11  N           1     -35.081  -6.978  -9.759  0.00  0.00    -0.360 N 
HETATM   12  C           1     -34.856  -5.726 -10.259  0.00  0.00     0.114 A 
HETATM   13  H           1     -35.894  -7.272  -9.164  0.00  0.00     0.166 HD
ENDBRANCH   6   7
ENDBRANCH   5   6
BRANCH   5  14
HETATM   14  N           1     -33.615  -4.059 -14.011  0.00  0.00    -0.066 N 
HETATM   15  H           1     -34.337  -3.607 -14.616  0.00  0.00     0.275 HD
HETATM   16  H           1     -32.707  -3.554 -14.116  0.00  0.00     0.275 HD
HETATM   17  H           1     -33.496  -5.057 -14.298  0.00  0.00     0.275 HD
ENDBRANCH   5  14
ENDBRANCH   3   5
BRANCH   4  18
HETATM   18  C           1     -35.034  -0.298 -12.493  0.00  0.00     0.185 C 
BRANCH  18  19
HETATM   19  C           1     -35.048   0.599 -13.723  0.00  0.00     0.038 C 
BRANCH  19  20
HETATM   20  C           1     -35.179  -0.257 -14.976  0.00  0.00     0.030 C 
BRANCH  20  21
HETATM   21  C           1     -36.275   0.310 -15.868  0.00  0.00     0.230 C 
BRANCH  21  22
HETATM   22  N           1     -36.474  -0.590 -17.050  0.00  0.00    -0.079 N 
HETATM   23  H           1     -35.681  -1.270 -17.109  0.00  0.00     0.274 HD
HETATM   24  H           1     -37.372  -1.113 -16.942  0.00  0.00     0.274 HD
HETATM   25  H           1     -36.507  -0.017 -17.923  0.00  0.00     0.274 HD
ENDBRANCH  21  22
ENDBRANCH  20  21
ENDBRANCH  19  20
ENDBRANCH  18  19
BRANCH  18  26
HETATM   26  C           1     -36.319  -0.113 -11.722  0.00  0.00     0.196 C 
HETATM   27  O           1     -37.390  -0.572 -12.174  0.00  0.00    -0.646 OA
HETATM   28  O           1     -36.312   0.499 -10.632  0.00  0.00    -0.646 OA
ENDBRANCH  18  26
ENDBRANCH   4  18
TORSDOF 10
ENDMDL
MODEL 3
REMARK VINA RESULT:      -6.3      2.091      2.578
REMARK  10 active torsions:
REMARK  status: ('A' for Active; 'I' for Inactive)
REMARK    1  A    between atoms: C_5  and  C_6 
REMARK    2  A    between atoms: C_5  and  C_24 
REMARK    3  A    between atoms: C_6  and  C_7 
REMARK    4  A    between atoms: C_7  and  N_8 
REMARK    5  A    between atoms: C_9  and  C_26 
REMARK    6  A    between atoms: C_9  and  C_17 
REMARK    7  A    between atoms: N_14  and  C_26 
REMARK    8  A    between atoms: C_19  and  C_24 
REMARK    9  A    between atoms: C_24  and  N_28 
REMARK       I    between atoms: C_25  and  N_28 
REMARK   10  A    between atoms: C_25  and  C_26 
ROOT
HETATM    1  O           1     -26.223  -5.965 -17.300  0.00  0.00    -0.271 OA
HETATM    2  H           1     -27.722  -7.023 -19.846  0.00  0.00     0.163 HD
HETATM    3  C           1     -26.357  -6.429 -18.408  0.00  0.00     0.249 C 
HETATM    4  N           1     -27.610  -6.634 -18.918  0.00  0.00    -0.345 N 
ENDROOT
BRANCH   3   5
HETATM    5  C           1     -25.141  -6.781 -19.229  0.00  0.00     0.280 C 
BRANCH   5   6
HETATM    6  C           1     -25.558  -7.651 -20.407  0.00  0.00     0.101 C 
BRANCH   6   7
HETATM    7  C           1     -24.357  -7.978 -21.238  0.00  0.00     0.028 A 
HETATM    8  N           1     -23.296  -8.735 -20.810  0.00  0.00    -0.355 N 
HETATM    9  C           1     -22.469  -8.780 -21.828  0.00  0.00     0.180 A 
ATOM     10  HN          1     -23.175  -9.170 -19.895  1.00  0.00     0.166 HD
HETATM   11  N           1     -22.954  -8.082 -22.897  0.00  0.00    -0.360 N 
HETATM   12  C           1     -24.165  -7.562 -22.533  0.00  0.00     0.114 A 
HETATM   13  H           1     -22.482  -7.966 -23.828  0.00  0.00     0.166 HD
ENDBRANCH   6   7
ENDBRANCH   5   6
BRANCH   5  14
HETATM   14  N           1     -24.162  -7.533 -18.376  0.00  0.00    -0.066 N 
HETATM   15  H           1     -23.199  -7.167 -18.546  0.00  0.00     0.275 HD
HETATM   16  H           1     -24.410  -7.405 -17.369  0.00  0.00     0.275 HD
HETATM   17  H           1     -24.197  -8.549 -18.618  0.00  0.00     0.275 HD
ENDBRANCH   5  14
ENDBRANCH   3   5
BRANCH   4  18
HETATM   18  C           1     -28.778  -6.296 -18.128  0.00  0.00     0.185 C 
BRANCH  18  19
HETATM   19  C           1     -29.372  -4.988 -18.633  0.00  0.00     0.038 C 
BRANCH  19  20
HETATM   20  C           1     -29.771  -4.119 -17.447  0.00  0.00     0.030 C 
BRANCH  20  21
HETATM   21  C           1     -28.713  -3.046 -17.225  0.00  0.00     0.230 C 
BRANCH  21  22
HETATM   22  N           1     -29.347  -1.691 -17.327  0.00  0.00    -0.079 N 
HETATM   23  H           1     -28.939  -1.175 -18.141  0.00  0.00     0.274 HD
HETATM   24  H           1     -30.377  -1.798 -17.466  0.00  0.00     0.274 HD
HETATM   25  H           1     -29.167  -1.154 -16.449  0.00  0.00     0.274 HD
ENDBRANCH  21  22
ENDBRANCH  20  21
ENDBRANCH  19  20
ENDBRANCH  18  19
BRANCH  18  26
HETATM   26  C           1     -29.805  -7.395 -18.254  0.00  0.00     0.196 C 
HETATM   27  O           1     -29.580  -8.379 -18.991  0.00  0.00    -0.646 OA
HETATM   28  O           1     -30.881  -7.321 -17.622  0.00  0.00    -0.646 OA
ENDBRANCH  18  26
ENDBRANCH   4  18
TORSDOF 10
ENDMDL
MODEL 4
REMARK VINA RESULT:      -5.9      3.193      7.253
REMARK  10 active torsions:
REMARK  status: ('A' for Active; 'I' for Inactive)
REMARK    1  A    between atoms: C_5  and  C_6 
REMARK    2  A    between atoms: C_5  and  C_24 
REMARK    3  A    between atoms: C_6  and  C_7 
REMARK    4  A    between atoms: C_7  and  N_8 
REMARK    5  A    between atoms: C_9  and  C_26 
REMARK    6  A    between atoms: C_9  and  C_17 
REMARK    7  A    between atoms: N_14  and  C_26 
REMARK    8  A    between atoms: C_19  and  C_24 
REMARK    9  A    between atoms: C_24  and  N_28 
REMARK       I    between atoms: C_25  and  N_28 
REMARK   10  A    between atoms: C_25  and  C_26 
ROOT
HETATM    1  O           1     -28.444  -5.200 -19.312  0.00  0.00    -0.271 OA
HETATM    2  H           1     -27.452  -8.115 -18.706  0.00  0.00     0.163 HD
HETATM    3  C           1     -28.381  -6.265 -18.745  0.00  0.00     0.249 C 
HETATM    4  N           1     -27.505  -7.223 -19.181  0.00  0.00    -0.345 N 
ENDROOT
BRANCH   3   5
HETATM    5  C           1     -29.268  -6.540 -17.556  0.00  0.00     0.280 C 
BRANCH   5   6
HETATM    6  C           1     -29.398  -5.277 -16.716  0.00  0.00     0.101 C 
BRANCH   6   7
HETATM    7  C           1     -30.743  -4.660 -16.945  0.00  0.00     0.028 A 
HETATM    8  N           1     -31.926  -5.177 -16.484  0.00  0.00    -0.355 N 
HETATM    9  C           1     -32.853  -4.344 -16.898  0.00  0.00     0.180 A 
ATOM     10  HN          1     -32.058  -6.027 -15.936  1.00  0.00     0.166 HD
HETATM   11  N           1     -32.314  -3.309 -17.608  0.00  0.00    -0.360 N 
HETATM   12  C           1     -30.961  -3.499 -17.648  0.00  0.00     0.114 A 
HETATM   13  H           1     -32.844  -2.515 -18.044  0.00  0.00     0.166 HD
ENDBRANCH   6   7
ENDBRANCH   5   6
BRANCH   5  14
HETATM   14  N           1     -28.664  -7.633 -16.724  0.00  0.00    -0.066 N 
HETATM   15  H           1     -29.145  -7.672 -15.798  0.00  0.00     0.275 HD
HETATM   16  H           1     -28.779  -8.548 -17.215  0.00  0.00     0.275 HD
HETATM   17  H           1     -27.647  -7.439 -16.580  0.00  0.00     0.275 HD
ENDBRANCH   5  14
ENDBRANCH   3   5
BRANCH   4  18
HETATM   18  C           1     -26.653  -6.958 -20.324  0.00  0.00     0.185 C 
BRANCH  18  19
HETATM   19  C           1     -25.248  -6.620 -19.844  0.00  0.00     0.038 C 
BRANCH  19  20
HETATM   20  C           1     -25.167  -6.810 -18.335  0.00  0.00     0.030 C 
BRANCH  20  21
HETATM   21  C           1     -23.823  -7.429 -17.972  0.00  0.00     0.230 C 
BRANCH  21  22
HETATM   22  N           1     -23.825  -7.816 -16.523  0.00  0.00    -0.079 N 
HETATM   23  H           1     -22.863  -8.113 -16.240  0.00  0.00     0.274 HD
HETATM   24  H           1     -24.121  -6.997 -15.945  0.00  0.00     0.274 HD
HETATM   25  H           1     -24.491  -8.607 -16.374  0.00  0.00     0.274 HD
ENDBRANCH  21  22
ENDBRANCH  20  21
ENDBRANCH  19  20
ENDBRANCH  18  19
BRANCH  18  26
HETATM   26  C           1     -26.601  -8.183 -21.205  0.00  0.00     0.196 C 
HETATM   27  O           1     -27.636  -8.856 -21.402  0.00  0.00    -0.646 OA
HETATM   28  O           1     -25.523  -8.524 -21.738  0.00  0.00    -0.646 OA
ENDBRANCH  18  26
ENDBRANCH   4  18
TORSDOF 10
ENDMDL
MODEL 5
REMARK VINA RESULT:      -5.8     11.830     14.162
REMARK  10 active torsions:
REMARK  status: ('A' for Active; 'I' for Inactive)
REMARK    1  A    between atoms: C_5  and  C_6 
REMARK    2  A    between atoms: C_5  and  C_24 
REMARK    3  A    between atoms: C_6  and  C_7 
REMARK    4  A    between atoms: C_7  and  N_8 
REMARK    5  A    between atoms: C_9  and  C_26 
REMARK    6  A    between atoms: C_9  and  C_17 
REMARK    7  A    between atoms: N_14  and  C_26 
REMARK    8  A    between atoms: C_19  and  C_24 
REMARK    9  A    between atoms: C_24  and  N_28 
REMARK       I    between atoms: C_25  and  N_28 
REMARK   10  A    between atoms: C_25  and  C_26 
ROOT
HETATM    1  O           1     -19.781  -4.535  -5.677  0.00  0.00    -0.271 OA
HETATM    2  H           1     -22.314  -6.257  -6.358  0.00  0.00     0.163 HD
HETATM    3  C           1     -20.752  -4.900  -6.296  0.00  0.00     0.249 C 
HETATM    4  N           1     -21.500  -5.951  -5.840  0.00  0.00    -0.345 N 
ENDROOT
BRANCH   3   5
HETATM    5  C           1     -21.141  -4.196  -7.573  0.00  0.00     0.280 C 
BRANCH   5   6
HETATM    6  C           1     -21.819  -5.184  -8.512  0.00  0.00     0.101 C 
BRANCH   6   7
HETATM    7  C           1     -22.998  -4.529  -9.161  0.00  0.00     0.028 A 
HETATM    8  N           1     -23.824  -3.625  -8.545  0.00  0.00    -0.355 N 
HETATM    9  C           1     -24.718  -3.299  -9.450  0.00  0.00     0.180 A 
ATOM     10  HN          1     -23.759  -3.279  -7.588  1.00  0.00     0.166 HD
HETATM   11  N           1     -24.501  -3.957 -10.626  0.00  0.00    -0.360 N 
HETATM   12  C           1     -23.401  -4.751 -10.457  0.00  0.00     0.114 A 
HETATM   13  H           1     -25.076  -3.871 -11.500  0.00  0.00     0.166 HD
ENDBRANCH   6   7
ENDBRANCH   5   6
BRANCH   5  14
HETATM   14  N           1     -19.911  -3.644  -8.233  0.00  0.00    -0.066 N 
HETATM   15  H           1     -19.307  -4.431  -8.558  0.00  0.00     0.275 HD
HETATM   16  H           1     -20.190  -3.058  -9.052  0.00  0.00     0.275 HD
HETATM   17  H           1     -19.382  -3.058  -7.548  0.00  0.00     0.275 HD
ENDBRANCH   5  14
ENDBRANCH   3   5
BRANCH   4  18
HETATM   18  C           1     -21.126  -6.628  -4.613  0.00  0.00     0.185 C 
BRANCH  18  19
HETATM   19  C           1     -22.274  -6.544  -3.616  0.00  0.00     0.038 C 
BRANCH  19  20
HETATM   20  C           1     -21.750  -6.033  -2.280  0.00  0.00     0.030 C 
BRANCH  20  21
HETATM   21  C           1     -22.302  -6.896  -1.153  0.00  0.00     0.230 C 
BRANCH  21  22
HETATM   22  N           1     -21.852  -8.314  -1.344  0.00  0.00    -0.079 N 
HETATM   23  H           1     -21.314  -8.392  -2.238  0.00  0.00     0.274 HD
HETATM   24  H           1     -21.242  -8.596  -0.545  0.00  0.00     0.274 HD
HETATM   25  H           1     -22.686  -8.942  -1.385  0.00  0.00     0.274 HD
ENDBRANCH  21  22
ENDBRANCH  20  21
ENDBRANCH  19  20
ENDBRANCH  18  19
BRANCH  18  26
HETATM   26  C           1     -20.825  -8.077  -4.911  0.00  0.00     0.196 C 
HETATM   27  O           1     -19.901  -8.374  -5.698  0.00  0.00    -0.646 OA
HETATM   28  O           1     -21.500  -8.980  -4.370  0.00  0.00    -0.646 OA
ENDBRANCH  18  26
ENDBRANCH   4  18
TORSDOF 10
ENDMDL
MODEL 6
REMARK VINA RESULT:      -5.7     10.754     13.394
REMARK  10 active torsions:
REMARK  status: ('A' for Active; 'I' for Inactive)
REMARK    1  A    between atoms: C_5  and  C_6 
REMARK    2  A    between atoms: C_5  and  C_24 
REMARK    3  A    between atoms: C_6  and  C_7 
REMARK    4  A    between atoms: C_7  and  N_8 
REMARK    5  A    between atoms: C_9  and  C_26 
REMARK    6  A    between atoms: C_9  and  C_17 
REMARK    7  A    between atoms: N_14  and  C_26 
REMARK    8  A    between atoms: C_19  and  C_24 
REMARK    9  A    between atoms: C_24  and  N_28 
REMARK       I    between atoms: C_25  and  N_28 
REMARK   10  A    between atoms: C_25  and  C_26 
ROOT
HETATM    1  O           1     -21.398  -3.554  -7.780  0.00  0.00    -0.271 OA
HETATM    2  H           1     -24.111  -5.054  -8.268  0.00  0.00     0.163 HD
HETATM    3  C           1     -22.336  -4.278  -7.540  0.00  0.00     0.249 C 
HETATM    4  N           1     -23.326  -4.448  -8.469  0.00  0.00    -0.345 N 
ENDROOT
BRANCH   3   5
HETATM    5  C           1     -22.415  -4.994  -6.214  0.00  0.00     0.280 C 
BRANCH   5   6
HETATM    6  C           1     -21.488  -6.202  -6.233  0.00  0.00     0.101 C 
BRANCH   6   7
HETATM    7  C           1     -21.324  -6.728  -4.841  0.00  0.00     0.028 A 
HETATM    8  N           1     -21.581  -6.010  -3.701  0.00  0.00    -0.355 N 
HETATM    9  C           1     -21.313  -6.827  -2.709  0.00  0.00     0.180 A 
ATOM     10  HN          1     -21.910  -5.046  -3.637  1.00  0.00     0.166 HD
HETATM   11  N           1     -20.893  -8.044  -3.163  0.00  0.00    -0.360 N 
HETATM   12  C           1     -20.894  -7.996  -4.530  0.00  0.00     0.114 A 
HETATM   13  H           1     -20.619  -8.866  -2.571  0.00  0.00     0.166 HD
ENDBRANCH   6   7
ENDBRANCH   5   6
BRANCH   5  14
HETATM   14  N           1     -23.824  -5.451  -5.977  0.00  0.00    -0.066 N 
HETATM   15  H           1     -24.331  -4.735  -5.409  0.00  0.00     0.275 HD
HETATM   16  H           1     -24.309  -5.573  -6.895  0.00  0.00     0.275 HD
HETATM   17  H           1     -23.814  -6.360  -5.463  0.00  0.00     0.275 HD
ENDBRANCH   5  14
ENDBRANCH   3   5
BRANCH   4  18
HETATM   18  C           1     -23.250  -3.759  -9.743  0.00  0.00     0.185 C 
BRANCH  18  19
HETATM   19  C           1     -22.740  -4.718 -10.811  0.00  0.00     0.038 C 
BRANCH  19  20
HETATM   20  C           1     -21.781  -3.984 -11.739  0.00  0.00     0.030 C 
BRANCH  20  21
HETATM   21  C           1     -20.515  -3.618 -10.975  0.00  0.00     0.230 C 
BRANCH  21  22
HETATM   22  N           1     -19.972  -4.838 -10.293  0.00  0.00    -0.079 N 
HETATM   23  H           1     -19.342  -4.549  -9.510  0.00  0.00     0.274 HD
HETATM   24  H           1     -20.763  -5.404  -9.911  0.00  0.00     0.274 HD
HETATM   25  H           1     -19.432  -5.412 -10.980  0.00  0.00     0.274 HD
ENDBRANCH  21  22
ENDBRANCH  20  21
ENDBRANCH  19  20
ENDBRANCH  18  19
BRANCH  18  26
HETATM   26  C           1     -24.622  -3.262 -10.128  0.00  0.00     0.196 C 
HETATM   27  O           1     -25.325  -2.658  -9.291  0.00  0.00    -0.646 OA
HETATM   28  O           1     -25.055  -3.455 -11.285  0.00  0.00    -0.646 OA
ENDBRANCH  18  26
ENDBRANCH   4  18
TORSDOF 10
ENDMDL
MODEL 7
REMARK VINA RESULT:      -5.6      2.483      7.101
REMARK  10 active torsions:
REMARK  status: ('A' for Active; 'I' for Inactive)
REMARK    1  A    between atoms: C_5  and  C_6 
REMARK    2  A    between atoms: C_5  and  C_24 
REMARK    3  A    between atoms: C_6  and  C_7 
REMARK    4  A    between atoms: C_7  and  N_8 
REMARK    5  A    between atoms: C_9  and  C_26 
REMARK    6  A    between atoms: C_9  and  C_17 
REMARK    7  A    between atoms: N_14  and  C_26 
REMARK    8  A    between atoms: C_19  and  C_24 
REMARK    9  A    between atoms: C_24  and  N_28 
REMARK       I    between atoms: C_25  and  N_28 
REMARK   10  A    between atoms: C_25  and  C_26 
ROOT
HETATM    1  O           1     -28.418  -6.866 -16.385  0.00  0.00    -0.271 OA
HETATM    2  H           1     -26.589  -4.827 -17.917  0.00  0.00     0.163 HD
HETATM    3  C           1     -28.078  -5.813 -16.870  0.00  0.00     0.249 C 
HETATM    4  N           1     -26.873  -5.709 -17.511  0.00  0.00    -0.345 N 
ENDROOT
BRANCH   3   5
HETATM    5  C           1     -28.984  -4.610 -16.769  0.00  0.00     0.280 C 
BRANCH   5   6
HETATM    6  C           1     -29.927  -4.582 -17.964  0.00  0.00     0.101 C 
BRANCH   6   7
HETATM    7  C           1     -31.327  -4.344 -17.490  0.00  0.00     0.028 A 
HETATM    8  N           1     -32.020  -3.173 -17.661  0.00  0.00    -0.355 N 
HETATM    9  C           1     -33.193  -3.380 -17.108  0.00  0.00     0.180 A 
ATOM     10  HN          1     -31.694  -2.323 -18.121  1.00  0.00     0.166 HD
HETATM   11  N           1     -33.284  -4.639 -16.586  0.00  0.00    -0.360 N 
HETATM   12  C           1     -32.095  -5.270 -16.823  0.00  0.00     0.114 A 
HETATM   13  H           1     -34.116  -5.046 -16.092  0.00  0.00     0.166 HD
ENDBRANCH   6   7
ENDBRANCH   5   6
BRANCH   5  14
HETATM   14  N           1     -28.154  -3.360 -16.759  0.00  0.00    -0.066 N 
HETATM   15  H           1     -28.024  -3.036 -15.774  0.00  0.00     0.275 HD
HETATM   16  H           1     -27.221  -3.558 -17.186  0.00  0.00     0.275 HD
HETATM   17  H           1     -28.639  -2.615 -17.309  0.00  0.00     0.275 HD
ENDBRANCH   5  14
ENDBRANCH   3   5
BRANCH   4  18
HETATM   18  C           1     -26.003  -6.865 -17.607  0.00  0.00     0.185 C 
BRANCH  18  19
HETATM   19  C           1     -25.171  -6.771 -18.879  0.00  0.00     0.038 C 
BRANCH  19  20
HETATM   20  C           1     -26.094  -6.636 -20.083  0.00  0.00     0.030 C 
BRANCH  20  21
HETATM   21  C           1     -25.945  -7.859 -20.977  0.00  0.00     0.230 C 
BRANCH  21  22
HETATM   22  N           1     -27.247  -8.602 -21.029  0.00  0.00    -0.079 N 
HETATM   23  H           1     -27.262  -9.333 -20.280  0.00  0.00     0.274 HD
HETATM   24  H           1     -28.035  -7.933 -20.878  0.00  0.00     0.274 HD
HETATM   25  H           1     -27.351  -9.059 -21.963  0.00  0.00     0.274 HD
ENDBRANCH  21  22
ENDBRANCH  20  21
ENDBRANCH  19  20
ENDBRANCH  18  19
BRANCH  18  26
HETATM   26  C           1     -25.087  -6.905 -16.409  0.00  0.00     0.196 C 
HETATM   27  O           1     -24.959  -5.894 -15.685  0.00  0.00    -0.646 OA
HETATM   28  O           1     -24.454  -7.950 -16.140  0.00  0.00    -0.646 OA
ENDBRANCH  18  26
ENDBRANCH   4  18
TORSDOF 10
ENDMDL
MODEL 8
REMARK VINA RESULT:      -5.5     11.969     14.021
REMARK  10 active torsions:
REMARK  status: ('A' for Active; 'I' for Inactive)
REMARK    1  A    between atoms: C_5  and  C_6 
REMARK    2  A    between atoms: C_5  and  C_24 
REMARK    3  A    between atoms: C_6  and  C_7 
REMARK    4  A    between atoms: C_7  and  N_8 
REMARK    5  A    between atoms: C_9  and  C_26 
REMARK    6  A    between atoms: C_9  and  C_17 
REMARK    7  A    between atoms: N_14  and  C_26 
REMARK    8  A    between atoms: C_19  and  C_24 
REMARK    9  A    between atoms: C_24  and  N_28 
REMARK       I    between atoms: C_25  and  N_28 
REMARK   10  A    between atoms: C_25  and  C_26 
ROOT
HETATM    1  O           1     -20.633  -4.435  -5.860  0.00  0.00    -0.271 OA
HETATM    2  H           1     -22.520  -6.936  -6.033  0.00  0.00     0.163 HD
HETATM    3  C           1     -21.482  -5.166  -6.310  0.00  0.00     0.249 C 
HETATM    4  N           1     -21.809  -6.323  -5.655  0.00  0.00    -0.345 N 
ENDROOT
BRANCH   3   5
HETATM    5  C           1     -22.183  -4.805  -7.597  0.00  0.00     0.280 C 
BRANCH   5   6
HETATM    6  C           1     -21.418  -3.690  -8.297  0.00  0.00     0.101 C 
BRANCH   6   7
HETATM    7  C           1     -21.424  -3.931  -9.774  0.00  0.00     0.028 A 
HETATM    8  N           1     -22.553  -3.978 -10.552  0.00  0.00    -0.355 N 
HETATM    9  C           1     -22.124  -4.208 -11.772  0.00  0.00     0.180 A 
ATOM     10  HN          1     -23.519  -3.859 -10.248  1.00  0.00     0.166 HD
HETATM   11  N           1     -20.763  -4.311 -11.812  0.00  0.00    -0.360 N 
HETATM   12  C           1     -20.299  -4.137 -10.537  0.00  0.00     0.114 A 
HETATM   13  H           1     -20.180  -4.493 -12.666  0.00  0.00     0.166 HD
ENDBRANCH   6   7
ENDBRANCH   5   6
BRANCH   5  14
HETATM   14  N           1     -23.576  -4.339  -7.292  0.00  0.00    -0.066 N 
HETATM   15  H           1     -23.537  -3.534  -6.626  0.00  0.00     0.275 HD
HETATM   16  H           1     -24.043  -4.036  -8.177  0.00  0.00     0.275 HD
HETATM   17  H           1     -24.119  -5.121  -6.861  0.00  0.00     0.275 HD
ENDBRANCH   5  14
ENDBRANCH   3   5
BRANCH   4  18
HETATM   18  C           1     -21.134  -6.670  -4.420  0.00  0.00     0.185 C 
BRANCH  18  19
HETATM   19  C           1     -22.166  -7.055  -3.368  0.00  0.00     0.038 C 
BRANCH  19  20
HETATM   20  C           1     -21.998  -6.167  -2.142  0.00  0.00     0.030 C 
BRANCH  20  21
HETATM   21  C           1     -22.134  -7.010  -0.881  0.00  0.00     0.230 C 
BRANCH  21  22
HETATM   22  N           1     -21.043  -8.039  -0.847  0.00  0.00    -0.079 N 
HETATM   23  H           1     -21.007  -8.539  -1.765  0.00  0.00     0.274 HD
HETATM   24  H           1     -20.127  -7.568  -0.671  0.00  0.00     0.274 HD
HETATM   25  H           1     -21.234  -8.726  -0.084  0.00  0.00     0.274 HD
ENDBRANCH  21  22
ENDBRANCH  20  21
ENDBRANCH  19  20
ENDBRANCH  18  19
BRANCH  18  26
HETATM   26  C           1     -20.207  -7.836  -4.664  0.00  0.00     0.196 C 
HETATM   27  O           1     -19.809  -8.086  -5.822  0.00  0.00    -0.646 OA
HETATM   28  O           1     -19.837  -8.552  -3.708  0.00  0.00    -0.646 OA
ENDBRANCH  18  26
ENDBRANCH   4  18
TORSDOF 10
ENDMDL
MODEL 9
REMARK VINA RESULT:      -5.4     12.127     14.614
REMARK  10 active torsions:
REMARK  status: ('A' for Active; 'I' for Inactive)
REMARK    1  A    between atoms: C_5  and  C_6 
REMARK    2  A    between atoms: C_5  and  C_24 
REMARK    3  A    between atoms: C_6  and  C_7 
REMARK    4  A    between atoms: C_7  and  N_8 
REMARK    5  A    between atoms: C_9  and  C_26 
REMARK    6  A    between atoms: C_9  and  C_17 
REMARK    7  A    between atoms: N_14  and  C_26 
REMARK    8  A    between atoms: C_19  and  C_24 
REMARK    9  A    between atoms: C_24  and  N_28 
REMARK       I    between atoms: C_25  and  N_28 
REMARK   10  A    between atoms: C_25  and  C_26 
ROOT
HETATM    1  O           1     -23.059  -5.865  -5.585  0.00  0.00    -0.271 OA
HETATM    2  H           1     -20.037  -6.398  -4.927  0.00  0.00     0.163 HD
HETATM    3  C           1     -21.859  -5.739  -5.656  0.00  0.00     0.249 C 
HETATM    4  N           1     -21.042  -6.504  -4.868  0.00  0.00    -0.345 N 
ENDROOT
BRANCH   3   5
HETATM    5  C           1     -21.261  -4.739  -6.614  0.00  0.00     0.280 C 
BRANCH   5   6
HETATM    6  C           1     -21.381  -5.265  -8.038  0.00  0.00     0.101 C 
BRANCH   6   7
HETATM    7  C           1     -22.443  -4.501  -8.766  0.00  0.00     0.028 A 
HETATM    8  N           1     -23.628  -4.091  -8.209  0.00  0.00    -0.355 N 
HETATM    9  C           1     -24.264  -3.464  -9.171  0.00  0.00     0.180 A 
ATOM     10  HN          1     -23.946  -4.240  -7.252  1.00  0.00     0.166 HD
HETATM   11  N           1     -23.537  -3.453 -10.327  0.00  0.00    -0.360 N 
HETATM   12  C           1     -22.366  -4.115 -10.083  0.00  0.00     0.114 A 
HETATM   13  H           1     -23.826  -3.017 -11.237  0.00  0.00     0.166 HD
ENDBRANCH   6   7
ENDBRANCH   5   6
BRANCH   5  14
HETATM   14  N           1     -19.814  -4.530  -6.279  0.00  0.00    -0.066 N 
HETATM   15  H           1     -19.471  -3.660  -6.744  0.00  0.00     0.275 HD
HETATM   16  H           1     -19.706  -4.438  -5.244  0.00  0.00     0.275 HD
HETATM   17  H           1     -19.257  -5.347  -6.617  0.00  0.00     0.275 HD
ENDBRANCH   5  14
ENDBRANCH   3   5
BRANCH   4  18
HETATM   18  C           1     -21.617  -7.464  -3.946  0.00  0.00     0.185 C 
BRANCH  18  19
HETATM   19  C           1     -20.817  -8.759  -3.997  0.00  0.00     0.038 C 
BRANCH  19  20
HETATM   20  C           1     -19.581  -8.560  -4.865  0.00  0.00     0.030 C 
BRANCH  20  21
HETATM   21  C           1     -18.754  -9.839  -4.873  0.00  0.00     0.230 C 
BRANCH  21  22
HETATM   22  N           1     -18.642 -10.353  -6.277  0.00  0.00    -0.079 N 
HETATM   23  H           1     -18.979 -11.342  -6.314  0.00  0.00     0.274 HD
HETATM   24  H           1     -19.226  -9.763  -6.911  0.00  0.00     0.274 HD
HETATM   25  H           1     -17.644 -10.313  -6.585  0.00  0.00     0.274 HD
ENDBRANCH  21  22
ENDBRANCH  20  21
ENDBRANCH  19  20
ENDBRANCH  18  19
BRANCH  18  26
HETATM   26  C           1     -21.576  -6.904  -2.546  0.00  0.00     0.196 C 
HETATM   27  O           1     -20.829  -7.420  -1.687  0.00  0.00    -0.646 OA
HETATM   28  O           1     -22.291  -5.923  -2.243  0.00  0.00    -0.646 OA
ENDBRANCH  18  26
ENDBRANCH   4  18
TORSDOF 10
ENDMDL
