MODEL 1
REMARK VINA RESULT:      -7.7      0.000      0.000
REMARK  8 active torsions:
REMARK  status: ('A' for Active; 'I' for Inactive)
REMARK    1  A    between atoms: N_3  and  C_13 
REMARK       I    between atoms: N_3  and  C_4 
REMARK    2  A    between atoms: C_4  and  C_5 
REMARK    3  A    between atoms: C_5  and  C_7 
REMARK    4  A    between atoms: C_5  and  N_25 
REMARK    5  A    between atoms: C_7  and  C_22 
REMARK    6  A    between atoms: C_13  and  C_16 
REMARK    7  A    between atoms: C_13  and  C_21 
REMARK    8  A    between atoms: C_15  and  C_21 
ROOT
HETATM    1  N           1     -33.215  -4.049 -14.227  0.00  0.00    -0.344 N 
HETATM    2  C           1     -33.737  -4.492 -15.413  0.00  0.00     0.249 C 
HETATM    3  H           1     -32.254  -3.734 -14.184  0.00  0.00     0.163 HD
HETATM    4  O           1     -34.884  -4.868 -15.464  0.00  0.00    -0.271 OA
ENDROOT
BRANCH   1   5
HETATM    5  C           1     -34.038  -4.031 -13.034  0.00  0.00     0.191 C 
BRANCH   5   6
HETATM    6  C           1     -34.629  -2.654 -12.850  0.00  0.00     0.197 C 
HETATM    7  O           1     -34.983  -1.989 -13.846  0.00  0.00    -0.646 OA
HETATM    8  O           1     -34.762  -2.180 -11.702  0.00  0.00    -0.646 OA
ENDBRANCH   5   6
BRANCH   5   9
HETATM    9  C           1     -33.184  -4.381 -11.823  0.00  0.00     0.094 C 
BRANCH   9  10
HETATM   10  C           1     -33.788  -5.548 -11.106  0.00  0.00     0.028 A 
HETATM   11  N           1     -33.262  -6.815 -11.099  0.00  0.00    -0.354 N 
HETATM   12  C           1     -34.086  -7.528 -10.365  0.00  0.00     0.180 A 
ATOM     13  HN          1     -32.412  -7.135 -11.563  1.00  0.00     0.166 HD
HETATM   14  N           1     -35.123  -6.770  -9.898  0.00  0.00    -0.360 N 
HETATM   15  C           1     -34.945  -5.498 -10.366  0.00  0.00     0.114 A 
HETATM   16  H           1     -35.912  -7.105  -9.291  0.00  0.00     0.166 HD
ENDBRANCH   9  10
ENDBRANCH   5   9
ENDBRANCH   1   5
BRANCH   2  17
HETATM   17  C           1     -32.881  -4.511 -16.655  0.00  0.00     0.278 C 
BRANCH  17  18
HETATM   18  C           1     -31.411  -4.475 -16.260  0.00  0.00     0.081 C 
BRANCH  18  19
HETATM   19  C           1     -30.634  -5.406 -17.139  0.00  0.00    -0.056 A 
HETATM   20  C           1     -29.458  -4.969 -17.748  0.00  0.00     0.007 A 
HETATM   21  C           1     -28.733  -5.836 -18.567  0.00  0.00     0.001 A 
HETATM   22  C           1     -29.186  -7.139 -18.776  0.00  0.00     0.000 A 
HETATM   23  C           1     -30.361  -7.575 -18.166  0.00  0.00     0.001 A 
HETATM   24  C           1     -31.086  -6.709 -17.347  0.00  0.00     0.007 A 
ENDBRANCH  18  19
ENDBRANCH  17  18
BRANCH  17  25
HETATM   25  N           1     -33.200  -3.313 -17.500  0.00  0.00    -0.066 N 
HETATM   26  H           1     -32.915  -3.499 -18.488  0.00  0.00     0.275 HD
HETATM   27  H           1     -34.228  -3.126 -17.465  0.00  0.00     0.275 HD
HETATM   28  H           1     -32.683  -2.483 -17.136  0.00  0.00     0.275 HD
ENDBRANCH  17  25
ENDBRANCH   2  17
TORSDOF 8
ENDMDL
MODEL 2
REMARK VINA RESULT:      -7.6     13.891     16.114
REMARK  8 active torsions:
REMARK  status: ('A' for Active; 'I' for Inactive)
REMARK    1  A    between atoms: N_3  and  C_13 
REMARK       I    between atoms: N_3  and  C_4 
REMARK    2  A    between atoms: C_4  and  C_5 
REMARK    3  A    between atoms: C_5  and  C_7 
REMARK    4  A    between atoms: C_5  and  N_25 
REMARK    5  A    between atoms: C_7  and  C_22 
REMARK    6  A    between atoms: C_13  and  C_16 
REMARK    7  A    between atoms: C_13  and  C_21 
REMARK    8  A    between atoms: C_15  and  C_21 
ROOT
HETATM    1  N           1     -21.658  -5.692  -5.720  0.00  0.00    -0.344 N 
HETATM    2  C           1     -21.528  -7.040  -5.516  0.00  0.00     0.249 C 
HETATM    3  H           1     -21.981  -5.096  -4.968  0.00  0.00     0.163 HD
HETATM    4  O           1     -21.142  -7.751  -6.413  0.00  0.00    -0.271 OA
ENDROOT
BRANCH   1   5
HETATM    5  C           1     -21.334  -5.119  -7.011  0.00  0.00     0.191 C 
BRANCH   5   6
HETATM    6  C           1     -19.886  -4.692  -7.024  0.00  0.00     0.197 C 
HETATM    7  O           1     -19.303  -4.493  -8.110  0.00  0.00    -0.646 OA
HETATM    8  O           1     -19.271  -4.539  -5.946  0.00  0.00    -0.646 OA
ENDBRANCH   5   6
BRANCH   5   9
HETATM    9  C           1     -22.221  -3.908  -7.267  0.00  0.00     0.094 C 
BRANCH   9  10
HETATM   10  C           1     -22.988  -4.109  -8.536  0.00  0.00     0.028 A 
HETATM   11  N           1     -24.285  -3.711  -8.734  0.00  0.00    -0.354 N 
HETATM   12  C           1     -24.574  -4.072  -9.963  0.00  0.00     0.180 A 
ATOM     13  HN          1     -24.895  -3.236  -8.069  1.00  0.00     0.166 HD
HETATM   14  N           1     -23.514  -4.686 -10.567  0.00  0.00    -0.360 N 
HETATM   15  C           1     -22.489  -4.718  -9.663  0.00  0.00     0.114 A 
HETATM   16  H           1     -23.492  -5.065 -11.546  0.00  0.00     0.166 HD
ENDBRANCH   9  10
ENDBRANCH   5   9
ENDBRANCH   1   5
BRANCH   2  17
HETATM   17  C           1     -21.865  -7.636  -4.172  0.00  0.00     0.278 C 
BRANCH  17  18
HETATM   18  C           1     -20.871  -7.141  -3.132  0.00  0.00     0.081 C 
BRANCH  18  19
HETATM   19  C           1     -21.317  -7.571  -1.769  0.00  0.00    -0.056 A 
HETATM   20  C           1     -22.372  -6.910  -1.140  0.00  0.00     0.007 A 
HETATM   21  C           1     -22.788  -7.310   0.130  0.00  0.00     0.001 A 
HETATM   22  C           1     -22.150  -8.373   0.770  0.00  0.00     0.000 A 
HETATM   23  C           1     -21.096  -9.034   0.141  0.00  0.00     0.001 A 
HETATM   24  C           1     -20.679  -8.634  -1.129  0.00  0.00     0.007 A 
ENDBRANCH  18  19
ENDBRANCH  17  18
BRANCH  17  25
HETATM   25  N           1     -21.796  -9.133  -4.258  0.00  0.00    -0.066 N 
HETATM   26  H           1     -21.224  -9.500  -3.465  0.00  0.00     0.275 HD
HETATM   27  H           1     -22.761  -9.530  -4.205  0.00  0.00     0.275 HD
HETATM   28  H           1     -21.356  -9.409  -5.164  0.00  0.00     0.275 HD
ENDBRANCH  17  25
ENDBRANCH   2  17
TORSDOF 8
ENDMDL
MODEL 3
REMARK VINA RESULT:      -7.4     14.008     15.143
REMARK  8 active torsions:
REMARK  status: ('A' for Active; 'I' for Inactive)
REMARK    1  A    between atoms: N_3  and  C_13 
REMARK       I    between atoms: N_3  and  C_4 
REMARK    2  A    between atoms: C_4  and  C_5 
REMARK    3  A    between atoms: C_5  and  C_7 
REMARK    4  A    between atoms: C_5  and  N_25 
REMARK    5  A    between atoms: C_7  and  C_22 
REMARK    6  A    between atoms: C_13  and  C_16 
REMARK    7  A    between atoms: C_13  and  C_21 
REMARK    8  A    between atoms: C_15  and  C_21 
ROOT
HETATM    1  N           1     -21.152  -7.368  -5.502  0.00  0.00    -0.344 N 
HETATM    2  C           1     -21.495  -6.043  -5.471  0.00  0.00     0.249 C 
HETATM    3  H           1     -21.373  -7.930  -6.314  0.00  0.00     0.163 HD
HETATM    4  O           1     -21.231  -5.373  -4.502  0.00  0.00    -0.271 OA
ENDROOT
BRANCH   1   5
HETATM    5  C           1     -20.471  -7.967  -4.370  0.00  0.00     0.191 C 
BRANCH   5   6
HETATM    6  C           1     -19.245  -8.703  -4.852  0.00  0.00     0.197 C 
HETATM    7  O           1     -18.970  -8.727  -6.071  0.00  0.00    -0.646 OA
HETATM    8  O           1     -18.506  -9.290  -4.032  0.00  0.00    -0.646 OA
ENDBRANCH   5   6
BRANCH   5   9
HETATM    9  C           1     -21.407  -8.944  -3.673  0.00  0.00     0.094 C 
BRANCH   9  10
HETATM   10  C           1     -21.774  -8.409  -2.324  0.00  0.00     0.028 A 
HETATM   11  N           1     -21.896  -7.077  -2.021  0.00  0.00    -0.354 N 
HETATM   12  C           1     -22.225  -7.040  -0.750  0.00  0.00     0.180 A 
ATOM     13  HN          1     -21.760  -6.284  -2.649  1.00  0.00     0.166 HD
HETATM   14  N           1     -22.322  -8.295  -0.221  0.00  0.00    -0.360 N 
HETATM   15  C           1     -22.034  -9.184  -1.219  0.00  0.00     0.114 A 
HETATM   16  H           1     -22.571  -8.534   0.770  0.00  0.00     0.166 HD
ENDBRANCH   9  10
ENDBRANCH   5   9
ENDBRANCH   1   5
BRANCH   2  17
HETATM   17  C           1     -22.204  -5.420  -6.649  0.00  0.00     0.278 C 
BRANCH  17  18
HETATM   18  C           1     -21.448  -4.177  -7.098  0.00  0.00     0.081 C 
BRANCH  18  19
HETATM   19  C           1     -21.392  -4.139  -8.594  0.00  0.00    -0.056 A 
HETATM   20  C           1     -20.230  -4.532  -9.258  0.00  0.00     0.007 A 
HETATM   21  C           1     -20.178  -4.497 -10.652  0.00  0.00     0.001 A 
HETATM   22  C           1     -21.288  -4.070 -11.381  0.00  0.00     0.000 A 
HETATM   23  C           1     -22.450  -3.678 -10.716  0.00  0.00     0.001 A 
HETATM   24  C           1     -22.502  -3.713  -9.322  0.00  0.00     0.007 A 
ENDBRANCH  18  19
ENDBRANCH  17  18
BRANCH  17  25
HETATM   25  N           1     -23.599  -5.039  -6.248  0.00  0.00    -0.066 N 
HETATM   26  H           1     -24.156  -5.904  -6.065  0.00  0.00     0.275 HD
HETATM   27  H           1     -23.566  -4.457  -5.381  0.00  0.00     0.275 HD
HETATM   28  H           1     -24.045  -4.491  -7.017  0.00  0.00     0.275 HD
ENDBRANCH  17  25
ENDBRANCH   2  17
TORSDOF 8
ENDMDL
MODEL 4
REMARK VINA RESULT:      -7.1     13.797     15.008
REMARK  8 active torsions:
REMARK  status: ('A' for Active; 'I' for Inactive)
REMARK    1  A    between atoms: N_3  and  C_13 
REMARK       I    between atoms: N_3  and  C_4 
REMARK    2  A    between atoms: C_4  and  C_5 
REMARK    3  A    between atoms: C_5  and  C_7 
REMARK    4  A    between atoms: C_5  and  N_25 
REMARK    5  A    between atoms: C_7  and  C_22 
REMARK    6  A    between atoms: C_13  and  C_16 
REMARK    7  A    between atoms: C_13  and  C_21 
REMARK    8  A    between atoms: C_15  and  C_21 
ROOT
HETATM    1  N           1     -20.952  -6.662  -4.314  0.00  0.00    -0.344 N 
HETATM    2  C           1     -21.713  -5.992  -5.234  0.00  0.00     0.249 C 
HETATM    3  H           1     -19.951  -6.518  -4.284  0.00  0.00     0.163 HD
HETATM    4  O           1     -22.908  -6.164  -5.270  0.00  0.00    -0.271 OA
ENDROOT
BRANCH   1   5
HETATM    5  C           1     -21.581  -7.579  -3.383  0.00  0.00     0.191 C 
BRANCH   5   6
HETATM    6  C           1     -21.752  -6.900  -2.046  0.00  0.00     0.197 C 
HETATM    7  O           1     -21.432  -7.498  -0.997  0.00  0.00    -0.646 OA
HETATM    8  O           1     -22.215  -5.740  -1.989  0.00  0.00    -0.646 OA
ENDBRANCH   5   6
BRANCH   5   9
HETATM    9  C           1     -20.705  -8.813  -3.216  0.00  0.00     0.094 C 
BRANCH   9  10
HETATM   10  C           1     -21.568 -10.036  -3.172  0.00  0.00     0.028 A 
HETATM   11  N           1     -22.202 -10.501  -2.048  0.00  0.00    -0.354 N 
HETATM   12  C           1     -22.844 -11.580  -2.435  0.00  0.00     0.180 A 
ATOM     13  HN          1     -22.180 -10.096  -1.112  1.00  0.00     0.166 HD
HETATM   14  N           1     -22.649 -11.828  -3.765  0.00  0.00    -0.360 N 
HETATM   15  C           1     -21.832 -10.846  -4.250  0.00  0.00     0.114 A 
HETATM   16  H           1     -23.054 -12.628  -4.312  0.00  0.00     0.166 HD
ENDBRANCH   9  10
ENDBRANCH   5   9
ENDBRANCH   1   5
BRANCH   2  17
HETATM   17  C           1     -21.059  -5.038  -6.203  0.00  0.00     0.278 C 
BRANCH  17  18
HETATM   18  C           1     -20.723  -5.774  -7.492  0.00  0.00     0.081 C 
BRANCH  18  19
HETATM   19  C           1     -21.135  -4.941  -8.666  0.00  0.00    -0.056 A 
HETATM   20  C           1     -20.209  -4.634  -9.663  0.00  0.00     0.007 A 
HETATM   21  C           1     -20.594  -3.858 -10.757  0.00  0.00     0.001 A 
HETATM   22  C           1     -21.904  -3.390 -10.854  0.00  0.00     0.000 A 
HETATM   23  C           1     -22.830  -3.698  -9.858  0.00  0.00     0.001 A 
HETATM   24  C           1     -22.446  -4.474  -8.764  0.00  0.00     0.007 A 
ENDBRANCH  18  19
ENDBRANCH  17  18
BRANCH  17  25
HETATM   25  N           1     -19.800  -4.493  -5.595  0.00  0.00    -0.066 N 
HETATM   26  H           1     -19.431  -3.722  -6.195  0.00  0.00     0.275 HD
HETATM   27  H           1     -20.006  -4.123  -4.640  0.00  0.00     0.275 HD
HETATM   28  H           1     -19.090  -5.255  -5.527  0.00  0.00     0.275 HD
ENDBRANCH  17  25
ENDBRANCH   2  17
TORSDOF 8
ENDMDL
MODEL 5
REMARK VINA RESULT:      -6.9     15.694     17.051
REMARK  8 active torsions:
REMARK  status: ('A' for Active; 'I' for Inactive)
REMARK    1  A    between atoms: N_3  and  C_13 
REMARK       I    between atoms: N_3  and  C_4 
REMARK    2  A    between atoms: C_4  and  C_5 
REMARK    3  A    between atoms: C_5  and  C_7 
REMARK    4  A    between atoms: C_5  and  N_25 
REMARK    5  A    between atoms: C_7  and  C_22 
REMARK    6  A    between atoms: C_13  and  C_16 
REMARK    7  A    between atoms: C_13  and  C_21 
REMARK    8  A    between atoms: C_15  and  C_21 
ROOT
HETATM    1  N           1     -20.631  -8.368  -3.672  0.00  0.00    -0.344 N 
HETATM    2  C           1     -20.701  -7.675  -4.851  0.00  0.00     0.249 C 
HETATM    3  H           1     -21.101  -8.013  -2.849  0.00  0.00     0.163 HD
HETATM    4  O           1     -20.139  -8.099  -5.834  0.00  0.00    -0.271 OA
ENDROOT
BRANCH   1   5
HETATM    5  C           1     -19.883  -9.608  -3.602  0.00  0.00     0.191 C 
BRANCH   5   6
HETATM    6  C           1     -20.636 -10.602  -2.752  0.00  0.00     0.197 C 
HETATM    7  O           1     -21.678 -10.254  -2.159  0.00  0.00    -0.646 OA
HETATM    8  O           1     -20.215 -11.774  -2.641  0.00  0.00    -0.646 OA
ENDBRANCH   5   6
BRANCH   5   9
HETATM    9  C           1     -18.518  -9.343  -2.983  0.00  0.00     0.094 C 
BRANCH   9  10
HETATM   10  C           1     -17.448  -9.639  -3.987  0.00  0.00     0.028 A 
HETATM   11  N           1     -17.661  -9.785  -5.334  0.00  0.00    -0.354 N 
HETATM   12  C           1     -16.478 -10.034  -5.847  0.00  0.00     0.180 A 
ATOM     13  HN          1     -18.550  -9.714  -5.831  1.00  0.00     0.166 HD
HETATM   14  N           1     -15.510 -10.055  -4.884  0.00  0.00    -0.360 N 
HETATM   15  C           1     -16.117  -9.804  -3.685  0.00  0.00     0.114 A 
HETATM   16  H           1     -14.486 -10.232  -5.038  0.00  0.00     0.166 HD
ENDBRANCH   9  10
ENDBRANCH   5   9
ENDBRANCH   1   5
BRANCH   2  17
HETATM   17  C           1     -21.479  -6.384  -4.924  0.00  0.00     0.278 C 
BRANCH  17  18
HETATM   18  C           1     -20.547  -5.252  -5.332  0.00  0.00     0.081 C 
BRANCH  18  19
HETATM   19  C           1     -20.823  -4.864  -6.752  0.00  0.00    -0.056 A 
HETATM   20  C           1     -22.115  -4.506  -7.137  0.00  0.00     0.007 A 
HETATM   21  C           1     -22.372  -4.143  -8.461  0.00  0.00     0.001 A 
HETATM   22  C           1     -21.337  -4.139  -9.396  0.00  0.00     0.000 A 
HETATM   23  C           1     -20.046  -4.496  -9.009  0.00  0.00     0.001 A 
HETATM   24  C           1     -19.788  -4.858  -7.687  0.00  0.00     0.007 A 
ENDBRANCH  18  19
ENDBRANCH  17  18
BRANCH  17  25
HETATM   25  N           1     -22.074  -6.084  -3.580  0.00  0.00    -0.066 N 
HETATM   26  H           1     -21.855  -6.864  -2.921  0.00  0.00     0.275 HD
HETATM   27  H           1     -21.670  -5.194  -3.212  0.00  0.00     0.275 HD
HETATM   28  H           1     -23.109  -5.983  -3.673  0.00  0.00     0.275 HD
ENDBRANCH  17  25
ENDBRANCH   2  17
TORSDOF 8
ENDMDL
MODEL 6
REMARK VINA RESULT:      -6.8     15.418     16.575
REMARK  8 active torsions:
REMARK  status: ('A' for Active; 'I' for Inactive)
REMARK    1  A    between atoms: N_3  and  C_13 
REMARK       I    between atoms: N_3  and  C_4 
REMARK    2  A    between atoms: C_4  and  C_5 
REMARK    3  A    between atoms: C_5  and  C_7 
REMARK    4  A    between atoms: C_5  and  N_25 
REMARK    5  A    between atoms: C_7  and  C_22 
REMARK    6  A    between atoms: C_13  and  C_16 
REMARK    7  A    between atoms: C_13  and  C_21 
REMARK    8  A    between atoms: C_15  and  C_21 
ROOT
HETATM    1  N           1     -20.446  -7.909  -4.886  0.00  0.00    -0.344 N 
HETATM    2  C           1     -20.321  -7.060  -5.954  0.00  0.00     0.249 C 
HETATM    3  H           1     -21.281  -7.884  -4.316  0.00  0.00     0.163 HD
HETATM    4  O           1     -19.323  -7.090  -6.634  0.00  0.00    -0.271 OA
ENDROOT
BRANCH   1   5
HETATM    5  C           1     -19.381  -8.842  -4.573  0.00  0.00     0.191 C 
BRANCH   5   6
HETATM    6  C           1     -19.639 -10.154  -5.274  0.00  0.00     0.197 C 
HETATM    7  O           1     -18.909 -10.508  -6.224  0.00  0.00    -0.646 OA
HETATM    8  O           1     -20.585 -10.883  -4.906  0.00  0.00    -0.646 OA
ENDBRANCH   5   6
BRANCH   5   9
HETATM    9  C           1     -19.334  -9.073  -3.069  0.00  0.00     0.094 C 
BRANCH   9  10
HETATM   10  C           1     -18.068  -9.786  -2.712  0.00  0.00     0.028 A 
HETATM   11  N           1     -16.810  -9.364  -3.063  0.00  0.00    -0.354 N 
HETATM   12  C           1     -15.992 -10.261  -2.561  0.00  0.00     0.180 A 
ATOM     13  HN          1     -16.564  -8.532  -3.598  1.00  0.00     0.166 HD
HETATM   14  N           1     -16.672 -11.244  -1.900  0.00  0.00    -0.360 N 
HETATM   15  C           1     -18.005 -10.953  -1.988  0.00  0.00     0.114 A 
HETATM   16  H           1     -16.247 -12.072  -1.413  0.00  0.00     0.166 HD
ENDBRANCH   9  10
ENDBRANCH   5   9
ENDBRANCH   1   5
BRANCH   2  17
HETATM   17  C           1     -21.428  -6.089  -6.279  0.00  0.00     0.278 C 
BRANCH  17  18
HETATM   18  C           1     -20.827  -4.747  -6.673  0.00  0.00     0.081 C 
BRANCH  18  19
HETATM   19  C           1     -21.128  -4.467  -8.113  0.00  0.00    -0.056 A 
HETATM   20  C           1     -22.403  -4.046  -8.490  0.00  0.00     0.007 A 
HETATM   21  C           1     -22.684  -3.785  -9.832  0.00  0.00     0.001 A 
HETATM   22  C           1     -21.689  -3.945 -10.796  0.00  0.00     0.000 A 
HETATM   23  C           1     -20.414  -4.365 -10.419  0.00  0.00     0.001 A 
HETATM   24  C           1     -20.133  -4.626  -9.077  0.00  0.00     0.007 A 
ENDBRANCH  18  19
ENDBRANCH  17  18
BRANCH  17  25
HETATM   25  N           1     -22.306  -5.910  -5.076  0.00  0.00    -0.066 N 
HETATM   26  H           1     -23.224  -6.379  -5.243  0.00  0.00     0.275 HD
HETATM   27  H           1     -21.844  -6.337  -4.242  0.00  0.00     0.275 HD
HETATM   28  H           1     -22.458  -4.891  -4.905  0.00  0.00     0.275 HD
ENDBRANCH  17  25
ENDBRANCH   2  17
TORSDOF 8
ENDMDL
MODEL 7
REMARK VINA RESULT:      -6.7     14.533     16.415
REMARK  8 active torsions:
REMARK  status: ('A' for Active; 'I' for Inactive)
REMARK    1  A    between atoms: N_3  and  C_13 
REMARK       I    between atoms: N_3  and  C_4 
REMARK    2  A    between atoms: C_4  and  C_5 
REMARK    3  A    between atoms: C_5  and  C_7 
REMARK    4  A    between atoms: C_5  and  N_25 
REMARK    5  A    between atoms: C_7  and  C_22 
REMARK    6  A    between atoms: C_13  and  C_16 
REMARK    7  A    between atoms: C_13  and  C_21 
REMARK    8  A    between atoms: C_15  and  C_21 
ROOT
HETATM    1  N           1     -21.012  -5.508  -5.019  0.00  0.00    -0.344 N 
HETATM    2  C           1     -21.489  -6.648  -4.427  0.00  0.00     0.249 C 
HETATM    3  H           1     -20.596  -4.780  -4.452  0.00  0.00     0.163 HD
HETATM    4  O           1     -21.984  -7.517  -5.103  0.00  0.00    -0.271 OA
ENDROOT
BRANCH   1   5
HETATM    5  C           1     -21.103  -5.345  -6.457  0.00  0.00     0.191 C 
BRANCH   5   6
HETATM    6  C           1     -19.752  -5.601  -7.079  0.00  0.00     0.197 C 
HETATM    7  O           1     -19.353  -6.773  -7.244  0.00  0.00    -0.646 OA
HETATM    8  O           1     -19.033  -4.640  -7.427  0.00  0.00    -0.646 OA
ENDBRANCH   5   6
BRANCH   5   9
HETATM    9  C           1     -21.549  -3.926  -6.779  0.00  0.00     0.094 C 
BRANCH   9  10
HETATM   10  C           1     -22.397  -3.936  -8.012  0.00  0.00     0.028 A 
HETATM   11  N           1     -23.765  -4.047  -8.016  0.00  0.00    -0.354 N 
HETATM   12  C           1     -24.110  -4.016  -9.283  0.00  0.00     0.180 A 
ATOM     13  HN          1     -24.381  -4.134  -7.208  1.00  0.00     0.166 HD
HETATM   14  N           1     -23.020  -3.889 -10.097  0.00  0.00    -0.360 N 
HETATM   15  C           1     -21.914  -3.837  -9.295  0.00  0.00     0.114 A 
HETATM   16  H           1     -23.031  -3.841 -11.146  0.00  0.00     0.166 HD
ENDBRANCH   9  10
ENDBRANCH   5   9
ENDBRANCH   1   5
BRANCH   2  17
HETATM   17  C           1     -21.394  -6.818  -2.931  0.00  0.00     0.278 C 
BRANCH  17  18
HETATM   18  C           1     -21.778  -8.242  -2.556  0.00  0.00     0.081 C 
BRANCH  18  19
HETATM   19  C           1     -20.539  -9.067  -2.390  0.00  0.00    -0.056 A 
HETATM   20  C           1     -20.558 -10.197  -1.574  0.00  0.00     0.007 A 
HETATM   21  C           1     -19.404 -10.966  -1.420  0.00  0.00     0.001 A 
HETATM   22  C           1     -18.231 -10.604  -2.083  0.00  0.00     0.000 A 
HETATM   23  C           1     -18.213  -9.475  -2.900  0.00  0.00     0.001 A 
HETATM   24  C           1     -19.367  -8.705  -3.054  0.00  0.00     0.007 A 
ENDBRANCH  18  19
ENDBRANCH  17  18
BRANCH  17  25
HETATM   25  N           1     -22.327  -5.854  -2.259  0.00  0.00    -0.066 N 
HETATM   26  H           1     -22.877  -6.357  -1.526  0.00  0.00     0.275 HD
HETATM   27  H           1     -21.775  -5.087  -1.814  0.00  0.00     0.275 HD
HETATM   28  H           1     -22.978  -5.449  -2.968  0.00  0.00     0.275 HD
ENDBRANCH  17  25
ENDBRANCH   2  17
TORSDOF 8
ENDMDL
MODEL 8
REMARK VINA RESULT:      -6.6     15.322     16.783
REMARK  8 active torsions:
REMARK  status: ('A' for Active; 'I' for Inactive)
REMARK    1  A    between atoms: N_3  and  C_13 
REMARK       I    between atoms: N_3  and  C_4 
REMARK    2  A    between atoms: C_4  and  C_5 
REMARK    3  A    between atoms: C_5  and  C_7 
REMARK    4  A    between atoms: C_5  and  N_25 
REMARK    5  A    between atoms: C_7  and  C_22 
REMARK    6  A    between atoms: C_13  and  C_16 
REMARK    7  A    between atoms: C_13  and  C_21 
REMARK    8  A    between atoms: C_15  and  C_21 
ROOT
HETATM    1  N           1     -21.503  -7.995  -2.365  0.00  0.00    -0.344 N 
HETATM    2  C           1     -21.587  -8.581  -3.600  0.00  0.00     0.249 C 
HETATM    3  H           1     -21.146  -7.052  -2.276  0.00  0.00     0.163 HD
HETATM    4  O           1     -22.013  -9.706  -3.706  0.00  0.00    -0.271 OA
ENDROOT
BRANCH   1   5
HETATM    5  C           1     -21.925  -8.725  -1.186  0.00  0.00     0.191 C 
BRANCH   5   6
HETATM    6  C           1     -22.716  -7.811  -0.283  0.00  0.00     0.197 C 
HETATM    7  O           1     -23.365  -8.285   0.673  0.00  0.00    -0.646 OA
HETATM    8  O           1     -22.724  -6.579  -0.494  0.00  0.00    -0.646 OA
ENDBRANCH   5   6
BRANCH   5   9
HETATM    9  C           1     -20.700  -9.237  -0.440  0.00  0.00     0.094 C 
BRANCH   9  10
HETATM   10  C           1     -20.639 -10.729  -0.543  0.00  0.00     0.028 A 
HETATM   11  N           1     -21.505 -11.495  -1.280  0.00  0.00    -0.354 N 
HETATM   12  C           1     -21.109 -12.735  -1.100  0.00  0.00     0.180 A 
ATOM     13  HN          1     -22.289 -11.172  -1.846  1.00  0.00     0.166 HD
HETATM   14  N           1     -20.020 -12.798  -0.278  0.00  0.00    -0.360 N 
HETATM   15  C           1     -19.707 -11.519   0.089  0.00  0.00     0.114 A 
HETATM   16  H           1     -19.517 -13.670   0.019  0.00  0.00     0.166 HD
ENDBRANCH   9  10
ENDBRANCH   5   9
ENDBRANCH   1   5
BRANCH   2  17
HETATM   17  C           1     -21.148  -7.821  -4.827  0.00  0.00     0.278 C 
BRANCH  17  18
HETATM   18  C           1     -22.035  -6.598  -5.012  0.00  0.00     0.081 C 
BRANCH  18  19
HETATM   19  C           1     -21.402  -5.665  -5.998  0.00  0.00    -0.056 A 
HETATM   20  C           1     -20.016  -5.514  -6.023  0.00  0.00     0.007 A 
HETATM   21  C           1     -19.425  -4.645  -6.942  0.00  0.00     0.001 A 
HETATM   22  C           1     -20.222  -3.929  -7.835  0.00  0.00     0.000 A 
HETATM   23  C           1     -21.607  -4.082  -7.810  0.00  0.00     0.001 A 
HETATM   24  C           1     -22.198  -4.950  -6.892  0.00  0.00     0.007 A 
ENDBRANCH  18  19
ENDBRANCH  17  18
BRANCH  17  25
HETATM   25  N           1     -21.262  -8.708  -6.032  0.00  0.00    -0.066 N 
HETATM   26  H           1     -20.306  -8.977  -6.357  0.00  0.00     0.275 HD
HETATM   27  H           1     -21.799  -9.569  -5.781  0.00  0.00     0.275 HD
HETATM   28  H           1     -21.761  -8.198  -6.794  0.00  0.00     0.275 HD
ENDBRANCH  17  25
ENDBRANCH   2  17
TORSDOF 8
ENDMDL
MODEL 9
REMARK VINA RESULT:      -6.5     17.600     19.493
REMARK  8 active torsions:
REMARK  status: ('A' for Active; 'I' for Inactive)
REMARK    1  A    between atoms: N_3  and  C_13 
REMARK       I    between atoms: N_3  and  C_4 
REMARK    2  A    between atoms: C_4  and  C_5 
REMARK    3  A    between atoms: C_5  and  C_7 
REMARK    4  A    between atoms: C_5  and  N_25 
REMARK    5  A    between atoms: C_7  and  C_22 
REMARK    6  A    between atoms: C_13  and  C_16 
REMARK    7  A    between atoms: C_13  and  C_21 
REMARK    8  A    between atoms: C_15  and  C_21 
ROOT
HETATM    1  N           1     -18.289  -9.275  -3.671  0.00  0.00    -0.344 N 
HETATM    2  C           1     -18.977  -9.048  -4.833  0.00  0.00     0.249 C 
HETATM    3  H           1     -18.380  -8.631  -2.895  0.00  0.00     0.163 HD
HETATM    4  O           1     -18.868  -9.816  -5.759  0.00  0.00    -0.271 OA
ENDROOT
BRANCH   1   5
HETATM    5  C           1     -17.428 -10.436  -3.553  0.00  0.00     0.191 C 
BRANCH   5   6
HETATM    6  C           1     -17.491 -10.967  -2.141  0.00  0.00     0.197 C 
HETATM    7  O           1     -16.445 -11.331  -1.564  0.00  0.00    -0.646 OA
HETATM    8  O           1     -18.590 -11.044  -1.551  0.00  0.00    -0.646 OA
ENDBRANCH   5   6
BRANCH   5   9
HETATM    9  C           1     -15.995 -10.041  -3.882  0.00  0.00     0.094 C 
BRANCH   9  10
HETATM   10  C           1     -15.462 -10.941  -4.952  0.00  0.00     0.028 A 
HETATM   11  N           1     -15.936 -10.990  -6.238  0.00  0.00    -0.354 N 
HETATM   12  C           1     -15.205 -11.898  -6.842  0.00  0.00     0.180 A 
ATOM     13  HN          1     -16.695 -10.437  -6.639  1.00  0.00     0.166 HD
HETATM   14  N           1     -14.277 -12.437  -5.998  0.00  0.00    -0.360 N 
HETATM   15  C           1     -14.430 -11.834  -4.781  0.00  0.00     0.114 A 
HETATM   16  H           1     -13.576 -13.180  -6.239  0.00  0.00     0.166 HD
ENDBRANCH   9  10
ENDBRANCH   5   9
ENDBRANCH   1   5
BRANCH   2  17
HETATM   17  C           1     -19.873  -7.840  -4.957  0.00  0.00     0.278 C 
BRANCH  17  18
HETATM   18  C           1     -21.309  -8.238  -4.646  0.00  0.00     0.081 C 
BRANCH  18  19
HETATM   19  C           1     -21.632  -7.879  -3.229  0.00  0.00    -0.056 A 
HETATM   20  C           1     -21.677  -8.873  -2.251  0.00  0.00     0.007 A 
HETATM   21  C           1     -21.977  -8.538  -0.930  0.00  0.00     0.001 A 
HETATM   22  C           1     -22.232  -7.210  -0.588  0.00  0.00     0.000 A 
HETATM   23  C           1     -22.186  -6.217  -1.565  0.00  0.00     0.001 A 
HETATM   24  C           1     -21.886  -6.551  -2.886  0.00  0.00     0.007 A 
ENDBRANCH  18  19
ENDBRANCH  17  18
BRANCH  17  25
HETATM   25  N           1     -19.794  -7.301  -6.355  0.00  0.00    -0.066 N 
HETATM   26  H           1     -18.842  -7.483  -6.744  0.00  0.00     0.275 HD
HETATM   27  H           1     -20.510  -7.774  -6.951  0.00  0.00     0.275 HD
HETATM   28  H           1     -19.977  -6.273  -6.341  0.00  0.00     0.275 HD
ENDBRANCH  17  25
ENDBRANCH   2  17
TORSDOF 8
ENDMDL
