MODEL 1
REMARK VINA RESULT:      -7.8      0.000      0.000
REMARK  14 active torsions:
REMARK  status: ('A' for Active; 'I' for Inactive)
REMARK    1  A    between atoms: N_5  and  C_18 
REMARK    2  A    between atoms: O_10  and  P_11 
REMARK    3  A    between atoms: P_11  and  O_12 
REMARK    4  A    between atoms: O_12  and  C_13 
REMARK    5  A    between atoms: C_16  and  C_17 
REMARK    6  A    between atoms: C_17  and  C_18 
REMARK    7  A    between atoms: C_18  and  C_19 
REMARK       I    between atoms: C_19  and  N_20 
REMARK    8  A    between atoms: N_20  and  C_24 
REMARK    9  A    between atoms: C_23  and  C_24 
REMARK   10  A    between atoms: C_24  and  C_25 
REMARK   11  A    between atoms: C_25  and  C_26 
REMARK   12  A    between atoms: C_26  and  C_27 
REMARK   13  A    between atoms: C_27  and  C_28 
REMARK   14  A    between atoms: C_28  and  N_29 
ROOT
HETATM    1  C           1     -33.097  -4.683 -16.889  0.00  0.00     0.278 C 
ENDROOT
BRANCH   1   2
HETATM    2  N           1     -32.127  -3.538 -16.903  0.00  0.00    -0.066 N 
HETATM    3  H           1     -32.331  -2.899 -16.103  0.00  0.00     0.275 HD
HETATM    4  H           1     -31.154  -3.906 -16.816  0.00  0.00     0.275 HD
HETATM    5  H           1     -32.223  -3.013 -17.801  0.00  0.00     0.275 HD
ENDBRANCH   1   2
BRANCH   1   6
HETATM    6  C           1     -32.335  -5.995 -17.010  0.00  0.00     0.081 C 
BRANCH   6   7
HETATM    7  C           1     -30.865  -5.734 -16.891  0.00  0.00    -0.056 A 
HETATM    8  C           1     -30.302  -5.480 -15.640  0.00  0.00     0.010 A 
HETATM    9  C           1     -28.934  -5.236 -15.529  0.00  0.00     0.038 A 
HETATM   10  C           1     -28.128  -5.247 -16.667  0.00  0.00     0.081 A 
HETATM   11  C           1     -28.691  -5.500 -17.918  0.00  0.00     0.038 A 
HETATM   12  C           1     -30.061  -5.744 -18.029  0.00  0.00     0.010 A 
BRANCH  10  13
HETATM   13  O           1     -26.798  -5.010 -16.559  0.00  0.00    -0.247 OA
BRANCH  13  14
HETATM   14  P           1     -25.823  -6.270 -16.295  0.00  0.00     0.411 P 
HETATM   15  O           1     -25.325  -6.788 -17.590  0.00  0.00    -0.624 OA
HETATM   16  O           1     -26.574  -7.334 -15.593  0.00  0.00    -0.624 OA
BRANCH  14  17
HETATM   17  O           1     -24.573  -5.803 -15.385  0.00  0.00    -0.300 OA
HETATM   18  H           1     -24.942  -5.631 -14.535  0.00  0.00     0.223 HD
ENDBRANCH  14  17
ENDBRANCH  13  14
ENDBRANCH  10  13
ENDBRANCH   6   7
ENDBRANCH   1   6
BRANCH   1  19
HETATM   19  C           1     -33.873  -4.667 -15.595  0.00  0.00     0.249 C 
HETATM   20  O           1     -34.962  -5.189 -15.537  0.00  0.00    -0.271 OA
HETATM   21  N           1     -33.344  -4.064 -14.486  0.00  0.00    -0.345 N 
HETATM   22  H           1     -32.432  -3.627 -14.534  0.00  0.00     0.163 HD
BRANCH  21  23
HETATM   23  C           1     -34.089  -4.050 -13.243  0.00  0.00     0.185 C 
BRANCH  23  24
HETATM   24  C           1     -34.848  -2.751 -13.126  0.00  0.00     0.196 C 
HETATM   25  O           1     -34.794  -1.910 -14.050  0.00  0.00    -0.646 OA
HETATM   26  O           1     -35.531  -2.515 -12.106  0.00  0.00    -0.646 OA
ENDBRANCH  23  24
BRANCH  23  27
HETATM   27  C           1     -33.126  -4.181 -12.071  0.00  0.00     0.036 C 
BRANCH  27  28
HETATM   28  C           1     -33.327  -5.530 -11.396  0.00  0.00     0.004 C 
BRANCH  28  29
HETATM   29  C           1     -34.497  -5.443 -10.423  0.00  0.00     0.027 C 
BRANCH  29  30
HETATM   30  C           1     -34.809  -6.832  -9.879  0.00  0.00     0.229 C 
BRANCH  30  31
HETATM   31  N           1     -34.761  -7.829 -10.998  0.00  0.00    -0.079 N 
HETATM   32  H           1     -35.506  -7.606 -11.696  0.00  0.00     0.274 HD
HETATM   33  H           1     -34.917  -8.789 -10.617  0.00  0.00     0.274 HD
HETATM   34  H           1     -33.826  -7.786 -11.463  0.00  0.00     0.274 HD
ENDBRANCH  30  31
ENDBRANCH  29  30
ENDBRANCH  28  29
ENDBRANCH  27  28
ENDBRANCH  23  27
ENDBRANCH  21  23
ENDBRANCH   1  19
TORSDOF 14
ENDMDL
MODEL 2
REMARK VINA RESULT:      -7.4     12.500     14.541
REMARK  14 active torsions:
REMARK  status: ('A' for Active; 'I' for Inactive)
REMARK    1  A    between atoms: N_5  and  C_18 
REMARK    2  A    between atoms: O_10  and  P_11 
REMARK    3  A    between atoms: P_11  and  O_12 
REMARK    4  A    between atoms: O_12  and  C_13 
REMARK    5  A    between atoms: C_16  and  C_17 
REMARK    6  A    between atoms: C_17  and  C_18 
REMARK    7  A    between atoms: C_18  and  C_19 
REMARK       I    between atoms: C_19  and  N_20 
REMARK    8  A    between atoms: N_20  and  C_24 
REMARK    9  A    between atoms: C_23  and  C_24 
REMARK   10  A    between atoms: C_24  and  C_25 
REMARK   11  A    between atoms: C_25  and  C_26 
REMARK   12  A    between atoms: C_26  and  C_27 
REMARK   13  A    between atoms: C_27  and  C_28 
REMARK   14  A    between atoms: C_28  and  N_29 
ROOT
HETATM    1  C           1     -21.434  -6.523  -4.888  0.00  0.00     0.278 C 
ENDROOT
BRANCH   1   2
HETATM    2  N           1     -21.637  -5.931  -3.524  0.00  0.00    -0.066 N 
HETATM    3  H           1     -20.710  -5.680  -3.112  0.00  0.00     0.275 HD
HETATM    4  H           1     -22.228  -5.074  -3.601  0.00  0.00     0.275 HD
HETATM    5  H           1     -22.112  -6.630  -2.909  0.00  0.00     0.275 HD
ENDBRANCH   1   2
BRANCH   1   6
HETATM    6  C           1     -20.345  -5.751  -5.619  0.00  0.00     0.081 C 
BRANCH   6   7
HETATM    7  C           1     -20.909  -5.161  -6.875  0.00  0.00    -0.056 A 
HETATM    8  C           1     -20.147  -5.151  -8.044  0.00  0.00     0.010 A 
HETATM    9  C           1     -20.672  -4.601  -9.213  0.00  0.00     0.038 A 
HETATM   10  C           1     -21.958  -4.061  -9.214  0.00  0.00     0.081 A 
HETATM   11  C           1     -22.720  -4.071  -8.046  0.00  0.00     0.038 A 
HETATM   12  C           1     -22.194  -4.621  -6.875  0.00  0.00     0.010 A 
BRANCH  10  13
HETATM   13  O           1     -22.468  -3.527 -10.350  0.00  0.00    -0.247 OA
BRANCH  13  14
HETATM   14  P           1     -23.736  -4.261 -11.030  0.00  0.00     0.411 P 
HETATM   15  O           1     -24.910  -3.359 -10.984  0.00  0.00    -0.624 OA
HETATM   16  O           1     -24.040  -5.505 -10.289  0.00  0.00    -0.624 OA
BRANCH  14  17
HETATM   17  O           1     -23.392  -4.618 -12.566  0.00  0.00    -0.300 OA
HETATM   18  H           1     -22.781  -3.956 -12.840  0.00  0.00     0.223 HD
ENDBRANCH  14  17
ENDBRANCH  13  14
ENDBRANCH  10  13
ENDBRANCH   6   7
ENDBRANCH   1   6
BRANCH   1  19
HETATM   19  C           1     -21.023  -7.969  -4.752  0.00  0.00     0.249 C 
HETATM   20  O           1     -20.388  -8.501  -5.632  0.00  0.00    -0.271 OA
HETATM   21  N           1     -21.369  -8.677  -3.633  0.00  0.00    -0.345 N 
HETATM   22  H           1     -21.901  -8.231  -2.896  0.00  0.00     0.163 HD
BRANCH  21  23
HETATM   23  C           1     -20.974 -10.065  -3.502  0.00  0.00     0.185 C 
BRANCH  23  24
HETATM   24  C           1     -22.126 -10.956  -3.898  0.00  0.00     0.196 C 
HETATM   25  O           1     -23.138 -11.030  -3.169  0.00  0.00    -0.646 OA
HETATM   26  O           1     -22.069 -11.619  -4.957  0.00  0.00    -0.646 OA
ENDBRANCH  23  24
BRANCH  23  27
HETATM   27  C           1     -20.587 -10.351  -2.058  0.00  0.00     0.036 C 
BRANCH  27  28
HETATM   28  C           1     -20.933  -9.148  -1.191  0.00  0.00     0.004 C 
BRANCH  28  29
HETATM   29  C           1     -21.291  -9.619   0.213  0.00  0.00     0.027 C 
BRANCH  29  30
HETATM   30  C           1     -22.257 -10.793   0.124  0.00  0.00     0.229 C 
BRANCH  30  31
HETATM   31  N           1     -23.630 -10.286  -0.205  0.00  0.00    -0.079 N 
HETATM   32  H           1     -24.266 -11.096  -0.387  0.00  0.00     0.274 HD
HETATM   33  H           1     -23.583  -9.682  -1.056  0.00  0.00     0.274 HD
HETATM   34  H           1     -23.998  -9.729   0.598  0.00  0.00     0.274 HD
ENDBRANCH  30  31
ENDBRANCH  29  30
ENDBRANCH  28  29
ENDBRANCH  27  28
ENDBRANCH  23  27
ENDBRANCH  21  23
ENDBRANCH   1  19
TORSDOF 14
ENDMDL
MODEL 3
REMARK VINA RESULT:      -7.3     12.502     15.000
REMARK  14 active torsions:
REMARK  status: ('A' for Active; 'I' for Inactive)
REMARK    1  A    between atoms: N_5  and  C_18 
REMARK    2  A    between atoms: O_10  and  P_11 
REMARK    3  A    between atoms: P_11  and  O_12 
REMARK    4  A    between atoms: O_12  and  C_13 
REMARK    5  A    between atoms: C_16  and  C_17 
REMARK    6  A    between atoms: C_17  and  C_18 
REMARK    7  A    between atoms: C_18  and  C_19 
REMARK       I    between atoms: C_19  and  N_20 
REMARK    8  A    between atoms: N_20  and  C_24 
REMARK    9  A    between atoms: C_23  and  C_24 
REMARK   10  A    between atoms: C_24  and  C_25 
REMARK   11  A    between atoms: C_25  and  C_26 
REMARK   12  A    between atoms: C_26  and  C_27 
REMARK   13  A    between atoms: C_27  and  C_28 
REMARK   14  A    between atoms: C_28  and  N_29 
ROOT
HETATM    1  C           1     -21.569  -6.719  -4.965  0.00  0.00     0.278 C 
ENDROOT
BRANCH   1   2
HETATM    2  N           1     -22.121  -6.194  -3.673  0.00  0.00    -0.066 N 
HETATM    3  H           1     -21.494  -6.476  -2.886  0.00  0.00     0.275 HD
HETATM    4  H           1     -22.178  -5.153  -3.717  0.00  0.00     0.275 HD
HETATM    5  H           1     -23.075  -6.591  -3.517  0.00  0.00     0.275 HD
ENDBRANCH   1   2
BRANCH   1   6
HETATM    6  C           1     -20.542  -5.739  -5.514  0.00  0.00     0.081 C 
BRANCH   6   7
HETATM    7  C           1     -21.027  -5.185  -6.818  0.00  0.00    -0.056 A 
HETATM    8  C           1     -20.221  -5.265  -7.954  0.00  0.00     0.010 A 
HETATM    9  C           1     -20.673  -4.749  -9.168  0.00  0.00     0.038 A 
HETATM   10  C           1     -21.932  -4.153  -9.247  0.00  0.00     0.081 A 
HETATM   11  C           1     -22.738  -4.072  -8.112  0.00  0.00     0.038 A 
HETATM   12  C           1     -22.285  -4.589  -6.897  0.00  0.00     0.010 A 
BRANCH  10  13
HETATM   13  O           1     -22.371  -3.652 -10.427  0.00  0.00    -0.247 OA
BRANCH  13  14
HETATM   14  P           1     -23.701  -4.298 -11.077  0.00  0.00     0.411 P 
HETATM   15  O           1     -24.817  -3.330 -10.982  0.00  0.00    -0.624 OA
HETATM   16  O           1     -24.055  -5.534 -10.345  0.00  0.00    -0.624 OA
BRANCH  14  17
HETATM   17  O           1     -23.425  -4.651 -12.628  0.00  0.00    -0.300 OA
HETATM   18  H           1     -23.352  -5.591 -12.655  0.00  0.00     0.223 HD
ENDBRANCH  14  17
ENDBRANCH  13  14
ENDBRANCH  10  13
ENDBRANCH   6   7
ENDBRANCH   1   6
BRANCH   1  19
HETATM   19  C           1     -20.911  -8.056  -4.724  0.00  0.00     0.249 C 
HETATM   20  O           1     -21.590  -9.039  -4.539  0.00  0.00    -0.271 OA
HETATM   21  N           1     -19.546  -8.156  -4.714  0.00  0.00    -0.345 N 
HETATM   22  H           1     -18.977  -7.334  -4.869  0.00  0.00     0.163 HD
BRANCH  21  23
HETATM   23  C           1     -18.915  -9.440  -4.483  0.00  0.00     0.185 C 
BRANCH  23  24
HETATM   24  C           1     -18.374  -9.488  -3.075  0.00  0.00     0.196 C 
HETATM   25  O           1     -17.151  -9.326  -2.869  0.00  0.00    -0.646 OA
HETATM   26  O           1     -19.148  -9.689  -2.114  0.00  0.00    -0.646 OA
ENDBRANCH  23  24
BRANCH  23  27
HETATM   27  C           1     -17.772  -9.631  -5.471  0.00  0.00     0.036 C 
BRANCH  27  28
HETATM   28  C           1     -18.078 -10.813  -6.380  0.00  0.00     0.004 C 
BRANCH  28  29
HETATM   29  C           1     -19.097 -11.723  -5.706  0.00  0.00     0.027 C 
BRANCH  29  30
HETATM   30  C           1     -20.159 -12.134  -6.719  0.00  0.00     0.229 C 
BRANCH  30  31
HETATM   31  N           1     -21.317 -11.185  -6.641  0.00  0.00    -0.079 N 
HETATM   32  H           1     -22.131 -11.665  -6.193  0.00  0.00     0.274 HD
HETATM   33  H           1     -21.581 -10.876  -7.603  0.00  0.00     0.274 HD
HETATM   34  H           1     -21.048 -10.352  -6.070  0.00  0.00     0.274 HD
ENDBRANCH  30  31
ENDBRANCH  29  30
ENDBRANCH  28  29
ENDBRANCH  27  28
ENDBRANCH  23  27
ENDBRANCH  21  23
ENDBRANCH   1  19
TORSDOF 14
ENDMDL
MODEL 4
REMARK VINA RESULT:      -7.2     12.948     15.080
REMARK  14 active torsions:
REMARK  status: ('A' for Active; 'I' for Inactive)
REMARK    1  A    between atoms: N_5  and  C_18 
REMARK    2  A    between atoms: O_10  and  P_11 
REMARK    3  A    between atoms: P_11  and  O_12 
REMARK    4  A    between atoms: O_12  and  C_13 
REMARK    5  A    between atoms: C_16  and  C_17 
REMARK    6  A    between atoms: C_17  and  C_18 
REMARK    7  A    between atoms: C_18  and  C_19 
REMARK       I    between atoms: C_19  and  N_20 
REMARK    8  A    between atoms: N_20  and  C_24 
REMARK    9  A    between atoms: C_23  and  C_24 
REMARK   10  A    between atoms: C_24  and  C_25 
REMARK   11  A    between atoms: C_25  and  C_26 
REMARK   12  A    between atoms: C_26  and  C_27 
REMARK   13  A    between atoms: C_27  and  C_28 
REMARK   14  A    between atoms: C_28  and  N_29 
ROOT
HETATM    1  C           1     -21.558  -6.509  -4.884  0.00  0.00     0.278 C 
ENDROOT
BRANCH   1   2
HETATM    2  N           1     -21.727  -5.965  -3.496  0.00  0.00    -0.066 N 
HETATM    3  H           1     -21.459  -4.955  -3.483  0.00  0.00     0.275 HD
HETATM    4  H           1     -22.724  -6.064  -3.203  0.00  0.00     0.275 HD
HETATM    5  H           1     -21.114  -6.496  -2.837  0.00  0.00     0.275 HD
ENDBRANCH   1   2
BRANCH   1   6
HETATM    6  C           1     -20.450  -5.746  -5.597  0.00  0.00     0.081 C 
BRANCH   6   7
HETATM    7  C           1     -20.981  -5.174  -6.875  0.00  0.00    -0.056 A 
HETATM    8  C           1     -20.206  -5.223  -8.034  0.00  0.00     0.010 A 
HETATM    9  C           1     -20.700  -4.690  -9.225  0.00  0.00     0.038 A 
HETATM   10  C           1     -21.968  -4.111  -9.257  0.00  0.00     0.081 A 
HETATM   11  C           1     -22.743  -4.062  -8.098  0.00  0.00     0.038 A 
HETATM   12  C           1     -22.249  -4.595  -6.907  0.00  0.00     0.010 A 
BRANCH  10  13
HETATM   13  O           1     -22.449  -3.593 -10.414  0.00  0.00    -0.247 OA
BRANCH  13  14
HETATM   14  P           1     -23.747  -4.290 -11.075  0.00  0.00     0.411 P 
HETATM   15  O           1     -24.896  -3.359 -11.003  0.00  0.00    -0.624 OA
HETATM   16  O           1     -24.069  -5.531 -10.335  0.00  0.00    -0.624 OA
BRANCH  14  17
HETATM   17  O           1     -23.440  -4.648 -12.619  0.00  0.00    -0.300 OA
HETATM   18  H           1     -23.144  -5.543 -12.607  0.00  0.00     0.223 HD
ENDBRANCH  14  17
ENDBRANCH  13  14
ENDBRANCH  10  13
ENDBRANCH   6   7
ENDBRANCH   1   6
BRANCH   1  19
HETATM   19  C           1     -21.194  -7.972  -4.808  0.00  0.00     0.249 C 
HETATM   20  O           1     -21.000  -8.599  -5.823  0.00  0.00    -0.271 OA
HETATM   21  N           1     -21.084  -8.589  -3.591  0.00  0.00    -0.345 N 
HETATM   22  H           1     -21.246  -8.064  -2.741  0.00  0.00     0.163 HD
BRANCH  21  23
HETATM   23  C           1     -20.734  -9.993  -3.519  0.00  0.00     0.185 C 
BRANCH  23  24
HETATM   24  C           1     -21.952 -10.796  -3.132  0.00  0.00     0.196 C 
HETATM   25  O           1     -22.242 -10.950  -1.926  0.00  0.00    -0.646 OA
HETATM   26  O           1     -22.672 -11.306  -4.018  0.00  0.00    -0.646 OA
ENDBRANCH  23  24
BRANCH  23  27
HETATM   27  C           1     -19.644 -10.194  -2.475  0.00  0.00     0.036 C 
BRANCH  27  28
HETATM   28  C           1     -18.445  -9.320  -2.817  0.00  0.00     0.004 C 
BRANCH  28  29
HETATM   29  C           1     -17.761  -9.862  -4.066  0.00  0.00     0.027 C 
BRANCH  29  30
HETATM   30  C           1     -16.641 -10.813  -3.660  0.00  0.00     0.229 C 
BRANCH  30  31
HETATM   31  N           1     -15.910 -10.247  -2.480  0.00  0.00    -0.079 N 
HETATM   32  H           1     -16.113  -9.224  -2.401  0.00  0.00     0.274 HD
HETATM   33  H           1     -14.882 -10.389  -2.605  0.00  0.00     0.274 HD
HETATM   34  H           1     -16.224 -10.731  -1.609  0.00  0.00     0.274 HD
ENDBRANCH  30  31
ENDBRANCH  29  30
ENDBRANCH  28  29
ENDBRANCH  27  28
ENDBRANCH  23  27
ENDBRANCH  21  23
ENDBRANCH   1  19
TORSDOF 14
ENDMDL
MODEL 5
REMARK VINA RESULT:      -7.0     12.474     14.321
REMARK  14 active torsions:
REMARK  status: ('A' for Active; 'I' for Inactive)
REMARK    1  A    between atoms: N_5  and  C_18 
REMARK    2  A    between atoms: O_10  and  P_11 
REMARK    3  A    between atoms: P_11  and  O_12 
REMARK    4  A    between atoms: O_12  and  C_13 
REMARK    5  A    between atoms: C_16  and  C_17 
REMARK    6  A    between atoms: C_17  and  C_18 
REMARK    7  A    between atoms: C_18  and  C_19 
REMARK       I    between atoms: C_19  and  N_20 
REMARK    8  A    between atoms: N_20  and  C_24 
REMARK    9  A    between atoms: C_23  and  C_24 
REMARK   10  A    between atoms: C_24  and  C_25 
REMARK   11  A    between atoms: C_25  and  C_26 
REMARK   12  A    between atoms: C_26  and  C_27 
REMARK   13  A    between atoms: C_27  and  C_28 
REMARK   14  A    between atoms: C_28  and  N_29 
ROOT
HETATM    1  C           1     -20.141  -6.335  -5.479  0.00  0.00     0.278 C 
ENDROOT
BRANCH   1   2
HETATM    2  N           1     -20.290  -6.950  -6.840  0.00  0.00    -0.066 N 
HETATM    3  H           1     -19.395  -7.415  -7.112  0.00  0.00     0.275 HD
HETATM    4  H           1     -21.058  -7.657  -6.820  0.00  0.00     0.275 HD
HETATM    5  H           1     -20.520  -6.204  -7.535  0.00  0.00     0.275 HD
ENDBRANCH   1   2
BRANCH   1   6
HETATM    6  C           1     -20.344  -4.830  -5.577  0.00  0.00     0.081 C 
BRANCH   6   7
HETATM    7  C           1     -20.892  -4.486  -6.928  0.00  0.00    -0.056 A 
HETATM    8  C           1     -20.031  -4.360  -8.018  0.00  0.00     0.010 A 
HETATM    9  C           1     -20.541  -4.040  -9.276  0.00  0.00     0.038 A 
HETATM   10  C           1     -21.912  -3.847  -9.444  0.00  0.00     0.081 A 
HETATM   11  C           1     -22.773  -3.973  -8.354  0.00  0.00     0.038 A 
HETATM   12  C           1     -22.262  -4.293  -7.095  0.00  0.00     0.010 A 
BRANCH  10  13
HETATM   13  O           1     -22.409  -3.536 -10.666  0.00  0.00    -0.247 OA
BRANCH  13  14
HETATM   14  P           1     -23.748  -4.294 -11.156  0.00  0.00     0.411 P 
HETATM   15  O           1     -24.909  -3.388 -11.008  0.00  0.00    -0.624 OA
HETATM   16  O           1     -23.957  -5.505 -10.331  0.00  0.00    -0.624 OA
BRANCH  14  17
HETATM   17  O           1     -23.591  -4.719 -12.705  0.00  0.00    -0.300 OA
HETATM   18  H           1     -24.405  -4.472 -13.110  0.00  0.00     0.223 HD
ENDBRANCH  14  17
ENDBRANCH  13  14
ENDBRANCH  10  13
ENDBRANCH   6   7
ENDBRANCH   1   6
BRANCH   1  19
HETATM   19  C           1     -21.173  -6.923  -4.547  0.00  0.00     0.249 C 
HETATM   20  O           1     -22.324  -7.019  -4.904  0.00  0.00    -0.271 OA
HETATM   21  N           1     -20.805  -7.348  -3.299  0.00  0.00    -0.345 N 
HETATM   22  H           1     -19.842  -7.267  -3.001  0.00  0.00     0.163 HD
BRANCH  21  23
HETATM   23  C           1     -21.796  -7.913  -2.405  0.00  0.00     0.185 C 
BRANCH  23  24
HETATM   24  C           1     -22.161  -6.896  -1.352  0.00  0.00     0.196 C 
HETATM   25  O           1     -22.432  -5.722  -1.683  0.00  0.00    -0.646 OA
HETATM   26  O           1     -22.193  -7.228  -0.146  0.00  0.00    -0.646 OA
ENDBRANCH  23  24
BRANCH  23  27
HETATM   27  C           1     -21.226  -9.155  -1.733  0.00  0.00     0.036 C 
BRANCH  27  28
HETATM   28  C           1     -20.067  -9.694  -2.560  0.00  0.00     0.004 C 
BRANCH  28  29
HETATM   29  C           1     -20.555 -10.848  -3.428  0.00  0.00     0.027 C 
BRANCH  29  30
HETATM   30  C           1     -19.876 -10.780  -4.790  0.00  0.00     0.229 C 
BRANCH  30  31
HETATM   31  N           1     -20.838 -10.228  -5.800  0.00  0.00    -0.079 N 
HETATM   32  H           1     -20.637 -10.645  -6.737  0.00  0.00     0.274 HD
HETATM   33  H           1     -20.733  -9.190  -5.851  0.00  0.00     0.274 HD
HETATM   34  H           1     -21.815 -10.466  -5.517  0.00  0.00     0.274 HD
ENDBRANCH  30  31
ENDBRANCH  29  30
ENDBRANCH  28  29
ENDBRANCH  27  28
ENDBRANCH  23  27
ENDBRANCH  21  23
ENDBRANCH   1  19
TORSDOF 14
ENDMDL
MODEL 6
REMARK VINA RESULT:      -6.9     12.786     14.776
REMARK  14 active torsions:
REMARK  status: ('A' for Active; 'I' for Inactive)
REMARK    1  A    between atoms: N_5  and  C_18 
REMARK    2  A    between atoms: O_10  and  P_11 
REMARK    3  A    between atoms: P_11  and  O_12 
REMARK    4  A    between atoms: O_12  and  C_13 
REMARK    5  A    between atoms: C_16  and  C_17 
REMARK    6  A    between atoms: C_17  and  C_18 
REMARK    7  A    between atoms: C_18  and  C_19 
REMARK       I    between atoms: C_19  and  N_20 
REMARK    8  A    between atoms: N_20  and  C_24 
REMARK    9  A    between atoms: C_23  and  C_24 
REMARK   10  A    between atoms: C_24  and  C_25 
REMARK   11  A    between atoms: C_25  and  C_26 
REMARK   12  A    between atoms: C_26  and  C_27 
REMARK   13  A    between atoms: C_27  and  C_28 
REMARK   14  A    between atoms: C_28  and  N_29 
ROOT
HETATM    1  C           1     -20.522  -6.862  -5.302  0.00  0.00     0.278 C 
ENDROOT
BRANCH   1   2
HETATM    2  N           1     -21.227  -7.421  -6.503  0.00  0.00    -0.066 N 
HETATM    3  H           1     -21.803  -8.244  -6.217  0.00  0.00     0.275 HD
HETATM    4  H           1     -21.846  -6.688  -6.915  0.00  0.00     0.275 HD
HETATM    5  H           1     -20.520  -7.720  -7.212  0.00  0.00     0.275 HD
ENDBRANCH   1   2
BRANCH   1   6
HETATM    6  C           1     -20.566  -5.341  -5.350  0.00  0.00     0.081 C 
BRANCH   6   7
HETATM    7  C           1     -21.035  -4.897  -6.701  0.00  0.00    -0.056 A 
HETATM    8  C           1     -20.155  -4.908  -7.783  0.00  0.00     0.010 A 
HETATM    9  C           1     -20.592  -4.495  -9.041  0.00  0.00     0.038 A 
HETATM   10  C           1     -21.909  -4.070  -9.218  0.00  0.00     0.081 A 
HETATM   11  C           1     -22.789  -4.059  -8.136  0.00  0.00     0.038 A 
HETATM   12  C           1     -22.351  -4.472  -6.877  0.00  0.00     0.010 A 
BRANCH  10  13
HETATM   13  O           1     -22.334  -3.668 -10.441  0.00  0.00    -0.247 OA
BRANCH  13  14
HETATM   14  P           1     -23.687  -4.326 -11.027  0.00  0.00     0.411 P 
HETATM   15  O           1     -24.805  -3.367 -10.879  0.00  0.00    -0.624 OA
HETATM   16  O           1     -23.996  -5.564 -10.278  0.00  0.00    -0.624 OA
BRANCH  14  17
HETATM   17  O           1     -23.483  -4.679 -12.589  0.00  0.00    -0.300 OA
HETATM   18  H           1     -23.905  -5.513 -12.708  0.00  0.00     0.223 HD
ENDBRANCH  14  17
ENDBRANCH  13  14
ENDBRANCH  10  13
ENDBRANCH   6   7
ENDBRANCH   1   6
BRANCH   1  19
HETATM   19  C           1     -21.208  -7.347  -4.048  0.00  0.00     0.249 C 
HETATM   20  O           1     -21.854  -6.576  -3.377  0.00  0.00    -0.271 OA
HETATM   21  N           1     -21.097  -8.657  -3.669  0.00  0.00    -0.345 N 
HETATM   22  H           1     -20.556  -9.302  -4.231  0.00  0.00     0.163 HD
BRANCH  21  23
HETATM   23  C           1     -21.756  -9.122  -2.465  0.00  0.00     0.185 C 
BRANCH  23  24
HETATM   24  C           1     -20.778  -9.101  -1.317  0.00  0.00     0.196 C 
HETATM   25  O           1     -20.820  -8.176  -0.476  0.00  0.00    -0.646 OA
HETATM   26  O           1     -19.925 -10.009  -1.204  0.00  0.00    -0.646 OA
ENDBRANCH  23  24
BRANCH  23  27
HETATM   27  C           1     -22.258 -10.544  -2.676  0.00  0.00     0.036 C 
BRANCH  27  28
HETATM   28  C           1     -23.365 -10.847  -1.676  0.00  0.00     0.004 C 
BRANCH  28  29
HETATM   29  C           1     -23.128 -12.216  -1.052  0.00  0.00     0.027 C 
BRANCH  29  30
HETATM   30  C           1     -22.511 -12.043   0.330  0.00  0.00     0.229 C 
BRANCH  30  31
HETATM   31  N           1     -21.052 -12.385   0.272  0.00  0.00    -0.079 N 
HETATM   32  H           1     -20.919 -13.251  -0.297  0.00  0.00     0.274 HD
HETATM   33  H           1     -20.692 -12.545   1.240  0.00  0.00     0.274 HD
HETATM   34  H           1     -20.526 -11.596  -0.168  0.00  0.00     0.274 HD
ENDBRANCH  30  31
ENDBRANCH  29  30
ENDBRANCH  28  29
ENDBRANCH  27  28
ENDBRANCH  23  27
ENDBRANCH  21  23
ENDBRANCH   1  19
TORSDOF 14
ENDMDL
MODEL 7
REMARK VINA RESULT:      -6.8     12.896     14.800
REMARK  14 active torsions:
REMARK  status: ('A' for Active; 'I' for Inactive)
REMARK    1  A    between atoms: N_5  and  C_18 
REMARK    2  A    between atoms: O_10  and  P_11 
REMARK    3  A    between atoms: P_11  and  O_12 
REMARK    4  A    between atoms: O_12  and  C_13 
REMARK    5  A    between atoms: C_16  and  C_17 
REMARK    6  A    between atoms: C_17  and  C_18 
REMARK    7  A    between atoms: C_18  and  C_19 
REMARK       I    between atoms: C_19  and  N_20 
REMARK    8  A    between atoms: N_20  and  C_24 
REMARK    9  A    between atoms: C_23  and  C_24 
REMARK   10  A    between atoms: C_24  and  C_25 
REMARK   11  A    between atoms: C_25  and  C_26 
REMARK   12  A    between atoms: C_26  and  C_27 
REMARK   13  A    between atoms: C_27  and  C_28 
REMARK   14  A    between atoms: C_28  and  N_29 
ROOT
HETATM    1  C           1     -21.564  -6.585  -4.428  0.00  0.00     0.278 C 
ENDROOT
BRANCH   1   2
HETATM    2  N           1     -21.259  -5.675  -3.275  0.00  0.00    -0.066 N 
HETATM    3  H           1     -20.643  -4.896  -3.599  0.00  0.00     0.275 HD
HETATM    4  H           1     -22.150  -5.281  -2.898  0.00  0.00     0.275 HD
HETATM    5  H           1     -20.771  -6.216  -2.526  0.00  0.00     0.275 HD
ENDBRANCH   1   2
BRANCH   1   6
HETATM    6  C           1     -20.497  -6.419  -5.502  0.00  0.00     0.081 C 
BRANCH   6   7
HETATM    7  C           1     -21.056  -5.626  -6.643  0.00  0.00    -0.056 A 
HETATM    8  C           1     -22.328  -5.062  -6.544  0.00  0.00     0.010 A 
HETATM    9  C           1     -22.848  -4.324  -7.607  0.00  0.00     0.038 A 
HETATM   10  C           1     -22.096  -4.150  -8.769  0.00  0.00     0.081 A 
HETATM   11  C           1     -20.825  -4.714  -8.868  0.00  0.00     0.038 A 
HETATM   12  C           1     -20.304  -5.453  -7.805  0.00  0.00     0.010 A 
BRANCH  10  13
HETATM   13  O           1     -22.602  -3.433  -9.802  0.00  0.00    -0.247 OA
BRANCH  13  14
HETATM   14  P           1     -23.631  -4.170 -10.804  0.00  0.00     0.411 P 
HETATM   15  O           1     -24.837  -3.329 -10.979  0.00  0.00    -0.624 OA
HETATM   16  O           1     -24.020  -5.480 -10.235  0.00  0.00    -0.624 OA
BRANCH  14  17
HETATM   17  O           1     -22.920  -4.396 -12.236  0.00  0.00    -0.300 OA
HETATM   18  H           1     -23.471  -3.945 -12.855  0.00  0.00     0.223 HD
ENDBRANCH  14  17
ENDBRANCH  13  14
ENDBRANCH  10  13
ENDBRANCH   6   7
ENDBRANCH   1   6
BRANCH   1  19
HETATM   19  C           1     -21.578  -8.016  -3.948  0.00  0.00     0.249 C 
HETATM   20  O           1     -21.571  -8.921  -4.750  0.00  0.00    -0.271 OA
HETATM   21  N           1     -21.600  -8.289  -2.607  0.00  0.00    -0.345 N 
HETATM   22  H           1     -21.605  -7.531  -1.937  0.00  0.00     0.163 HD
BRANCH  21  23
HETATM   23  C           1     -21.613  -9.663  -2.148  0.00  0.00     0.185 C 
BRANCH  23  24
HETATM   24  C           1     -22.669  -9.827  -1.083  0.00  0.00     0.196 C 
HETATM   25  O           1     -22.853  -8.922  -0.240  0.00  0.00    -0.646 OA
HETATM   26  O           1     -23.362 -10.867  -1.044  0.00  0.00    -0.646 OA
ENDBRANCH  23  24
BRANCH  23  27
HETATM   27  C           1     -20.251 -10.019  -1.567  0.00  0.00     0.036 C 
BRANCH  27  28
HETATM   28  C           1     -19.470 -10.853  -2.574  0.00  0.00     0.004 C 
BRANCH  28  29
HETATM   29  C           1     -20.336 -12.012  -3.054  0.00  0.00     0.027 C 
BRANCH  29  30
HETATM   30  C           1     -19.901 -12.423  -4.455  0.00  0.00     0.229 C 
BRANCH  30  31
HETATM   31  N           1     -20.593 -11.557  -5.466  0.00  0.00    -0.079 N 
HETATM   32  H           1     -20.620 -10.571  -5.121  0.00  0.00     0.274 HD
HETATM   33  H           1     -21.568 -11.902  -5.612  0.00  0.00     0.274 HD
HETATM   34  H           1     -20.072 -11.594  -6.371  0.00  0.00     0.274 HD
ENDBRANCH  30  31
ENDBRANCH  29  30
ENDBRANCH  28  29
ENDBRANCH  27  28
ENDBRANCH  23  27
ENDBRANCH  21  23
ENDBRANCH   1  19
TORSDOF 14
ENDMDL
MODEL 8
REMARK VINA RESULT:      -6.6     13.423     15.613
REMARK  14 active torsions:
REMARK  status: ('A' for Active; 'I' for Inactive)
REMARK    1  A    between atoms: N_5  and  C_18 
REMARK    2  A    between atoms: O_10  and  P_11 
REMARK    3  A    between atoms: P_11  and  O_12 
REMARK    4  A    between atoms: O_12  and  C_13 
REMARK    5  A    between atoms: C_16  and  C_17 
REMARK    6  A    between atoms: C_17  and  C_18 
REMARK    7  A    between atoms: C_18  and  C_19 
REMARK       I    between atoms: C_19  and  N_20 
REMARK    8  A    between atoms: N_20  and  C_24 
REMARK    9  A    between atoms: C_23  and  C_24 
REMARK   10  A    between atoms: C_24  and  C_25 
REMARK   11  A    between atoms: C_25  and  C_26 
REMARK   12  A    between atoms: C_26  and  C_27 
REMARK   13  A    between atoms: C_27  and  C_28 
REMARK   14  A    between atoms: C_28  and  N_29 
ROOT
HETATM    1  C           1     -20.612  -7.784  -4.583  0.00  0.00     0.278 C 
ENDROOT
BRANCH   1   2
HETATM    2  N           1     -21.122  -8.750  -5.611  0.00  0.00    -0.066 N 
HETATM    3  H           1     -20.502  -9.590  -5.639  0.00  0.00     0.275 HD
HETATM    4  H           1     -22.093  -9.043  -5.362  0.00  0.00     0.275 HD
HETATM    5  H           1     -21.126  -8.289  -6.549  0.00  0.00     0.275 HD
ENDBRANCH   1   2
BRANCH   1   6
HETATM    6  C           1     -21.546  -6.585  -4.505  0.00  0.00     0.081 C 
BRANCH   6   7
HETATM    7  C           1     -21.352  -5.721  -5.713  0.00  0.00    -0.056 A 
HETATM    8  C           1     -20.065  -5.375  -6.123  0.00  0.00     0.010 A 
HETATM    9  C           1     -19.885  -4.570  -7.248  0.00  0.00     0.038 A 
HETATM   10  C           1     -20.992  -4.113  -7.963  0.00  0.00     0.081 A 
HETATM   11  C           1     -22.279  -4.459  -7.553  0.00  0.00     0.038 A 
HETATM   12  C           1     -22.459  -5.264  -6.427  0.00  0.00     0.010 A 
BRANCH  10  13
HETATM   13  O           1     -20.817  -3.331  -9.056  0.00  0.00    -0.247 OA
BRANCH  13  14
HETATM   14  P           1     -20.796  -4.047 -10.504  0.00  0.00     0.411 P 
HETATM   15  O           1     -22.125  -4.637 -10.781  0.00  0.00    -0.624 OA
HETATM   16  O           1     -19.770  -5.113 -10.510  0.00  0.00    -0.624 OA
BRANCH  14  17
HETATM   17  O           1     -20.444  -2.955 -11.640  0.00  0.00    -0.300 OA
HETATM   18  H           1     -20.320  -2.146 -11.171  0.00  0.00     0.223 HD
ENDBRANCH  14  17
ENDBRANCH  13  14
ENDBRANCH  10  13
ENDBRANCH   6   7
ENDBRANCH   1   6
BRANCH   1  19
HETATM   19  C           1     -20.554  -8.468  -3.238  0.00  0.00     0.249 C 
HETATM   20  O           1     -20.257  -7.835  -2.252  0.00  0.00    -0.271 OA
HETATM   21  N           1     -20.838  -9.802  -3.135  0.00  0.00    -0.345 N 
HETATM   22  H           1     -21.087 -10.332  -3.960  0.00  0.00     0.163 HD
BRANCH  21  23
HETATM   23  C           1     -20.783 -10.457  -1.843  0.00  0.00     0.185 C 
BRANCH  23  24
HETATM   24  C           1     -19.838 -11.632  -1.915  0.00  0.00     0.196 C 
HETATM   25  O           1     -20.254 -12.785  -1.669  0.00  0.00    -0.646 OA
HETATM   26  O           1     -18.639 -11.452  -2.221  0.00  0.00    -0.646 OA
ENDBRANCH  23  24
BRANCH  23  27
HETATM   27  C           1     -22.173 -10.949  -1.462  0.00  0.00     0.036 C 
BRANCH  27  28
HETATM   28  C           1     -22.470 -10.566  -0.018  0.00  0.00     0.004 C 
BRANCH  28  29
HETATM   29  C           1     -23.348  -9.321   0.007  0.00  0.00     0.027 C 
BRANCH  29  30
HETATM   30  C           1     -22.524  -8.128   0.475  0.00  0.00     0.229 C 
BRANCH  30  31
HETATM   31  N           1     -22.529  -7.070  -0.587  0.00  0.00    -0.079 N 
HETATM   32  H           1     -23.373  -6.465  -0.473  0.00  0.00     0.274 HD
HETATM   33  H           1     -22.548  -7.522  -1.529  0.00  0.00     0.274 HD
HETATM   34  H           1     -21.668  -6.484  -0.501  0.00  0.00     0.274 HD
ENDBRANCH  30  31
ENDBRANCH  29  30
ENDBRANCH  28  29
ENDBRANCH  27  28
ENDBRANCH  23  27
ENDBRANCH  21  23
ENDBRANCH   1  19
TORSDOF 14
ENDMDL
MODEL 9
REMARK VINA RESULT:      -6.6     13.227     15.217
REMARK  14 active torsions:
REMARK  status: ('A' for Active; 'I' for Inactive)
REMARK    1  A    between atoms: N_5  and  C_18 
REMARK    2  A    between atoms: O_10  and  P_11 
REMARK    3  A    between atoms: P_11  and  O_12 
REMARK    4  A    between atoms: O_12  and  C_13 
REMARK    5  A    between atoms: C_16  and  C_17 
REMARK    6  A    between atoms: C_17  and  C_18 
REMARK    7  A    between atoms: C_18  and  C_19 
REMARK       I    between atoms: C_19  and  N_20 
REMARK    8  A    between atoms: N_20  and  C_24 
REMARK    9  A    between atoms: C_23  and  C_24 
REMARK   10  A    between atoms: C_24  and  C_25 
REMARK   11  A    between atoms: C_25  and  C_26 
REMARK   12  A    between atoms: C_26  and  C_27 
REMARK   13  A    between atoms: C_27  and  C_28 
REMARK   14  A    between atoms: C_28  and  N_29 
ROOT
HETATM    1  C           1     -21.312  -6.747  -4.343  0.00  0.00     0.278 C 
ENDROOT
BRANCH   1   2
HETATM    2  N           1     -21.152  -5.596  -3.394  0.00  0.00    -0.066 N 
HETATM    3  H           1     -21.167  -4.699  -3.928  0.00  0.00     0.275 HD
HETATM    4  H           1     -21.936  -5.604  -2.704  0.00  0.00     0.275 HD
HETATM    5  H           1     -20.241  -5.686  -2.890  0.00  0.00     0.275 HD
ENDBRANCH   1   2
BRANCH   1   6
HETATM    6  C           1     -20.380  -6.557  -5.532  0.00  0.00     0.081 C 
BRANCH   6   7
HETATM    7  C           1     -21.045  -5.691  -6.556  0.00  0.00    -0.056 A 
HETATM    8  C           1     -22.374  -5.303  -6.383  0.00  0.00     0.010 A 
HETATM    9  C           1     -22.994  -4.496  -7.337  0.00  0.00     0.038 A 
HETATM   10  C           1     -22.285  -4.076  -8.462  0.00  0.00     0.081 A 
HETATM   11  C           1     -20.957  -4.463  -8.635  0.00  0.00     0.038 A 
HETATM   12  C           1     -20.336  -5.271  -7.681  0.00  0.00     0.010 A 
BRANCH  10  13
HETATM   13  O           1     -22.887  -3.291  -9.389  0.00  0.00    -0.247 OA
BRANCH  13  14
HETATM   14  P           1     -23.667  -4.016 -10.604  0.00  0.00     0.411 P 
HETATM   15  O           1     -22.801  -4.031 -11.805  0.00  0.00    -0.624 OA
HETATM   16  O           1     -24.912  -3.275 -10.902  0.00  0.00    -0.624 OA
BRANCH  14  17
HETATM   17  O           1     -24.029  -5.532 -10.184  0.00  0.00    -0.300 OA
HETATM   18  H           1     -24.299  -5.949 -10.985  0.00  0.00     0.223 HD
ENDBRANCH  14  17
ENDBRANCH  13  14
ENDBRANCH  10  13
ENDBRANCH   6   7
ENDBRANCH   1   6
BRANCH   1  19
HETATM   19  C           1     -20.969  -8.035  -3.634  0.00  0.00     0.249 C 
HETATM   20  O           1     -19.931  -8.602  -3.881  0.00  0.00    -0.271 OA
HETATM   21  N           1     -21.833  -8.559  -2.711  0.00  0.00    -0.345 N 
HETATM   22  H           1     -22.702  -8.084  -2.504  0.00  0.00     0.163 HD
BRANCH  21  23
HETATM   23  C           1     -21.502  -9.795  -2.029  0.00  0.00     0.185 C 
BRANCH  23  24
HETATM   24  C           1     -21.957 -10.966  -2.865  0.00  0.00     0.196 C 
HETATM   25  O           1     -21.122 -11.799  -3.281  0.00  0.00    -0.646 OA
HETATM   26  O           1     -23.169 -11.106  -3.140  0.00  0.00    -0.646 OA
ENDBRANCH  23  24
BRANCH  23  27
HETATM   27  C           1     -22.204  -9.834  -0.679  0.00  0.00     0.036 C 
BRANCH  27  28
HETATM   28  C           1     -21.168  -9.969   0.429  0.00  0.00     0.004 C 
BRANCH  28  29
HETATM   29  C           1     -20.865 -11.444   0.666  0.00  0.00     0.027 C 
BRANCH  29  30
HETATM   30  C           1     -19.449 -11.753   0.194  0.00  0.00     0.229 C 
BRANCH  30  31
HETATM   31  N           1     -19.502 -12.763  -0.913  0.00  0.00    -0.079 N 
HETATM   32  H           1     -19.371 -12.280  -1.831  0.00  0.00     0.274 HD
HETATM   33  H           1     -20.428 -13.245  -0.902  0.00  0.00     0.274 HD
HETATM   34  H           1     -18.741 -13.467  -0.779  0.00  0.00     0.274 HD
ENDBRANCH  30  31
ENDBRANCH  29  30
ENDBRANCH  28  29
ENDBRANCH  27  28
ENDBRANCH  23  27
ENDBRANCH  21  23
ENDBRANCH   1  19
TORSDOF 14
ENDMDL
