MODEL 1
REMARK VINA RESULT:      -8.1      0.000      0.000
REMARK  12 active torsions:
REMARK  status: ('A' for Active; 'I' for Inactive)
REMARK    1  A    between atoms: C_1  and  O_27 
REMARK    2  A    between atoms: C_3  and  C_25 
REMARK    3  A    between atoms: C_4  and  C_10 
REMARK    4  A    between atoms: C_4  and  C_5 
REMARK    5  A    between atoms: C_10  and  C_12 
REMARK    6  A    between atoms: C_10  and  N_30 
REMARK       I    between atoms: C_12  and  N_22 
REMARK    7  A    between atoms: O_18  and  P_28 
REMARK    8  A    between atoms: N_22  and  C_35 
REMARK    9  A    between atoms: C_23  and  C_35 
REMARK   10  A    between atoms: C_25  and  C_35 
REMARK   11  A    between atoms: P_28  and  O_34 
REMARK   12  A    between atoms: C_33  and  O_34 
ROOT
HETATM    1  O           1     -21.678  -6.310  -2.670  0.00  0.00    -0.271 OA
HETATM    2  C           1     -21.605  -7.470  -3.002  0.00  0.00     0.249 C 
HETATM    3  H           1     -23.065  -8.168  -4.294  0.00  0.00     0.163 HD
HETATM    4  N           1     -22.102  -7.866  -4.216  0.00  0.00    -0.344 N 
ENDROOT
BRANCH   4   5
HETATM    5  C           1     -21.248  -7.853  -5.388  0.00  0.00     0.189 C 
BRANCH   5   6
HETATM    6  C           1     -20.257  -8.987  -5.298  0.00  0.00     0.197 C 
HETATM    7  O           1     -20.623 -10.159  -5.536  0.00  0.00    -0.646 OA
HETATM    8  O           1     -19.069  -8.754  -4.984  0.00  0.00    -0.646 OA
ENDBRANCH   5   6
BRANCH   5   9
HETATM    9  C           1     -20.501  -6.528  -5.455  0.00  0.00     0.074 C 
BRANCH   9  10
HETATM   10  C           1     -21.032  -5.712  -6.592  0.00  0.00    -0.056 A 
HETATM   11  C           1     -22.290  -5.116  -6.496  0.00  0.00     0.010 A 
HETATM   12  C           1     -22.786  -4.357  -7.555  0.00  0.00     0.038 A 
HETATM   13  C           1     -22.022  -4.191  -8.711  0.00  0.00     0.081 A 
HETATM   14  C           1     -20.765  -4.786  -8.808  0.00  0.00     0.038 A 
HETATM   15  C           1     -20.269  -5.547  -7.748  0.00  0.00     0.010 A 
BRANCH  13  16
HETATM   16  O           1     -22.503  -3.453  -9.741  0.00  0.00    -0.247 OA
BRANCH  16  17
HETATM   17  P           1     -23.554  -4.150 -10.749  0.00  0.00     0.411 P 
HETATM   18  O           1     -24.753  -3.293 -10.883  0.00  0.00    -0.624 OA
HETATM   19  O           1     -23.949  -5.471 -10.212  0.00  0.00    -0.624 OA
BRANCH  17  20
HETATM   20  O           1     -22.864  -4.342 -12.197  0.00  0.00    -0.300 OA
HETATM   21  H           1     -22.137  -3.744 -12.202  0.00  0.00     0.223 HD
ENDBRANCH  17  20
ENDBRANCH  16  17
ENDBRANCH  13  16
ENDBRANCH   9  10
ENDBRANCH   5   9
ENDBRANCH   4   5
BRANCH   2  22
HETATM   22  C           1     -20.967  -8.480  -2.081  0.00  0.00     0.278 C 
BRANCH  22  23
HETATM   23  C           1     -21.604  -8.384  -0.701  0.00  0.00     0.081 C 
BRANCH  23  24
HETATM   24  C           1     -22.085  -9.737  -0.278  0.00  0.00    -0.056 A 
HETATM   25  C           1     -23.429 -10.077  -0.426  0.00  0.00     0.010 A 
HETATM   26  C           1     -23.877 -11.337  -0.032  0.00  0.00     0.037 A 
HETATM   27  C           1     -22.981 -12.258   0.512  0.00  0.00     0.065 A 
HETATM   28  C           1     -21.637 -11.918   0.661  0.00  0.00     0.037 A 
HETATM   29  C           1     -21.189 -10.658   0.266  0.00  0.00     0.010 A 
BRANCH  27  30
HETATM   30  O           1     -23.417 -13.483   0.896  0.00  0.00    -0.361 OA
HETATM   31  H           1     -24.319 -13.383   1.246  0.00  0.00     0.217 HD
ENDBRANCH  27  30
ENDBRANCH  23  24
ENDBRANCH  22  23
BRANCH  22  32
HETATM   32  N           1     -19.498  -8.200  -1.974  0.00  0.00    -0.066 N 
HETATM   33  H           1     -19.087  -8.123  -2.932  0.00  0.00     0.275 HD
HETATM   34  H           1     -19.350  -7.303  -1.458  0.00  0.00     0.275 HD
HETATM   35  H           1     -19.032  -8.980  -1.456  0.00  0.00     0.275 HD
ENDBRANCH  22  32
ENDBRANCH   2  22
TORSDOF 12
ENDMDL
MODEL 2
REMARK VINA RESULT:      -7.9      3.321      9.606
REMARK  12 active torsions:
REMARK  status: ('A' for Active; 'I' for Inactive)
REMARK    1  A    between atoms: C_1  and  O_27 
REMARK    2  A    between atoms: C_3  and  C_25 
REMARK    3  A    between atoms: C_4  and  C_10 
REMARK    4  A    between atoms: C_4  and  C_5 
REMARK    5  A    between atoms: C_10  and  C_12 
REMARK    6  A    between atoms: C_10  and  N_30 
REMARK       I    between atoms: C_12  and  N_22 
REMARK    7  A    between atoms: O_18  and  P_28 
REMARK    8  A    between atoms: N_22  and  C_35 
REMARK    9  A    between atoms: C_23  and  C_35 
REMARK   10  A    between atoms: C_25  and  C_35 
REMARK   11  A    between atoms: P_28  and  O_34 
REMARK   12  A    between atoms: C_33  and  O_34 
ROOT
HETATM    1  O           1     -19.683  -4.862  -5.632  0.00  0.00    -0.271 OA
HETATM    2  C           1     -20.332  -5.758  -6.119  0.00  0.00     0.249 C 
HETATM    3  H           1     -19.283  -7.259  -7.085  0.00  0.00     0.163 HD
HETATM    4  N           1     -19.788  -7.008  -6.244  0.00  0.00    -0.344 N 
ENDROOT
BRANCH   4   5
HETATM    5  C           1     -19.934  -7.973  -5.171  0.00  0.00     0.189 C 
BRANCH   5   6
HETATM    6  C           1     -18.787  -8.952  -5.218  0.00  0.00     0.197 C 
HETATM    7  O           1     -18.255  -9.344  -4.156  0.00  0.00    -0.646 OA
HETATM    8  O           1     -18.366  -9.370  -6.319  0.00  0.00    -0.646 OA
ENDBRANCH   5   6
BRANCH   5   9
HETATM    9  C           1     -21.249  -8.723  -5.340  0.00  0.00     0.074 C 
BRANCH   9  10
HETATM   10  C           1     -21.639  -9.347  -4.036  0.00  0.00    -0.056 A 
HETATM   11  C           1     -21.429  -8.657  -2.842  0.00  0.00     0.010 A 
HETATM   12  C           1     -21.791  -9.238  -1.627  0.00  0.00     0.038 A 
HETATM   13  C           1     -22.366 -10.509  -1.607  0.00  0.00     0.081 A 
HETATM   14  C           1     -22.575 -11.200  -2.800  0.00  0.00     0.038 A 
HETATM   15  C           1     -22.212 -10.619  -4.016  0.00  0.00     0.010 A 
BRANCH  13  16
HETATM   16  O           1     -22.719 -11.075  -0.426  0.00  0.00    -0.247 OA
BRANCH  16  17
HETATM   17  P           1     -21.577 -11.843   0.419  0.00  0.00     0.411 P 
HETATM   18  O           1     -22.211 -12.820   1.331  0.00  0.00    -0.624 OA
HETATM   19  O           1     -20.805 -10.859   1.210  0.00  0.00    -0.624 OA
BRANCH  17  20
HETATM   20  O           1     -20.586 -12.616  -0.595  0.00  0.00    -0.300 OA
HETATM   21  H           1     -19.823 -12.820  -0.083  0.00  0.00     0.223 HD
ENDBRANCH  17  20
ENDBRANCH  16  17
ENDBRANCH  13  16
ENDBRANCH   9  10
ENDBRANCH   5   9
ENDBRANCH   4   5
BRANCH   2  22
HETATM   22  C           1     -21.743  -5.498  -6.588  0.00  0.00     0.278 C 
BRANCH  22  23
HETATM   23  C           1     -21.858  -4.063  -7.083  0.00  0.00     0.081 C 
BRANCH  23  24
HETATM   24  C           1     -21.832  -4.046  -8.579  0.00  0.00    -0.056 A 
HETATM   25  C           1     -20.612  -4.045  -9.255  0.00  0.00     0.010 A 
HETATM   26  C           1     -20.587  -4.030 -10.649  0.00  0.00     0.037 A 
HETATM   27  C           1     -21.783  -4.017 -11.368  0.00  0.00     0.065 A 
HETATM   28  C           1     -23.003  -4.019 -10.693  0.00  0.00     0.037 A 
HETATM   29  C           1     -23.027  -4.034  -9.298  0.00  0.00     0.010 A 
BRANCH  27  30
HETATM   30  O           1     -21.759  -4.002 -12.723  0.00  0.00    -0.361 OA
HETATM   31  H           1     -22.198  -4.809 -13.040  0.00  0.00     0.217 HD
ENDBRANCH  27  30
ENDBRANCH  23  24
ENDBRANCH  22  23
BRANCH  22  32
HETATM   32  N           1     -22.695  -5.712  -5.449  0.00  0.00    -0.066 N 
HETATM   33  H           1     -22.800  -4.822  -4.911  0.00  0.00     0.275 HD
HETATM   34  H           1     -23.626  -6.006  -5.823  0.00  0.00     0.275 HD
HETATM   35  H           1     -22.322  -6.458  -4.819  0.00  0.00     0.275 HD
ENDBRANCH  22  32
ENDBRANCH   2  22
TORSDOF 12
ENDMDL
MODEL 3
REMARK VINA RESULT:      -7.6      3.609      8.711
REMARK  12 active torsions:
REMARK  status: ('A' for Active; 'I' for Inactive)
REMARK    1  A    between atoms: C_1  and  O_27 
REMARK    2  A    between atoms: C_3  and  C_25 
REMARK    3  A    between atoms: C_4  and  C_10 
REMARK    4  A    between atoms: C_4  and  C_5 
REMARK    5  A    between atoms: C_10  and  C_12 
REMARK    6  A    between atoms: C_10  and  N_30 
REMARK       I    between atoms: C_12  and  N_22 
REMARK    7  A    between atoms: O_18  and  P_28 
REMARK    8  A    between atoms: N_22  and  C_35 
REMARK    9  A    between atoms: C_23  and  C_35 
REMARK   10  A    between atoms: C_25  and  C_35 
REMARK   11  A    between atoms: P_28  and  O_34 
REMARK   12  A    between atoms: C_33  and  O_34 
ROOT
HETATM    1  O           1     -22.503  -6.343  -4.294  0.00  0.00    -0.271 OA
HETATM    2  C           1     -21.320  -6.564  -4.185  0.00  0.00     0.249 C 
HETATM    3  H           1     -20.515  -6.440  -2.281  0.00  0.00     0.163 HD
HETATM    4  N           1     -20.824  -7.069  -3.012  0.00  0.00    -0.344 N 
ENDROOT
BRANCH   4   5
HETATM    5  C           1     -20.740  -8.503  -2.817  0.00  0.00     0.189 C 
BRANCH   5   6
HETATM    6  C           1     -21.868  -8.954  -1.922  0.00  0.00     0.197 C 
HETATM    7  O           1     -22.337 -10.107  -2.039  0.00  0.00    -0.646 OA
HETATM    8  O           1     -22.333  -8.174  -1.063  0.00  0.00    -0.646 OA
ENDBRANCH   5   6
BRANCH   5   9
HETATM    9  C           1     -19.406  -8.850  -2.169  0.00  0.00     0.074 C 
BRANCH   9  10
HETATM   10  C           1     -18.437  -9.288  -3.223  0.00  0.00    -0.056 A 
HETATM   11  C           1     -17.078  -9.391  -2.922  0.00  0.00     0.010 A 
HETATM   12  C           1     -16.176  -9.798  -3.904  0.00  0.00     0.038 A 
HETATM   13  C           1     -16.632 -10.104  -5.186  0.00  0.00     0.081 A 
HETATM   14  C           1     -17.990 -10.001  -5.487  0.00  0.00     0.038 A 
HETATM   15  C           1     -18.893  -9.593  -4.505  0.00  0.00     0.010 A 
BRANCH  13  16
HETATM   16  O           1     -15.755 -10.501  -6.141  0.00  0.00    -0.247 OA
BRANCH  16  17
HETATM   17  P           1     -15.514 -12.085  -6.338  0.00  0.00     0.411 P 
HETATM   18  O           1     -16.403 -12.590  -7.409  0.00  0.00    -0.624 OA
HETATM   19  O           1     -15.815 -12.790  -5.073  0.00  0.00    -0.624 OA
BRANCH  17  20
HETATM   20  O           1     -13.974 -12.348  -6.749  0.00  0.00    -0.300 OA
HETATM   21  H           1     -13.993 -13.122  -7.285  0.00  0.00     0.223 HD
ENDBRANCH  17  20
ENDBRANCH  16  17
ENDBRANCH  13  16
ENDBRANCH   9  10
ENDBRANCH   5   9
ENDBRANCH   4   5
BRANCH   2  22
HETATM   22  C           1     -20.390  -6.285  -5.339  0.00  0.00     0.278 C 
BRANCH  22  23
HETATM   23  C           1     -20.337  -4.785  -5.598  0.00  0.00     0.081 C 
BRANCH  23  24
HETATM   24  C           1     -20.792  -4.503  -6.995  0.00  0.00    -0.056 A 
HETATM   25  C           1     -22.147  -4.303  -7.260  0.00  0.00     0.010 A 
HETATM   26  C           1     -22.572  -4.040  -8.562  0.00  0.00     0.037 A 
HETATM   27  C           1     -21.642  -3.976  -9.600  0.00  0.00     0.065 A 
HETATM   28  C           1     -20.287  -4.175  -9.336  0.00  0.00     0.037 A 
HETATM   29  C           1     -19.863  -4.439  -8.034  0.00  0.00     0.010 A 
BRANCH  27  30
HETATM   30  O           1     -22.055  -3.721 -10.866  0.00  0.00    -0.361 OA
HETATM   31  H           1     -22.674  -2.971 -10.833  0.00  0.00     0.217 HD
ENDBRANCH  27  30
ENDBRANCH  23  24
ENDBRANCH  22  23
BRANCH  22  32
HETATM   32  N           1     -20.892  -6.986  -6.566  0.00  0.00    -0.066 N 
HETATM   33  H           1     -21.928  -7.109  -6.497  0.00  0.00     0.275 HD
HETATM   34  H           1     -20.664  -6.416  -7.412  0.00  0.00     0.275 HD
HETATM   35  H           1     -20.434  -7.923  -6.644  0.00  0.00     0.275 HD
ENDBRANCH  22  32
ENDBRANCH   2  22
TORSDOF 12
ENDMDL
MODEL 4
REMARK VINA RESULT:      -7.5      3.251      8.465
REMARK  12 active torsions:
REMARK  status: ('A' for Active; 'I' for Inactive)
REMARK    1  A    between atoms: C_1  and  O_27 
REMARK    2  A    between atoms: C_3  and  C_25 
REMARK    3  A    between atoms: C_4  and  C_10 
REMARK    4  A    between atoms: C_4  and  C_5 
REMARK    5  A    between atoms: C_10  and  C_12 
REMARK    6  A    between atoms: C_10  and  N_30 
REMARK       I    between atoms: C_12  and  N_22 
REMARK    7  A    between atoms: O_18  and  P_28 
REMARK    8  A    between atoms: N_22  and  C_35 
REMARK    9  A    between atoms: C_23  and  C_35 
REMARK   10  A    between atoms: C_25  and  C_35 
REMARK   11  A    between atoms: P_28  and  O_34 
REMARK   12  A    between atoms: C_33  and  O_34 
ROOT
HETATM    1  O           1     -22.807  -6.047  -4.886  0.00  0.00    -0.271 OA
HETATM    2  C           1     -21.669  -6.213  -4.514  0.00  0.00     0.249 C 
HETATM    3  H           1     -21.216  -5.608  -2.587  0.00  0.00     0.163 HD
HETATM    4  N           1     -21.405  -6.403  -3.183  0.00  0.00    -0.344 N 
ENDROOT
BRANCH   4   5
HETATM    5  C           1     -21.398  -7.743  -2.629  0.00  0.00     0.189 C 
BRANCH   5   6
HETATM    6  C           1     -21.971  -7.712  -1.234  0.00  0.00     0.197 C 
HETATM    7  O           1     -21.743  -8.654  -0.443  0.00  0.00    -0.646 OA
HETATM    8  O           1     -22.674  -6.745  -0.869  0.00  0.00    -0.646 OA
ENDBRANCH   5   6
BRANCH   5   9
HETATM    9  C           1     -19.967  -8.263  -2.579  0.00  0.00     0.074 C 
BRANCH   9  10
HETATM   10  C           1     -19.709  -9.132  -3.771  0.00  0.00    -0.056 A 
HETATM   11  C           1     -18.425  -9.214  -4.311  0.00  0.00     0.010 A 
HETATM   12  C           1     -18.185 -10.023  -5.420  0.00  0.00     0.038 A 
HETATM   13  C           1     -19.229 -10.752  -5.990  0.00  0.00     0.081 A 
HETATM   14  C           1     -20.513 -10.671  -5.451  0.00  0.00     0.038 A 
HETATM   15  C           1     -20.753  -9.861  -4.341  0.00  0.00     0.010 A 
BRANCH  13  16
HETATM   16  O           1     -18.996 -11.540  -7.069  0.00  0.00    -0.247 OA
BRANCH  16  17
HETATM   17  P           1     -18.212 -12.932  -6.836  0.00  0.00     0.411 P 
HETATM   18  O           1     -16.770 -12.738  -7.107  0.00  0.00    -0.624 OA
HETATM   19  O           1     -18.752 -13.960  -7.753  0.00  0.00    -0.624 OA
BRANCH  17  20
HETATM   20  O           1     -18.413 -13.414  -5.308  0.00  0.00    -0.300 OA
HETATM   21  H           1     -17.606 -13.195  -4.875  0.00  0.00     0.223 HD
ENDBRANCH  17  20
ENDBRANCH  16  17
ENDBRANCH  13  16
ENDBRANCH   9  10
ENDBRANCH   5   9
ENDBRANCH   4   5
BRANCH   2  22
HETATM   22  C           1     -20.540  -6.212  -5.515  0.00  0.00     0.278 C 
BRANCH  22  23
HETATM   23  C           1     -20.191  -4.777  -5.886  0.00  0.00     0.081 C 
BRANCH  23  24
HETATM   24  C           1     -20.715  -4.474  -7.255  0.00  0.00    -0.056 A 
HETATM   25  C           1     -22.027  -4.031  -7.417  0.00  0.00     0.010 A 
HETATM   26  C           1     -22.515  -3.748  -8.693  0.00  0.00     0.037 A 
HETATM   27  C           1     -21.690  -3.908  -9.806  0.00  0.00     0.065 A 
HETATM   28  C           1     -20.378  -4.350  -9.645  0.00  0.00     0.037 A 
HETATM   29  C           1     -19.890  -4.633  -8.369  0.00  0.00     0.010 A 
BRANCH  27  30
HETATM   30  O           1     -22.165  -3.633 -11.046  0.00  0.00    -0.361 OA
HETATM   31  H           1     -23.003  -3.150 -10.945  0.00  0.00     0.217 HD
ENDBRANCH  27  30
ENDBRANCH  23  24
ENDBRANCH  22  23
BRANCH  22  32
HETATM   32  N           1     -20.962  -6.958  -6.745  0.00  0.00    -0.066 N 
HETATM   33  H           1     -20.843  -6.345  -7.583  0.00  0.00     0.275 HD
HETATM   34  H           1     -20.373  -7.815  -6.853  0.00  0.00     0.275 HD
HETATM   35  H           1     -21.967  -7.236  -6.657  0.00  0.00     0.275 HD
ENDBRANCH  22  32
ENDBRANCH   2  22
TORSDOF 12
ENDMDL
MODEL 5
REMARK VINA RESULT:      -7.4      3.581      5.186
REMARK  12 active torsions:
REMARK  status: ('A' for Active; 'I' for Inactive)
REMARK    1  A    between atoms: C_1  and  O_27 
REMARK    2  A    between atoms: C_3  and  C_25 
REMARK    3  A    between atoms: C_4  and  C_10 
REMARK    4  A    between atoms: C_4  and  C_5 
REMARK    5  A    between atoms: C_10  and  C_12 
REMARK    6  A    between atoms: C_10  and  N_30 
REMARK       I    between atoms: C_12  and  N_22 
REMARK    7  A    between atoms: O_18  and  P_28 
REMARK    8  A    between atoms: N_22  and  C_35 
REMARK    9  A    between atoms: C_23  and  C_35 
REMARK   10  A    between atoms: C_25  and  C_35 
REMARK   11  A    between atoms: P_28  and  O_34 
REMARK   12  A    between atoms: C_33  and  O_34 
ROOT
HETATM    1  O           1     -19.007 -14.224  -1.536  0.00  0.00    -0.271 OA
HETATM    2  C           1     -19.131 -13.088  -1.147  0.00  0.00     0.249 C 
HETATM    3  H           1     -17.390 -12.030  -0.771  0.00  0.00     0.163 HD
HETATM    4  N           1     -18.158 -12.161  -1.417  0.00  0.00    -0.344 N 
ENDROOT
BRANCH   4   5
HETATM    5  C           1     -18.229 -11.369  -2.630  0.00  0.00     0.189 C 
BRANCH   5   6
HETATM    6  C           1     -17.094 -11.753  -3.547  0.00  0.00     0.197 C 
HETATM    7  O           1     -17.330 -12.359  -4.615  0.00  0.00    -0.646 OA
HETATM    8  O           1     -15.917 -11.467  -3.237  0.00  0.00    -0.646 OA
ENDBRANCH   5   6
BRANCH   5   9
HETATM    9  C           1     -18.119  -9.891  -2.276  0.00  0.00     0.074 C 
BRANCH   9  10
HETATM   10  C           1     -19.163  -9.120  -3.024  0.00  0.00    -0.056 A 
HETATM   11  C           1     -19.180  -9.140  -4.419  0.00  0.00     0.010 A 
HETATM   12  C           1     -20.151  -8.421  -5.114  0.00  0.00     0.038 A 
HETATM   13  C           1     -21.107  -7.684  -4.415  0.00  0.00     0.081 A 
HETATM   14  C           1     -21.091  -7.664  -3.021  0.00  0.00     0.038 A 
HETATM   15  C           1     -20.118  -8.382  -2.324  0.00  0.00     0.010 A 
BRANCH  13  16
HETATM   16  O           1     -22.053  -6.985  -5.091  0.00  0.00    -0.247 OA
BRANCH  16  17
HETATM   17  P           1     -21.570  -5.744  -6.004  0.00  0.00     0.411 P 
HETATM   18  O           1     -20.568  -4.946  -5.263  0.00  0.00    -0.624 OA
HETATM   19  O           1     -22.734  -4.892  -6.332  0.00  0.00    -0.624 OA
BRANCH  17  20
HETATM   20  O           1     -20.911  -6.303  -7.368  0.00  0.00    -0.300 OA
HETATM   21  H           1     -20.591  -5.539  -7.816  0.00  0.00     0.223 HD
ENDBRANCH  17  20
ENDBRANCH  16  17
ENDBRANCH  13  16
ENDBRANCH   9  10
ENDBRANCH   5   9
ENDBRANCH   4   5
BRANCH   2  22
HETATM   22  C           1     -20.356 -12.688  -0.362  0.00  0.00     0.278 C 
BRANCH  22  23
HETATM   23  C           1     -19.991 -11.590   0.627  0.00  0.00     0.081 C 
BRANCH  23  24
HETATM   24  C           1     -21.006 -10.493   0.555  0.00  0.00    -0.056 A 
HETATM   25  C           1     -22.179 -10.676  -0.178  0.00  0.00     0.010 A 
HETATM   26  C           1     -23.126  -9.654  -0.245  0.00  0.00     0.037 A 
HETATM   27  C           1     -22.900  -8.449   0.420  0.00  0.00     0.065 A 
HETATM   28  C           1     -21.728  -8.266   1.153  0.00  0.00     0.037 A 
HETATM   29  C           1     -20.782  -9.288   1.220  0.00  0.00     0.010 A 
BRANCH  27  30
HETATM   30  O           1     -23.820  -7.456   0.353  0.00  0.00    -0.361 OA
HETATM   31  H           1     -23.538  -6.832  -0.337  0.00  0.00     0.217 HD
ENDBRANCH  27  30
ENDBRANCH  23  24
ENDBRANCH  22  23
BRANCH  22  32
HETATM   32  N           1     -20.882 -13.878   0.383  0.00  0.00    -0.066 N 
HETATM   33  H           1     -21.776 -13.623   0.860  0.00  0.00     0.275 HD
HETATM   34  H           1     -21.055 -14.661  -0.287  0.00  0.00     0.275 HD
HETATM   35  H           1     -20.180 -14.180   1.097  0.00  0.00     0.275 HD
ENDBRANCH  22  32
ENDBRANCH   2  22
TORSDOF 12
ENDMDL
MODEL 6
REMARK VINA RESULT:      -7.3      4.276      9.620
REMARK  12 active torsions:
REMARK  status: ('A' for Active; 'I' for Inactive)
REMARK    1  A    between atoms: C_1  and  O_27 
REMARK    2  A    between atoms: C_3  and  C_25 
REMARK    3  A    between atoms: C_4  and  C_10 
REMARK    4  A    between atoms: C_4  and  C_5 
REMARK    5  A    between atoms: C_10  and  C_12 
REMARK    6  A    between atoms: C_10  and  N_30 
REMARK       I    between atoms: C_12  and  N_22 
REMARK    7  A    between atoms: O_18  and  P_28 
REMARK    8  A    between atoms: N_22  and  C_35 
REMARK    9  A    between atoms: C_23  and  C_35 
REMARK   10  A    between atoms: C_25  and  C_35 
REMARK   11  A    between atoms: P_28  and  O_34 
REMARK   12  A    between atoms: C_33  and  O_34 
ROOT
HETATM    1  O           1     -22.237  -6.379  -5.571  0.00  0.00    -0.271 OA
HETATM    2  C           1     -21.036  -6.323  -5.452  0.00  0.00     0.249 C 
HETATM    3  H           1     -20.265  -6.637  -3.556  0.00  0.00     0.163 HD
HETATM    4  N           1     -20.410  -7.045  -4.470  0.00  0.00    -0.344 N 
ENDROOT
BRANCH   4   5
HETATM    5  C           1     -19.957  -8.396  -4.741  0.00  0.00     0.189 C 
BRANCH   5   6
HETATM    6  C           1     -21.150  -9.285  -4.988  0.00  0.00     0.197 C 
HETATM    7  O           1     -21.299  -9.839  -6.099  0.00  0.00    -0.646 OA
HETATM    8  O           1     -21.992  -9.467  -4.082  0.00  0.00    -0.646 OA
ENDBRANCH   5   6
BRANCH   5   9
HETATM    9  C           1     -19.174  -8.917  -3.543  0.00  0.00     0.074 C 
BRANCH   9  10
HETATM   10  C           1     -17.892  -9.532  -4.012  0.00  0.00    -0.056 A 
HETATM   11  C           1     -17.705  -9.804  -5.368  0.00  0.00     0.010 A 
HETATM   12  C           1     -16.511 -10.377  -5.806  0.00  0.00     0.038 A 
HETATM   13  C           1     -15.505 -10.678  -4.888  0.00  0.00     0.081 A 
HETATM   14  C           1     -15.692 -10.408  -3.533  0.00  0.00     0.038 A 
HETATM   15  C           1     -16.886  -9.834  -3.094  0.00  0.00     0.010 A 
BRANCH  13  16
HETATM   16  O           1     -14.344 -11.236  -5.313  0.00  0.00    -0.247 OA
BRANCH  16  17
HETATM   17  P           1     -14.109 -12.808  -5.029  0.00  0.00     0.411 P 
HETATM   18  O           1     -15.417 -13.485  -4.885  0.00  0.00    -0.624 OA
HETATM   19  O           1     -13.329 -12.971  -3.782  0.00  0.00    -0.624 OA
BRANCH  17  20
HETATM   20  O           1     -13.297 -13.462  -6.262  0.00  0.00    -0.300 OA
HETATM   21  H           1     -13.809 -14.207  -6.523  0.00  0.00     0.223 HD
ENDBRANCH  17  20
ENDBRANCH  16  17
ENDBRANCH  13  16
ENDBRANCH   9  10
ENDBRANCH   5   9
ENDBRANCH   4   5
BRANCH   2  22
HETATM   22  C           1     -20.225  -5.459  -6.386  0.00  0.00     0.278 C 
BRANCH  22  23
HETATM   23  C           1     -21.036  -4.229  -6.774  0.00  0.00     0.081 C 
BRANCH  23  24
HETATM   24  C           1     -21.312  -4.257  -8.244  0.00  0.00    -0.056 A 
HETATM   25  C           1     -20.281  -4.016  -9.152  0.00  0.00     0.010 A 
HETATM   26  C           1     -20.539  -4.042 -10.523  0.00  0.00     0.037 A 
HETATM   27  C           1     -21.828  -4.308 -10.985  0.00  0.00     0.065 A 
HETATM   28  C           1     -22.859  -4.549 -10.078  0.00  0.00     0.037 A 
HETATM   29  C           1     -22.601  -4.523  -8.708  0.00  0.00     0.010 A 
BRANCH  27  30
HETATM   30  O           1     -22.078  -4.332 -12.318  0.00  0.00    -0.361 OA
HETATM   31  H           1     -22.260  -5.253 -12.572  0.00  0.00     0.217 HD
ENDBRANCH  27  30
ENDBRANCH  23  24
ENDBRANCH  22  23
BRANCH  22  32
HETATM   32  N           1     -19.882  -6.240  -7.619  0.00  0.00    -0.066 N 
HETATM   33  H           1     -19.162  -5.721  -8.171  0.00  0.00     0.275 HD
HETATM   34  H           1     -19.504  -7.176  -7.345  0.00  0.00     0.275 HD
HETATM   35  H           1     -20.741  -6.369  -8.200  0.00  0.00     0.275 HD
ENDBRANCH  22  32
ENDBRANCH   2  22
TORSDOF 12
ENDMDL
MODEL 7
REMARK VINA RESULT:      -7.3      3.686      9.313
REMARK  12 active torsions:
REMARK  status: ('A' for Active; 'I' for Inactive)
REMARK    1  A    between atoms: C_1  and  O_27 
REMARK    2  A    between atoms: C_3  and  C_25 
REMARK    3  A    between atoms: C_4  and  C_10 
REMARK    4  A    between atoms: C_4  and  C_5 
REMARK    5  A    between atoms: C_10  and  C_12 
REMARK    6  A    between atoms: C_10  and  N_30 
REMARK       I    between atoms: C_12  and  N_22 
REMARK    7  A    between atoms: O_18  and  P_28 
REMARK    8  A    between atoms: N_22  and  C_35 
REMARK    9  A    between atoms: C_23  and  C_35 
REMARK   10  A    between atoms: C_25  and  C_35 
REMARK   11  A    between atoms: P_28  and  O_34 
REMARK   12  A    between atoms: C_33  and  O_34 
ROOT
HETATM    1  O           1     -20.235  -4.789  -4.867  0.00  0.00    -0.271 OA
HETATM    2  C           1     -20.741  -5.650  -5.546  0.00  0.00     0.249 C 
HETATM    3  H           1     -19.675  -7.411  -5.773  0.00  0.00     0.163 HD
HETATM    4  N           1     -20.455  -6.968  -5.304  0.00  0.00    -0.344 N 
ENDROOT
BRANCH   4   5
HETATM    5  C           1     -21.269  -7.728  -4.375  0.00  0.00     0.189 C 
BRANCH   5   6
HETATM    6  C           1     -21.573  -6.880  -3.165  0.00  0.00     0.197 C 
HETATM    7  O           1     -22.577  -6.135  -3.159  0.00  0.00    -0.646 OA
HETATM    8  O           1     -20.819  -6.921  -2.169  0.00  0.00    -0.646 OA
ENDBRANCH   5   6
BRANCH   5   9
HETATM    9  C           1     -20.512  -8.978  -3.943  0.00  0.00     0.074 C 
BRANCH   9  10
HETATM   10  C           1     -21.176 -10.189  -4.522  0.00  0.00    -0.056 A 
HETATM   11  C           1     -22.088 -10.917  -3.757  0.00  0.00     0.010 A 
HETATM   12  C           1     -22.706 -12.045  -4.295  0.00  0.00     0.038 A 
HETATM   13  C           1     -22.413 -12.445  -5.599  0.00  0.00     0.081 A 
HETATM   14  C           1     -21.502 -11.718  -6.364  0.00  0.00     0.038 A 
HETATM   15  C           1     -20.883 -10.589  -5.826  0.00  0.00     0.010 A 
BRANCH  13  16
HETATM   16  O           1     -23.015 -13.541  -6.123  0.00  0.00    -0.247 OA
BRANCH  16  17
HETATM   17  P           1     -22.493 -14.993  -5.645  0.00  0.00     0.411 P 
HETATM   18  O           1     -21.062 -14.907  -5.278  0.00  0.00    -0.624 OA
HETATM   19  O           1     -22.663 -15.964  -6.748  0.00  0.00    -0.624 OA
BRANCH  17  20
HETATM   20  O           1     -23.349 -15.477  -4.364  0.00  0.00    -0.300 OA
HETATM   21  H           1     -24.209 -15.115  -4.494  0.00  0.00     0.223 HD
ENDBRANCH  17  20
ENDBRANCH  16  17
ENDBRANCH  13  16
ENDBRANCH   9  10
ENDBRANCH   5   9
ENDBRANCH   4   5
BRANCH   2  22
HETATM   22  C           1     -21.688  -5.276  -6.659  0.00  0.00     0.278 C 
BRANCH  22  23
HETATM   23  C           1     -21.315  -3.903  -7.203  0.00  0.00     0.081 C 
BRANCH  23  24
HETATM   24  C           1     -21.441  -3.905  -8.694  0.00  0.00    -0.056 A 
HETATM   25  C           1     -20.326  -4.176  -9.487  0.00  0.00     0.010 A 
HETATM   26  C           1     -20.444  -4.178 -10.877  0.00  0.00     0.037 A 
HETATM   27  C           1     -21.676  -3.910 -11.474  0.00  0.00     0.065 A 
HETATM   28  C           1     -22.791  -3.640 -10.681  0.00  0.00     0.037 A 
HETATM   29  C           1     -22.673  -3.637  -9.291  0.00  0.00     0.010 A 
BRANCH  27  30
HETATM   30  O           1     -21.790  -3.912 -12.825  0.00  0.00    -0.361 OA
HETATM   31  H           1     -21.864  -2.989 -13.120  0.00  0.00     0.217 HD
ENDBRANCH  27  30
ENDBRANCH  23  24
ENDBRANCH  22  23
BRANCH  22  32
HETATM   32  N           1     -23.090  -5.240  -6.130  0.00  0.00    -0.066 N 
HETATM   33  H           1     -23.097  -4.784  -5.190  0.00  0.00     0.275 HD
HETATM   34  H           1     -23.697  -4.696  -6.786  0.00  0.00     0.275 HD
HETATM   35  H           1     -23.456  -6.216  -6.047  0.00  0.00     0.275 HD
ENDBRANCH  22  32
ENDBRANCH   2  22
TORSDOF 12
ENDMDL
MODEL 8
REMARK VINA RESULT:      -7.1      4.614      8.631
REMARK  12 active torsions:
REMARK  status: ('A' for Active; 'I' for Inactive)
REMARK    1  A    between atoms: C_1  and  O_27 
REMARK    2  A    between atoms: C_3  and  C_25 
REMARK    3  A    between atoms: C_4  and  C_10 
REMARK    4  A    between atoms: C_4  and  C_5 
REMARK    5  A    between atoms: C_10  and  C_12 
REMARK    6  A    between atoms: C_10  and  N_30 
REMARK       I    between atoms: C_12  and  N_22 
REMARK    7  A    between atoms: O_18  and  P_28 
REMARK    8  A    between atoms: N_22  and  C_35 
REMARK    9  A    between atoms: C_23  and  C_35 
REMARK   10  A    between atoms: C_25  and  C_35 
REMARK   11  A    between atoms: P_28  and  O_34 
REMARK   12  A    between atoms: C_33  and  O_34 
ROOT
HETATM    1  O           1     -21.294  -8.628  -5.653  0.00  0.00    -0.271 OA
HETATM    2  C           1     -20.532  -8.751  -4.724  0.00  0.00     0.249 C 
HETATM    3  H           1     -19.934  -7.017  -3.765  0.00  0.00     0.163 HD
HETATM    4  N           1     -20.534  -7.830  -3.710  0.00  0.00    -0.344 N 
ENDROOT
BRANCH   4   5
HETATM    5  C           1     -21.396  -8.018  -2.560  0.00  0.00     0.189 C 
BRANCH   5   6
HETATM    6  C           1     -21.953  -6.685  -2.126  0.00  0.00     0.197 C 
HETATM    7  O           1     -21.699  -5.655  -2.790  0.00  0.00    -0.646 OA
HETATM    8  O           1     -22.666  -6.608  -1.102  0.00  0.00    -0.646 OA
ENDBRANCH   5   6
BRANCH   5   9
HETATM    9  C           1     -20.592  -8.629  -1.419  0.00  0.00     0.074 C 
BRANCH   9  10
HETATM   10  C           1     -21.341  -9.792  -0.846  0.00  0.00    -0.056 A 
HETATM   11  C           1     -22.606 -10.117  -1.337  0.00  0.00     0.010 A 
HETATM   12  C           1     -23.305 -11.199  -0.803  0.00  0.00     0.038 A 
HETATM   13  C           1     -22.738 -11.957   0.222  0.00  0.00     0.081 A 
HETATM   14  C           1     -21.474 -11.632   0.713  0.00  0.00     0.038 A 
HETATM   15  C           1     -20.775 -10.549   0.180  0.00  0.00     0.010 A 
BRANCH  13  16
HETATM   16  O           1     -23.416 -13.010   0.741  0.00  0.00    -0.247 OA
BRANCH  16  17
HETATM   17  P           1     -23.480 -14.372  -0.124  0.00  0.00     0.411 P 
HETATM   18  O           1     -23.616 -15.530   0.788  0.00  0.00    -0.624 OA
HETATM   19  O           1     -22.238 -14.511  -0.916  0.00  0.00    -0.624 OA
BRANCH  17  20
HETATM   20  O           1     -24.750 -14.319  -1.119  0.00  0.00    -0.300 OA
HETATM   21  H           1     -24.480 -14.793  -1.886  0.00  0.00     0.223 HD
ENDBRANCH  17  20
ENDBRANCH  16  17
ENDBRANCH  13  16
ENDBRANCH   9  10
ENDBRANCH   5   9
ENDBRANCH   4   5
BRANCH   2  22
HETATM   22  C           1     -19.581  -9.921  -4.678  0.00  0.00     0.278 C 
BRANCH  22  23
HETATM   23  C           1     -18.163  -9.414  -4.449  0.00  0.00     0.081 C 
BRANCH  23  24
HETATM   24  C           1     -17.543 -10.161  -3.311  0.00  0.00    -0.056 A 
HETATM   25  C           1     -16.196  -9.969  -3.001  0.00  0.00     0.010 A 
HETATM   26  C           1     -15.619 -10.666  -1.940  0.00  0.00     0.037 A 
HETATM   27  C           1     -16.387 -11.554  -1.187  0.00  0.00     0.065 A 
HETATM   28  C           1     -17.733 -11.747  -1.496  0.00  0.00     0.037 A 
HETATM   29  C           1     -18.311 -11.050  -2.558  0.00  0.00     0.010 A 
BRANCH  27  30
HETATM   30  O           1     -15.825 -12.231  -0.156  0.00  0.00    -0.361 OA
HETATM   31  H           1     -15.044 -11.733   0.139  0.00  0.00     0.217 HD
ENDBRANCH  27  30
ENDBRANCH  23  24
ENDBRANCH  22  23
BRANCH  22  32
HETATM   32  N           1     -19.641 -10.665  -5.978  0.00  0.00    -0.066 N 
HETATM   33  H           1     -19.095 -10.146  -6.703  0.00  0.00     0.275 HD
HETATM   34  H           1     -19.235 -11.620  -5.853  0.00  0.00     0.275 HD
HETATM   35  H           1     -20.637 -10.749  -6.286  0.00  0.00     0.275 HD
ENDBRANCH  22  32
ENDBRANCH   2  22
TORSDOF 12
ENDMDL
MODEL 9
REMARK VINA RESULT:      -7.1      4.048      9.166
REMARK  12 active torsions:
REMARK  status: ('A' for Active; 'I' for Inactive)
REMARK    1  A    between atoms: C_1  and  O_27 
REMARK    2  A    between atoms: C_3  and  C_25 
REMARK    3  A    between atoms: C_4  and  C_10 
REMARK    4  A    between atoms: C_4  and  C_5 
REMARK    5  A    between atoms: C_10  and  C_12 
REMARK    6  A    between atoms: C_10  and  N_30 
REMARK       I    between atoms: C_12  and  N_22 
REMARK    7  A    between atoms: O_18  and  P_28 
REMARK    8  A    between atoms: N_22  and  C_35 
REMARK    9  A    between atoms: C_23  and  C_35 
REMARK   10  A    between atoms: C_25  and  C_35 
REMARK   11  A    between atoms: P_28  and  O_34 
REMARK   12  A    between atoms: C_33  and  O_34 
ROOT
HETATM    1  O           1     -20.180  -4.678  -4.847  0.00  0.00    -0.271 OA
HETATM    2  C           1     -20.635  -5.563  -5.533  0.00  0.00     0.249 C 
HETATM    3  H           1     -19.471  -7.260  -5.765  0.00  0.00     0.163 HD
HETATM    4  N           1     -20.277  -6.864  -5.297  0.00  0.00    -0.344 N 
ENDROOT
BRANCH   4   5
HETATM    5  C           1     -21.051  -7.673  -4.377  0.00  0.00     0.189 C 
BRANCH   5   6
HETATM    6  C           1     -21.606  -6.795  -3.282  0.00  0.00     0.197 C 
HETATM    7  O           1     -22.722  -6.250  -3.423  0.00  0.00    -0.646 OA
HETATM    8  O           1     -20.949  -6.613  -2.235  0.00  0.00    -0.646 OA
ENDBRANCH   5   6
BRANCH   5   9
HETATM    9  C           1     -20.155  -8.743  -3.766  0.00  0.00     0.074 C 
BRANCH   9  10
HETATM   10  C           1     -19.799  -9.754  -4.812  0.00  0.00    -0.056 A 
HETATM   11  C           1     -18.479  -9.871  -5.248  0.00  0.00     0.010 A 
HETATM   12  C           1     -18.147 -10.811  -6.222  0.00  0.00     0.038 A 
HETATM   13  C           1     -19.136 -11.636  -6.759  0.00  0.00     0.081 A 
HETATM   14  C           1     -20.455 -11.519  -6.324  0.00  0.00     0.038 A 
HETATM   15  C           1     -20.788 -10.578  -5.349  0.00  0.00     0.010 A 
BRANCH  13  16
HETATM   16  O           1     -18.814 -12.552  -7.706  0.00  0.00    -0.247 OA
BRANCH  16  17
HETATM   17  P           1     -18.671 -14.095  -7.252  0.00  0.00     0.411 P 
HETATM   18  O           1     -18.181 -14.155  -5.857  0.00  0.00    -0.624 OA
HETATM   19  O           1     -17.712 -14.784  -8.143  0.00  0.00    -0.624 OA
BRANCH  17  20
HETATM   20  O           1     -20.112 -14.819  -7.348  0.00  0.00    -0.300 OA
HETATM   21  H           1     -20.656 -14.362  -6.731  0.00  0.00     0.223 HD
ENDBRANCH  17  20
ENDBRANCH  16  17
ENDBRANCH  13  16
ENDBRANCH   9  10
ENDBRANCH   5   9
ENDBRANCH   4   5
BRANCH   2  22
HETATM   22  C           1     -21.596  -5.235  -6.649  0.00  0.00     0.278 C 
BRANCH  22  23
HETATM   23  C           1     -21.261  -3.865  -7.223  0.00  0.00     0.081 C 
BRANCH  23  24
HETATM   24  C           1     -21.416  -3.895  -8.711  0.00  0.00    -0.056 A 
HETATM   25  C           1     -20.300  -4.088  -9.525  0.00  0.00     0.010 A 
HETATM   26  C           1     -20.446  -4.117 -10.912  0.00  0.00     0.037 A 
HETATM   27  C           1     -21.707  -3.952 -11.485  0.00  0.00     0.065 A 
HETATM   28  C           1     -22.823  -3.759 -10.672  0.00  0.00     0.037 A 
HETATM   29  C           1     -22.677  -3.731  -9.285  0.00  0.00     0.010 A 
BRANCH  27  30
HETATM   30  O           1     -21.848  -3.979 -12.833  0.00  0.00    -0.361 OA
HETATM   31  H           1     -21.758  -4.902 -13.125  0.00  0.00     0.217 HD
ENDBRANCH  27  30
ENDBRANCH  23  24
ENDBRANCH  22  23
BRANCH  22  32
HETATM   32  N           1     -22.997  -5.223  -6.113  0.00  0.00    -0.066 N 
HETATM   33  H           1     -23.593  -4.607  -6.711  0.00  0.00     0.275 HD
HETATM   34  H           1     -23.382  -6.194  -6.121  0.00  0.00     0.275 HD
HETATM   35  H           1     -22.992  -4.858  -5.133  0.00  0.00     0.275 HD
ENDBRANCH  22  32
ENDBRANCH   2  22
TORSDOF 12
ENDMDL
