MODEL 1
REMARK VINA RESULT:      -7.4      0.000      0.000
REMARK  15 active torsions:
REMARK  status: ('A' for Active; 'I' for Inactive)
REMARK    1  A    between atoms: N_6  and  C_20 
REMARK    2  A    between atoms: N_6  and  C_7 
REMARK    3  A    between atoms: C_7  and  C_8 
REMARK    4  A    between atoms: C_8  and  C_38 
REMARK    5  A    between atoms: N_9  and  C_38 
REMARK       I    between atoms: N_9  and  C_28 
REMARK    6  A    between atoms: C_18  and  C_19 
REMARK    7  A    between atoms: C_19  and  C_20 
REMARK    8  A    between atoms: C_20  and  C_22 
REMARK    9  A    between atoms: C_28  and  C_29 
REMARK   10  A    between atoms: C_29  and  C_30 
REMARK   11  A    between atoms: C_29  and  N_37 
REMARK   12  A    between atoms: C_30  and  C_31 
REMARK   13  A    between atoms: C_31  and  C_32 
REMARK   14  A    between atoms: C_32  and  N_33 
REMARK       I    between atoms: N_33  and  C_34 
REMARK       I    between atoms: C_34  and  N_35 
REMARK   15  A    between atoms: C_38  and  C_39 
ROOT
HETATM    1  N           1     -34.805  -1.959 -16.330  0.00  0.00    -0.345 N 
HETATM    2  O           1     -34.514  -3.637 -14.885  0.00  0.00    -0.271 OA
HETATM    3  H           1     -34.599  -1.566 -17.240  0.00  0.00     0.163 HD
HETATM    4  C           1     -34.268  -3.167 -15.970  0.00  0.00     0.249 C 
ENDROOT
BRANCH   1   5
HETATM    5  C           1     -35.666  -1.245 -15.409  0.00  0.00     0.187 C 
BRANCH   5   6
HETATM    6  C           1     -34.826  -0.303 -14.556  0.00  0.00     0.066 C 
BRANCH   6   7
HETATM    7  C           1     -35.499  -0.106 -13.204  0.00  0.00     0.273 C 
BRANCH   7   8
HETATM    8  N           1     -34.544  -0.336 -12.153  0.00  0.00     0.098 N 
HETATM    9  H           1     -34.693   0.343 -11.406  0.00  0.00     0.317 HD
BRANCH   8  10
HETATM   10  C           1     -34.762  -1.664 -11.647  0.00  0.00     0.325 C 
BRANCH  10  11
HETATM   11  C           1     -33.478  -2.180 -11.011  0.00  0.00     0.105 C 
BRANCH  11  12
HETATM   12  C           1     -33.431  -3.673 -11.119  0.00  0.00     0.028 A 
HETATM   13  N           1     -34.211  -4.531 -10.391  0.00  0.00    -0.355 N 
HETATM   14  C           1     -33.863  -5.735 -10.783  0.00  0.00     0.180 A 
ATOM     15  HN          1     -34.913  -4.287  -9.691  1.00  0.00     0.166 HD
HETATM   16  N           1     -32.887  -5.686 -11.739  0.00  0.00    -0.360 N 
HETATM   17  C           1     -32.600  -4.369 -11.966  0.00  0.00     0.114 A 
HETATM   18  H           1     -32.441  -6.510 -12.212  0.00  0.00     0.166 HD
ENDBRANCH  11  12
ENDBRANCH  10  11
BRANCH  10  19
HETATM   19  C           1     -35.860  -1.633 -10.612  0.00  0.00     0.207 C 
HETATM   20  O           1     -36.716  -2.542 -10.583  0.00  0.00    -0.646 OA
HETATM   21  O           1     -35.911  -0.699  -9.784  0.00  0.00    -0.646 OA
ENDBRANCH  10  19
ENDBRANCH   8  10
ENDBRANCH   7   8
ENDBRANCH   6   7
ENDBRANCH   5   6
BRANCH   5  22
HETATM   22  C           1     -36.683  -0.447 -16.188  0.00  0.00     0.196 C 
HETATM   23  O           1     -36.526   0.783 -16.342  0.00  0.00    -0.646 OA
HETATM   24  O           1     -37.681  -1.016 -16.681  0.00  0.00    -0.646 OA
ENDBRANCH   5  22
ENDBRANCH   1   5
BRANCH   4  25
HETATM   25  C           1     -33.371  -3.909 -16.929  0.00  0.00     0.274 C 
BRANCH  25  26
HETATM   26  C           1     -32.435  -4.822 -16.146  0.00  0.00     0.044 C 
BRANCH  26  27
HETATM   27  C           1     -31.005  -4.613 -16.624  0.00  0.00     0.023 C 
BRANCH  27  28
HETATM   28  C           1     -30.165  -5.832 -16.265  0.00  0.00     0.138 C 
BRANCH  28  29
HETATM   29  N           1     -30.462  -6.925 -17.202  0.00  0.00    -0.227 N 
HETATM   30  H           1     -31.433  -7.322 -17.256  0.00  0.00     0.177 HD
HETATM   31  C           1     -29.547  -7.388 -17.945  0.00  0.00     0.665 C 
HETATM   32  N           1     -29.802  -8.329 -18.752  0.00  0.00    -0.235 N 
HETATM   33  N           1     -28.345  -6.897 -17.877  0.00  0.00    -0.235 N 
HETATM   34  H           1     -29.043  -8.713 -19.368  0.00  0.00     0.174 HD
HETATM   35  H           1     -30.773  -8.725 -18.806  0.00  0.00     0.174 HD
HETATM   36  H           1     -27.590  -7.279 -18.490  0.00  0.00     0.174 HD
HETATM   37  H           1     -28.134  -6.121 -17.210  0.00  0.00     0.174 HD
ENDBRANCH  28  29
ENDBRANCH  27  28
ENDBRANCH  26  27
ENDBRANCH  25  26
BRANCH  25  38
HETATM   38  N           1     -32.561  -2.925 -17.720  0.00  0.00    -0.067 N 
HETATM   39  H           1     -31.581  -3.275 -17.811  0.00  0.00     0.275 HD
HETATM   40  H           1     -32.559  -2.003 -17.229  0.00  0.00     0.275 HD
HETATM   41  H           1     -32.980  -2.812 -18.670  0.00  0.00     0.275 HD
ENDBRANCH  25  38
ENDBRANCH   4  25
TORSDOF 15
ENDMDL
MODEL 2
REMARK VINA RESULT:      -7.1      2.682      4.001
REMARK  15 active torsions:
REMARK  status: ('A' for Active; 'I' for Inactive)
REMARK    1  A    between atoms: N_6  and  C_20 
REMARK    2  A    between atoms: N_6  and  C_7 
REMARK    3  A    between atoms: C_7  and  C_8 
REMARK    4  A    between atoms: C_8  and  C_38 
REMARK    5  A    between atoms: N_9  and  C_38 
REMARK       I    between atoms: N_9  and  C_28 
REMARK    6  A    between atoms: C_18  and  C_19 
REMARK    7  A    between atoms: C_19  and  C_20 
REMARK    8  A    between atoms: C_20  and  C_22 
REMARK    9  A    between atoms: C_28  and  C_29 
REMARK   10  A    between atoms: C_29  and  C_30 
REMARK   11  A    between atoms: C_29  and  N_37 
REMARK   12  A    between atoms: C_30  and  C_31 
REMARK   13  A    between atoms: C_31  and  C_32 
REMARK   14  A    between atoms: C_32  and  N_33 
REMARK       I    between atoms: N_33  and  C_34 
REMARK       I    between atoms: C_34  and  N_35 
REMARK   15  A    between atoms: C_38  and  C_39 
ROOT
HETATM    1  N           1     -31.783  -4.621 -15.784  0.00  0.00    -0.345 N 
HETATM    2  O           1     -30.986  -5.901 -17.432  0.00  0.00    -0.271 OA
HETATM    3  H           1     -31.610  -4.144 -14.908  0.00  0.00     0.163 HD
HETATM    4  C           1     -30.779  -5.333 -16.387  0.00  0.00     0.249 C 
ENDROOT
BRANCH   1   5
HETATM    5  C           1     -33.093  -4.551 -16.401  0.00  0.00     0.187 C 
BRANCH   5   6
HETATM    6  C           1     -34.164  -4.546 -15.318  0.00  0.00     0.066 C 
BRANCH   6   7
HETATM    7  C           1     -33.509  -4.341 -13.958  0.00  0.00     0.273 C 
BRANCH   7   8
HETATM    8  N           1     -34.174  -3.275 -13.260  0.00  0.00     0.098 N 
HETATM    9  H           1     -34.972  -2.956 -13.809  0.00  0.00     0.317 HD
BRANCH   8  10
HETATM   10  C           1     -34.635  -3.796 -12.001  0.00  0.00     0.325 C 
BRANCH  10  11
HETATM   11  C           1     -33.485  -4.499 -11.292  0.00  0.00     0.105 C 
BRANCH  11  12
HETATM   12  C           1     -33.964  -5.803 -10.732  0.00  0.00     0.028 A 
HETATM   13  N           1     -33.368  -7.015 -10.961  0.00  0.00    -0.355 N 
HETATM   14  C           1     -34.090  -7.888 -10.297  0.00  0.00     0.180 A 
ATOM     15  HN          1     -32.540  -7.200 -11.528  1.00  0.00     0.166 HD
HETATM   16  N           1     -35.130  -7.284  -9.647  0.00  0.00    -0.360 N 
HETATM   17  C           1     -35.062  -5.946  -9.916  0.00  0.00     0.114 A 
HETATM   18  H           1     -35.848  -7.762  -9.049  0.00  0.00     0.166 HD
ENDBRANCH  11  12
ENDBRANCH  10  11
BRANCH  10  19
HETATM   19  C           1     -35.139  -2.662 -11.142  0.00  0.00     0.207 C 
HETATM   20  O           1     -34.364  -1.744 -10.803  0.00  0.00    -0.646 OA
HETATM   21  O           1     -36.332  -2.644 -10.770  0.00  0.00    -0.646 OA
ENDBRANCH  10  19
ENDBRANCH   8  10
ENDBRANCH   7   8
ENDBRANCH   6   7
ENDBRANCH   5   6
BRANCH   5  22
HETATM   22  C           1     -33.196  -3.285 -17.216  0.00  0.00     0.196 C 
HETATM   23  O           1     -32.250  -2.938 -17.955  0.00  0.00    -0.646 OA
HETATM   24  O           1     -34.229  -2.583 -17.153  0.00  0.00    -0.646 OA
ENDBRANCH   5  22
ENDBRANCH   1   5
BRANCH   4  25
HETATM   25  C           1     -29.417  -5.406 -15.743  0.00  0.00     0.274 C 
BRANCH  25  26
HETATM   26  C           1     -28.523  -6.338 -16.551  0.00  0.00     0.044 C 
BRANCH  26  27
HETATM   27  C           1     -27.631  -7.132 -15.605  0.00  0.00     0.023 C 
BRANCH  27  28
HETATM   28  C           1     -26.187  -6.674 -15.765  0.00  0.00     0.138 C 
BRANCH  28  29
HETATM   29  N           1     -25.792  -6.779 -17.177  0.00  0.00    -0.227 N 
HETATM   30  H           1     -26.436  -6.430 -17.930  0.00  0.00     0.177 HD
HETATM   31  C           1     -24.674  -7.288 -17.486  0.00  0.00     0.665 C 
HETATM   32  N           1     -24.334  -7.378 -18.702  0.00  0.00    -0.235 N 
HETATM   33  N           1     -23.878  -7.719 -16.554  0.00  0.00    -0.235 N 
HETATM   34  H           1     -23.408  -7.801 -18.957  0.00  0.00     0.174 HD
HETATM   35  H           1     -24.978  -7.030 -19.454  0.00  0.00     0.174 HD
HETATM   36  H           1     -22.956  -8.140 -16.808  0.00  0.00     0.174 HD
HETATM   37  H           1     -24.159  -7.645 -15.550  0.00  0.00     0.174 HD
ENDBRANCH  28  29
ENDBRANCH  27  28
ENDBRANCH  26  27
ENDBRANCH  25  26
BRANCH  25  38
HETATM   38  N           1     -29.551  -5.931 -14.345  0.00  0.00    -0.067 N 
HETATM   39  H           1     -30.529  -5.781 -14.009  0.00  0.00     0.275 HD
HETATM   40  H           1     -28.885  -5.426 -13.719  0.00  0.00     0.275 HD
HETATM   41  H           1     -29.332  -6.952 -14.333  0.00  0.00     0.275 HD
ENDBRANCH  25  38
ENDBRANCH   4  25
TORSDOF 15
ENDMDL
MODEL 3
REMARK VINA RESULT:      -7.0     14.713     17.096
REMARK  15 active torsions:
REMARK  status: ('A' for Active; 'I' for Inactive)
REMARK    1  A    between atoms: N_6  and  C_20 
REMARK    2  A    between atoms: N_6  and  C_7 
REMARK    3  A    between atoms: C_7  and  C_8 
REMARK    4  A    between atoms: C_8  and  C_38 
REMARK    5  A    between atoms: N_9  and  C_38 
REMARK       I    between atoms: N_9  and  C_28 
REMARK    6  A    between atoms: C_18  and  C_19 
REMARK    7  A    between atoms: C_19  and  C_20 
REMARK    8  A    between atoms: C_20  and  C_22 
REMARK    9  A    between atoms: C_28  and  C_29 
REMARK   10  A    between atoms: C_29  and  C_30 
REMARK   11  A    between atoms: C_29  and  N_37 
REMARK   12  A    between atoms: C_30  and  C_31 
REMARK   13  A    between atoms: C_31  and  C_32 
REMARK   14  A    between atoms: C_32  and  N_33 
REMARK       I    between atoms: N_33  and  C_34 
REMARK       I    between atoms: C_34  and  N_35 
REMARK   15  A    between atoms: C_38  and  C_39 
ROOT
HETATM    1  N           1     -21.502  -8.379  -5.103  0.00  0.00    -0.345 N 
HETATM    2  O           1     -19.769  -7.344  -6.061  0.00  0.00    -0.271 OA
HETATM    3  H           1     -22.485  -8.363  -4.865  0.00  0.00     0.163 HD
HETATM    4  C           1     -20.943  -7.325  -5.777  0.00  0.00     0.249 C 
ENDROOT
BRANCH   1   5
HETATM    5  C           1     -20.684  -9.516  -4.731  0.00  0.00     0.187 C 
BRANCH   5   6
HETATM    6  C           1     -20.742  -9.710  -3.221  0.00  0.00     0.066 C 
BRANCH   6   7
HETATM    7  C           1     -19.529  -9.051  -2.578  0.00  0.00     0.273 C 
BRANCH   7   8
HETATM    8  N           1     -19.957  -7.946  -1.763  0.00  0.00     0.098 N 
HETATM    9  H           1     -19.892  -7.082  -2.302  0.00  0.00     0.317 HD
BRANCH   8  10
HETATM   10  C           1     -21.326  -8.179  -1.393  0.00  0.00     0.325 C 
BRANCH  10  11
HETATM   11  C           1     -21.386  -8.674   0.046  0.00  0.00     0.105 C 
BRANCH  11  12
HETATM   12  C           1     -22.140  -9.966   0.101  0.00  0.00     0.028 A 
HETATM   13  N           1     -23.475 -10.101  -0.179  0.00  0.00    -0.355 N 
HETATM   14  C           1     -23.736 -11.377  -0.015  0.00  0.00     0.180 A 
ATOM     15  HN          1     -24.127  -9.366  -0.455  1.00  0.00     0.166 HD
HETATM   16  N           1     -22.620 -12.072   0.359  0.00  0.00    -0.360 N 
HETATM   17  C           1     -21.587 -11.179   0.438  0.00  0.00     0.114 A 
HETATM   18  H           1     -22.566 -13.102   0.551  0.00  0.00     0.166 HD
ENDBRANCH  11  12
ENDBRANCH  10  11
BRANCH  10  19
HETATM   19  C           1     -22.107  -6.893  -1.517  0.00  0.00     0.207 C 
HETATM   20  O           1     -21.973  -6.177  -2.532  0.00  0.00    -0.646 OA
HETATM   21  O           1     -22.886  -6.546  -0.604  0.00  0.00    -0.646 OA
ENDBRANCH  10  19
ENDBRANCH   8  10
ENDBRANCH   7   8
ENDBRANCH   6   7
ENDBRANCH   5   6
BRANCH   5  22
HETATM   22  C           1     -21.205 -10.755  -5.417  0.00  0.00     0.196 C 
HETATM   23  O           1     -21.134 -10.857  -6.661  0.00  0.00    -0.646 OA
HETATM   24  O           1     -21.706 -11.680  -4.742  0.00  0.00    -0.646 OA
ENDBRANCH   5  22
ENDBRANCH   1   5
BRANCH   4  25
HETATM   25  C           1     -21.795  -6.141  -6.163  0.00  0.00     0.274 C 
BRANCH  25  26
HETATM   26  C           1     -20.938  -4.882  -6.179  0.00  0.00     0.044 C 
BRANCH  26  27
HETATM   27  C           1     -21.576  -3.845  -7.093  0.00  0.00     0.023 C 
BRANCH  27  28
HETATM   28  C           1     -22.311  -4.550  -8.227  0.00  0.00     0.138 C 
BRANCH  28  29
HETATM   29  N           1     -23.653  -3.970  -8.377  0.00  0.00    -0.227 N 
HETATM   30  H           1     -24.125  -3.518  -7.555  0.00  0.00     0.177 HD
HETATM   31  C           1     -24.241  -4.016  -9.498  0.00  0.00     0.665 C 
HETATM   32  N           1     -25.397  -3.517  -9.627  0.00  0.00    -0.235 N 
HETATM   33  N           1     -23.657  -4.576 -10.515  0.00  0.00    -0.235 N 
HETATM   34  H           1     -25.884  -3.555 -10.557  0.00  0.00     0.174 HD
HETATM   35  H           1     -25.868  -3.064  -8.805  0.00  0.00     0.174 HD
HETATM   36  H           1     -24.142  -4.614 -11.440  0.00  0.00     0.174 HD
HETATM   37  H           1     -22.703  -4.989 -10.408  0.00  0.00     0.174 HD
ENDBRANCH  28  29
ENDBRANCH  27  28
ENDBRANCH  26  27
ENDBRANCH  25  26
BRANCH  25  38
HETATM   38  N           1     -22.904  -5.976  -5.166  0.00  0.00    -0.067 N 
HETATM   39  H           1     -23.730  -6.541  -5.469  0.00  0.00     0.275 HD
HETATM   40  H           1     -23.172  -4.968  -5.109  0.00  0.00     0.275 HD
HETATM   41  H           1     -22.582  -6.305  -4.228  0.00  0.00     0.275 HD
ENDBRANCH  25  38
ENDBRANCH   4  25
TORSDOF 15
ENDMDL
MODEL 4
REMARK VINA RESULT:      -7.0      2.519      4.496
REMARK  15 active torsions:
REMARK  status: ('A' for Active; 'I' for Inactive)
REMARK    1  A    between atoms: N_6  and  C_20 
REMARK    2  A    between atoms: N_6  and  C_7 
REMARK    3  A    between atoms: C_7  and  C_8 
REMARK    4  A    between atoms: C_8  and  C_38 
REMARK    5  A    between atoms: N_9  and  C_38 
REMARK       I    between atoms: N_9  and  C_28 
REMARK    6  A    between atoms: C_18  and  C_19 
REMARK    7  A    between atoms: C_19  and  C_20 
REMARK    8  A    between atoms: C_20  and  C_22 
REMARK    9  A    between atoms: C_28  and  C_29 
REMARK   10  A    between atoms: C_29  and  C_30 
REMARK   11  A    between atoms: C_29  and  N_37 
REMARK   12  A    between atoms: C_30  and  C_31 
REMARK   13  A    between atoms: C_31  and  C_32 
REMARK   14  A    between atoms: C_32  and  N_33 
REMARK       I    between atoms: N_33  and  C_34 
REMARK       I    between atoms: C_34  and  N_35 
REMARK   15  A    between atoms: C_38  and  C_39 
ROOT
HETATM    1  N           1     -32.513  -4.408 -16.552  0.00  0.00    -0.345 N 
HETATM    2  O           1     -31.098  -2.857 -17.315  0.00  0.00    -0.271 OA
HETATM    3  H           1     -32.724  -5.390 -16.429  0.00  0.00     0.163 HD
HETATM    4  C           1     -31.350  -4.029 -17.170  0.00  0.00     0.249 C 
ENDROOT
BRANCH   1   5
HETATM    5  C           1     -33.440  -3.402 -16.073  0.00  0.00     0.187 C 
BRANCH   5   6
HETATM    6  C           1     -34.256  -2.867 -17.243  0.00  0.00     0.066 C 
BRANCH   6   7
HETATM    7  C           1     -35.353  -1.949 -16.719  0.00  0.00     0.273 C 
BRANCH   7   8
HETATM    8  N           1     -34.762  -0.869 -15.976  0.00  0.00     0.098 N 
HETATM    9  H           1     -34.481  -0.128 -16.620  0.00  0.00     0.317 HD
BRANCH   8  10
HETATM   10  C           1     -35.758  -0.365 -15.069  0.00  0.00     0.325 C 
BRANCH  10  11
HETATM   11  C           1     -35.073   0.328 -13.898  0.00  0.00     0.105 C 
BRANCH  11  12
HETATM   12  C           1     -35.495  -0.321 -12.617  0.00  0.00     0.028 A 
HETATM   13  N           1     -34.695  -1.129 -11.853  0.00  0.00    -0.355 N 
HETATM   14  C           1     -35.437  -1.484 -10.829  0.00  0.00     0.180 A 
ATOM     15  HN          1     -33.729  -1.399 -12.040  1.00  0.00     0.166 HD
HETATM   16  N           1     -36.686  -0.934 -10.903  0.00  0.00    -0.360 N 
HETATM   17  C           1     -36.738  -0.184 -12.045  0.00  0.00     0.114 A 
HETATM   18  H           1     -37.463  -1.064 -10.209  0.00  0.00     0.166 HD
ENDBRANCH  11  12
ENDBRANCH  10  11
BRANCH  10  19
HETATM   19  C           1     -36.642   0.622 -15.792  0.00  0.00     0.207 C 
HETATM   20  O           1     -37.833   0.334 -16.031  0.00  0.00    -0.646 OA
HETATM   21  O           1     -36.181   1.727 -16.150  0.00  0.00    -0.646 OA
ENDBRANCH  10  19
ENDBRANCH   8  10
ENDBRANCH   7   8
ENDBRANCH   6   7
ENDBRANCH   5   6
BRANCH   5  22
HETATM   22  C           1     -34.366  -4.017 -15.053  0.00  0.00     0.196 C 
HETATM   23  O           1     -34.482  -3.500 -13.921  0.00  0.00    -0.646 OA
HETATM   24  O           1     -35.019  -5.045 -15.340  0.00  0.00    -0.646 OA
ENDBRANCH   5  22
ENDBRANCH   1   5
BRANCH   4  25
HETATM   25  C           1     -30.387  -5.077 -17.669  0.00  0.00     0.274 C 
BRANCH  25  26
HETATM   26  C           1     -29.555  -5.598 -16.504  0.00  0.00     0.044 C 
BRANCH  26  27
HETATM   27  C           1     -28.100  -5.192 -16.697  0.00  0.00     0.023 C 
BRANCH  27  28
HETATM   28  C           1     -27.193  -6.224 -16.039  0.00  0.00     0.138 C 
BRANCH  28  29
HETATM   29  N           1     -26.207  -6.705 -17.017  0.00  0.00    -0.227 N 
HETATM   30  H           1     -26.465  -6.773 -18.032  0.00  0.00     0.177 HD
HETATM   31  C           1     -25.045  -7.037 -16.635  0.00  0.00     0.665 C 
HETATM   32  N           1     -24.196  -7.451 -17.477  0.00  0.00    -0.235 N 
HETATM   33  N           1     -24.727  -6.952 -15.378  0.00  0.00    -0.235 N 
HETATM   34  H           1     -23.234  -7.726 -17.160  0.00  0.00     0.174 HD
HETATM   35  H           1     -24.454  -7.519 -18.493  0.00  0.00     0.174 HD
HETATM   36  H           1     -23.769  -7.225 -15.063  0.00  0.00     0.174 HD
HETATM   37  H           1     -25.428  -6.610 -14.682  0.00  0.00     0.174 HD
ENDBRANCH  28  29
ENDBRANCH  27  28
ENDBRANCH  26  27
ENDBRANCH  25  26
BRANCH  25  38
HETATM   38  N           1     -29.479  -4.473 -18.699  0.00  0.00    -0.067 N 
HETATM   39  H           1     -28.813  -5.200 -19.045  0.00  0.00     0.275 HD
HETATM   40  H           1     -28.944  -3.684 -18.270  0.00  0.00     0.275 HD
HETATM   41  H           1     -30.048  -4.113 -19.498  0.00  0.00     0.275 HD
ENDBRANCH  25  38
ENDBRANCH   4  25
TORSDOF 15
ENDMDL
MODEL 5
REMARK VINA RESULT:      -6.8     14.072     17.044
REMARK  15 active torsions:
REMARK  status: ('A' for Active; 'I' for Inactive)
REMARK    1  A    between atoms: N_6  and  C_20 
REMARK    2  A    between atoms: N_6  and  C_7 
REMARK    3  A    between atoms: C_7  and  C_8 
REMARK    4  A    between atoms: C_8  and  C_38 
REMARK    5  A    between atoms: N_9  and  C_38 
REMARK       I    between atoms: N_9  and  C_28 
REMARK    6  A    between atoms: C_18  and  C_19 
REMARK    7  A    between atoms: C_19  and  C_20 
REMARK    8  A    between atoms: C_20  and  C_22 
REMARK    9  A    between atoms: C_28  and  C_29 
REMARK   10  A    between atoms: C_29  and  C_30 
REMARK   11  A    between atoms: C_29  and  N_37 
REMARK   12  A    between atoms: C_30  and  C_31 
REMARK   13  A    between atoms: C_31  and  C_32 
REMARK   14  A    between atoms: C_32  and  N_33 
REMARK       I    between atoms: N_33  and  C_34 
REMARK       I    between atoms: C_34  and  N_35 
REMARK   15  A    between atoms: C_38  and  C_39 
ROOT
HETATM    1  N           1     -21.661  -8.756  -4.057  0.00  0.00    -0.345 N 
HETATM    2  O           1     -20.132  -9.043  -5.659  0.00  0.00    -0.271 OA
HETATM    3  H           1     -22.352  -9.173  -3.446  0.00  0.00     0.163 HD
HETATM    4  C           1     -20.957  -9.541  -4.931  0.00  0.00     0.249 C 
ENDROOT
BRANCH   1   5
HETATM    5  C           1     -21.417  -7.328  -4.007  0.00  0.00     0.187 C 
BRANCH   5   6
HETATM    6  C           1     -22.395  -6.614  -4.931  0.00  0.00     0.066 C 
BRANCH   6   7
HETATM    7  C           1     -21.642  -5.595  -5.778  0.00  0.00     0.273 C 
BRANCH   7   8
HETATM    8  N           1     -21.062  -6.252  -6.917  0.00  0.00     0.098 N 
HETATM    9  H           1     -21.515  -7.155  -7.056  0.00  0.00     0.317 HD
BRANCH   8  10
HETATM   10  C           1     -21.291  -5.419  -8.066  0.00  0.00     0.325 C 
BRANCH  10  11
HETATM   11  C           1     -22.271  -4.311  -7.702  0.00  0.00     0.105 C 
BRANCH  11  12
HETATM   12  C           1     -23.262  -4.134  -8.810  0.00  0.00     0.028 A 
HETATM   13  N           1     -24.338  -3.287  -8.765  0.00  0.00    -0.355 N 
HETATM   14  C           1     -24.941  -3.431  -9.923  0.00  0.00     0.180 A 
ATOM     15  HN          1     -24.613  -2.676  -7.996  1.00  0.00     0.166 HD
HETATM   16  N           1     -24.295  -4.339 -10.714  0.00  0.00    -0.360 N 
HETATM   17  C           1     -23.214  -4.798 -10.014  0.00  0.00     0.114 A 
HETATM   18  H           1     -24.577  -4.629 -11.683  0.00  0.00     0.166 HD
ENDBRANCH  11  12
ENDBRANCH  10  11
BRANCH  10  19
HETATM   19  C           1     -19.985  -4.809  -8.514  0.00  0.00     0.207 C 
HETATM   20  O           1     -19.100  -4.542  -7.674  0.00  0.00    -0.646 OA
HETATM   21  O           1     -19.791  -4.571  -9.725  0.00  0.00    -0.646 OA
ENDBRANCH  10  19
ENDBRANCH   8  10
ENDBRANCH   7   8
ENDBRANCH   6   7
ENDBRANCH   5   6
BRANCH   5  22
HETATM   22  C           1     -21.609  -6.835  -2.593  0.00  0.00     0.196 C 
HETATM   23  O           1     -20.951  -7.342  -1.660  0.00  0.00    -0.646 OA
HETATM   24  O           1     -22.426  -5.918  -2.356  0.00  0.00    -0.646 OA
ENDBRANCH   5  22
ENDBRANCH   1   5
BRANCH   4  25
HETATM   25  C           1     -21.212 -11.027  -4.983  0.00  0.00     0.274 C 
BRANCH  25  26
HETATM   26  C           1     -22.439 -11.361  -4.145  0.00  0.00     0.044 C 
BRANCH  26  27
HETATM   27  C           1     -22.100 -12.481  -3.170  0.00  0.00     0.023 C 
BRANCH  27  28
HETATM   28  C           1     -22.767 -12.206  -1.829  0.00  0.00     0.138 C 
BRANCH  28  29
HETATM   29  N           1     -22.402 -10.860  -1.366  0.00  0.00    -0.227 N 
HETATM   30  H           1     -21.541 -10.390  -1.742  0.00  0.00     0.177 HD
HETATM   31  C           1     -23.127 -10.265  -0.514  0.00  0.00     0.665 C 
HETATM   32  N           1     -22.813  -9.105  -0.116  0.00  0.00    -0.235 N 
HETATM   33  N           1     -24.193 -10.846  -0.050  0.00  0.00    -0.235 N 
HETATM   34  H           1     -23.415  -8.612   0.589  0.00  0.00     0.174 HD
HETATM   35  H           1     -21.953  -8.636  -0.492  0.00  0.00     0.174 HD
HETATM   36  H           1     -24.791 -10.355   0.652  0.00  0.00     0.174 HD
HETATM   37  H           1     -24.451 -11.804  -0.379  0.00  0.00     0.174 HD
ENDBRANCH  28  29
ENDBRANCH  27  28
ENDBRANCH  26  27
ENDBRANCH  25  26
BRANCH  25  38
HETATM   38  N           1     -20.022 -11.759  -4.438  0.00  0.00    -0.067 N 
HETATM   39  H           1     -20.040 -12.749  -4.771  0.00  0.00     0.275 HD
HETATM   40  H           1     -20.052 -11.741  -3.394  0.00  0.00     0.275 HD
HETATM   41  H           1     -19.146 -11.296  -4.768  0.00  0.00     0.275 HD
ENDBRANCH  25  38
ENDBRANCH   4  25
TORSDOF 15
ENDMDL
MODEL 6
REMARK VINA RESULT:      -6.8     14.494     16.702
REMARK  15 active torsions:
REMARK  status: ('A' for Active; 'I' for Inactive)
REMARK    1  A    between atoms: N_6  and  C_20 
REMARK    2  A    between atoms: N_6  and  C_7 
REMARK    3  A    between atoms: C_7  and  C_8 
REMARK    4  A    between atoms: C_8  and  C_38 
REMARK    5  A    between atoms: N_9  and  C_38 
REMARK       I    between atoms: N_9  and  C_28 
REMARK    6  A    between atoms: C_18  and  C_19 
REMARK    7  A    between atoms: C_19  and  C_20 
REMARK    8  A    between atoms: C_20  and  C_22 
REMARK    9  A    between atoms: C_28  and  C_29 
REMARK   10  A    between atoms: C_29  and  C_30 
REMARK   11  A    between atoms: C_29  and  N_37 
REMARK   12  A    between atoms: C_30  and  C_31 
REMARK   13  A    between atoms: C_31  and  C_32 
REMARK   14  A    between atoms: C_32  and  N_33 
REMARK       I    between atoms: N_33  and  C_34 
REMARK       I    between atoms: C_34  and  N_35 
REMARK   15  A    between atoms: C_38  and  C_39 
ROOT
HETATM    1  N           1     -21.439  -6.463  -5.735  0.00  0.00    -0.345 N 
HETATM    2  O           1     -19.964  -4.786  -5.712  0.00  0.00    -0.271 OA
HETATM    3  H           1     -22.240  -6.895  -6.179  0.00  0.00     0.163 HD
HETATM    4  C           1     -20.919  -5.301  -6.242  0.00  0.00     0.249 C 
ENDROOT
BRANCH   1   5
HETATM    5  C           1     -20.843  -7.072  -4.563  0.00  0.00     0.187 C 
BRANCH   5   6
HETATM    6  C           1     -21.890  -7.187  -3.463  0.00  0.00     0.066 C 
BRANCH   6   7
HETATM    7  C           1     -21.276  -6.773  -2.132  0.00  0.00     0.273 C 
BRANCH   7   8
HETATM    8  N           1     -20.660  -7.914  -1.510  0.00  0.00     0.098 N 
HETATM    9  H           1     -20.100  -7.605  -0.715  0.00  0.00     0.317 HD
BRANCH   8  10
HETATM   10  C           1     -21.710  -8.782  -1.051  0.00  0.00     0.325 C 
BRANCH  10  11
HETATM   11  C           1     -21.190 -10.211  -0.975  0.00  0.00     0.105 C 
BRANCH  11  12
HETATM   12  C           1     -21.375 -10.882  -2.301  0.00  0.00     0.028 A 
HETATM   13  N           1     -20.427 -11.648  -2.926  0.00  0.00    -0.355 N 
HETATM   14  C           1     -20.984 -12.044  -4.047  0.00  0.00     0.180 A 
ATOM     15  HN          1     -19.487 -11.865  -2.591  1.00  0.00     0.166 HD
HETATM   16  N           1     -22.257 -11.562  -4.170  0.00  0.00    -0.360 N 
HETATM   17  C           1     -22.523 -10.815  -3.056  0.00  0.00     0.114 A 
HETATM   18  H           1     -22.911 -11.735  -4.973  0.00  0.00     0.166 HD
ENDBRANCH  11  12
ENDBRANCH  10  11
BRANCH  10  19
HETATM   19  C           1     -22.166  -8.339   0.318  0.00  0.00     0.207 C 
HETATM   20  O           1     -21.357  -8.321   1.270  0.00  0.00    -0.646 OA
HETATM   21  O           1     -23.352  -7.989   0.498  0.00  0.00    -0.646 OA
ENDBRANCH  10  19
ENDBRANCH   8  10
ENDBRANCH   7   8
ENDBRANCH   6   7
ENDBRANCH   5   6
BRANCH   5  22
HETATM   22  C           1     -20.333  -8.448  -4.917  0.00  0.00     0.196 C 
HETATM   23  O           1     -19.346  -8.923  -4.316  0.00  0.00    -0.646 OA
HETATM   24  O           1     -20.899  -9.114  -5.812  0.00  0.00    -0.646 OA
ENDBRANCH   5  22
ENDBRANCH   1   5
BRANCH   4  25
HETATM   25  C           1     -21.541  -4.666  -7.461  0.00  0.00     0.274 C 
BRANCH  25  26
HETATM   26  C           1     -20.666  -4.939  -8.678  0.00  0.00     0.044 C 
BRANCH  26  27
HETATM   27  C           1     -20.775  -3.774  -9.653  0.00  0.00     0.023 C 
BRANCH  27  28
HETATM   28  C           1     -21.821  -4.094 -10.712  0.00  0.00     0.138 C 
BRANCH  28  29
HETATM   29  N           1     -23.085  -3.425 -10.372  0.00  0.00    -0.227 N 
HETATM   30  H           1     -23.125  -2.378 -10.308  0.00  0.00     0.177 HD
HETATM   31  C           1     -24.127  -4.112 -10.156  0.00  0.00     0.665 C 
HETATM   32  N           1     -25.216  -3.536  -9.864  0.00  0.00    -0.235 N 
HETATM   33  N           1     -24.078  -5.409 -10.236  0.00  0.00    -0.235 N 
HETATM   34  H           1     -26.079  -4.106  -9.685  0.00  0.00     0.174 HD
HETATM   35  H           1     -25.255  -2.489  -9.800  0.00  0.00     0.174 HD
HETATM   36  H           1     -24.938  -5.976 -10.058  0.00  0.00     0.174 HD
HETATM   37  H           1     -23.179  -5.884 -10.477  0.00  0.00     0.174 HD
ENDBRANCH  28  29
ENDBRANCH  27  28
ENDBRANCH  26  27
ENDBRANCH  25  26
BRANCH  25  38
HETATM   38  N           1     -21.656  -3.186  -7.251  0.00  0.00    -0.067 N 
HETATM   39  H           1     -22.037  -2.740  -8.116  0.00  0.00     0.275 HD
HETATM   40  H           1     -20.712  -2.790  -7.041  0.00  0.00     0.275 HD
HETATM   41  H           1     -22.299  -2.996  -6.449  0.00  0.00     0.275 HD
ENDBRANCH  25  38
ENDBRANCH   4  25
TORSDOF 15
ENDMDL
MODEL 7
REMARK VINA RESULT:      -6.7     15.153     17.486
REMARK  15 active torsions:
REMARK  status: ('A' for Active; 'I' for Inactive)
REMARK    1  A    between atoms: N_6  and  C_20 
REMARK    2  A    between atoms: N_6  and  C_7 
REMARK    3  A    between atoms: C_7  and  C_8 
REMARK    4  A    between atoms: C_8  and  C_38 
REMARK    5  A    between atoms: N_9  and  C_38 
REMARK       I    between atoms: N_9  and  C_28 
REMARK    6  A    between atoms: C_18  and  C_19 
REMARK    7  A    between atoms: C_19  and  C_20 
REMARK    8  A    between atoms: C_20  and  C_22 
REMARK    9  A    between atoms: C_28  and  C_29 
REMARK   10  A    between atoms: C_29  and  C_30 
REMARK   11  A    between atoms: C_29  and  N_37 
REMARK   12  A    between atoms: C_30  and  C_31 
REMARK   13  A    between atoms: C_31  and  C_32 
REMARK   14  A    between atoms: C_32  and  N_33 
REMARK       I    between atoms: N_33  and  C_34 
REMARK       I    between atoms: C_34  and  N_35 
REMARK   15  A    between atoms: C_38  and  C_39 
ROOT
HETATM    1  N           1     -20.778  -7.866  -5.081  0.00  0.00    -0.345 N 
HETATM    2  O           1     -19.454  -6.991  -6.653  0.00  0.00    -0.271 OA
HETATM    3  H           1     -21.659  -7.831  -4.584  0.00  0.00     0.163 HD
HETATM    4  C           1     -20.505  -6.948  -6.060  0.00  0.00     0.249 C 
ENDROOT
BRANCH   1   5
HETATM    5  C           1     -19.803  -8.890  -4.757  0.00  0.00     0.187 C 
BRANCH   5   6
HETATM    6  C           1     -19.568  -8.906  -3.252  0.00  0.00     0.066 C 
BRANCH   6   7
HETATM    7  C           1     -20.525  -7.932  -2.577  0.00  0.00     0.273 C 
BRANCH   7   8
HETATM    8  N           1     -20.482  -8.124  -1.153  0.00  0.00     0.098 N 
HETATM    9  H           1     -20.443  -7.216  -0.689  0.00  0.00     0.317 HD
BRANCH   8  10
HETATM   10  C           1     -21.687  -8.809  -0.767  0.00  0.00     0.325 C 
BRANCH  10  11
HETATM   11  C           1     -21.357  -9.865   0.280  0.00  0.00     0.105 C 
BRANCH  11  12
HETATM   12  C           1     -20.811 -11.085  -0.395  0.00  0.00     0.028 A 
HETATM   13  N           1     -19.685 -11.756   0.003  0.00  0.00    -0.355 N 
HETATM   14  C           1     -19.558 -12.752  -0.844  0.00  0.00     0.180 A 
ATOM     15  HN          1     -19.075 -11.531   0.788  1.00  0.00     0.166 HD
HETATM   16  N           1     -20.560 -12.749  -1.773  0.00  0.00    -0.360 N 
HETATM   17  C           1     -21.373 -11.685  -1.497  0.00  0.00     0.114 A 
HETATM   18  H           1     -20.684 -13.439  -2.555  0.00  0.00     0.166 HD
ENDBRANCH  11  12
ENDBRANCH  10  11
BRANCH  10  19
HETATM   19  C           1     -22.666  -7.816  -0.190  0.00  0.00     0.207 C 
HETATM   20  O           1     -23.364  -8.129   0.797  0.00  0.00    -0.646 OA
HETATM   21  O           1     -22.778  -6.681  -0.701  0.00  0.00    -0.646 OA
ENDBRANCH  10  19
ENDBRANCH   8  10
ENDBRANCH   7   8
ENDBRANCH   6   7
ENDBRANCH   5   6
BRANCH   5  22
HETATM   22  C           1     -20.323 -10.236  -5.199  0.00  0.00     0.196 C 
HETATM   23  O           1     -19.984 -11.270  -4.584  0.00  0.00    -0.646 OA
HETATM   24  O           1     -21.094 -10.317  -6.180  0.00  0.00    -0.646 OA
ENDBRANCH   5  22
ENDBRANCH   1   5
BRANCH   4  25
HETATM   25  C           1     -21.519  -5.883  -6.396  0.00  0.00     0.274 C 
BRANCH  25  26
HETATM   26  C           1     -20.831  -4.524  -6.445  0.00  0.00     0.044 C 
BRANCH  26  27
HETATM   27  C           1     -21.561  -3.621  -7.430  0.00  0.00     0.023 C 
BRANCH  27  28
HETATM   28  C           1     -22.393  -4.473  -8.381  0.00  0.00     0.138 C 
BRANCH  28  29
HETATM   29  N           1     -23.740  -3.898  -8.503  0.00  0.00    -0.227 N 
HETATM   30  H           1     -24.158  -3.363  -7.702  0.00  0.00     0.177 HD
HETATM   31  C           1     -24.398  -4.048  -9.575  0.00  0.00     0.665 C 
HETATM   32  N           1     -25.558  -3.553  -9.681  0.00  0.00    -0.235 N 
HETATM   33  N           1     -23.880  -4.710 -10.567  0.00  0.00    -0.235 N 
HETATM   34  H           1     -26.103  -3.678 -10.570  0.00  0.00     0.174 HD
HETATM   35  H           1     -25.975  -3.018  -8.879  0.00  0.00     0.174 HD
HETATM   36  H           1     -24.422  -4.834 -11.451  0.00  0.00     0.174 HD
HETATM   37  H           1     -22.923  -5.119 -10.479  0.00  0.00     0.174 HD
ENDBRANCH  28  29
ENDBRANCH  27  28
ENDBRANCH  26  27
ENDBRANCH  25  26
BRANCH  25  38
HETATM   38  N           1     -22.590  -5.862  -5.346  0.00  0.00    -0.067 N 
HETATM   39  H           1     -23.326  -6.563  -5.587  0.00  0.00     0.275 HD
HETATM   40  H           1     -23.016  -4.909  -5.303  0.00  0.00     0.275 HD
HETATM   41  H           1     -22.174  -6.098  -4.418  0.00  0.00     0.275 HD
ENDBRANCH  25  38
ENDBRANCH   4  25
TORSDOF 15
ENDMDL
MODEL 8
REMARK VINA RESULT:      -6.6     14.803     17.399
REMARK  15 active torsions:
REMARK  status: ('A' for Active; 'I' for Inactive)
REMARK    1  A    between atoms: N_6  and  C_20 
REMARK    2  A    between atoms: N_6  and  C_7 
REMARK    3  A    between atoms: C_7  and  C_8 
REMARK    4  A    between atoms: C_8  and  C_38 
REMARK    5  A    between atoms: N_9  and  C_38 
REMARK       I    between atoms: N_9  and  C_28 
REMARK    6  A    between atoms: C_18  and  C_19 
REMARK    7  A    between atoms: C_19  and  C_20 
REMARK    8  A    between atoms: C_20  and  C_22 
REMARK    9  A    between atoms: C_28  and  C_29 
REMARK   10  A    between atoms: C_29  and  C_30 
REMARK   11  A    between atoms: C_29  and  N_37 
REMARK   12  A    between atoms: C_30  and  C_31 
REMARK   13  A    between atoms: C_31  and  C_32 
REMARK   14  A    between atoms: C_32  and  N_33 
REMARK       I    between atoms: N_33  and  C_34 
REMARK       I    between atoms: C_34  and  N_35 
REMARK   15  A    between atoms: C_38  and  C_39 
ROOT
HETATM    1  N           1     -20.974  -6.568  -3.620  0.00  0.00    -0.345 N 
HETATM    2  O           1     -21.906  -7.705  -5.301  0.00  0.00    -0.271 OA
HETATM    3  H           1     -20.437  -5.763  -3.322  0.00  0.00     0.163 HD
HETATM    4  C           1     -21.265  -6.745  -4.947  0.00  0.00     0.249 C 
ENDROOT
BRANCH   1   5
HETATM    5  C           1     -21.436  -7.534  -2.642  0.00  0.00     0.187 C 
BRANCH   5   6
HETATM    6  C           1     -20.241  -8.286  -2.070  0.00  0.00     0.066 C 
BRANCH   6   7
HETATM    7  C           1     -20.319  -9.750  -2.482  0.00  0.00     0.273 C 
BRANCH   7   8
HETATM    8  N           1     -19.004 -10.228  -2.812  0.00  0.00     0.098 N 
HETATM    9  H           1     -18.755 -10.996  -2.188  0.00  0.00     0.317 HD
BRANCH   8  10
HETATM   10  C           1     -19.038 -10.703  -4.168  0.00  0.00     0.325 C 
BRANCH  10  11
HETATM   11  C           1     -20.482 -10.762  -4.649  0.00  0.00     0.105 C 
BRANCH  11  12
HETATM   12  C           1     -20.634 -11.872  -5.642  0.00  0.00     0.028 A 
HETATM   13  N           1     -20.347 -11.768  -6.977  0.00  0.00    -0.355 N 
HETATM   14  C           1     -20.614 -12.950  -7.483  0.00  0.00     0.180 A 
ATOM     15  HN          1     -20.001 -10.947  -7.474  1.00  0.00     0.166 HD
HETATM   16  N           1     -21.062 -13.814  -6.524  0.00  0.00    -0.360 N 
HETATM   17  C           1     -21.080 -13.137  -5.336  0.00  0.00     0.114 A 
HETATM   18  H           1     -21.341 -14.816  -6.672  0.00  0.00     0.166 HD
ENDBRANCH  11  12
ENDBRANCH  10  11
BRANCH  10  19
HETATM   19  C           1     -18.251  -9.764  -5.050  0.00  0.00     0.207 C 
HETATM   20  O           1     -17.011  -9.683  -4.926  0.00  0.00    -0.646 OA
HETATM   21  O           1     -18.841  -9.068  -5.903  0.00  0.00    -0.646 OA
ENDBRANCH  10  19
ENDBRANCH   8  10
ENDBRANCH   7   8
ENDBRANCH   6   7
ENDBRANCH   5   6
BRANCH   5  22
HETATM   22  C           1     -22.158  -6.814  -1.528  0.00  0.00     0.196 C 
HETATM   23  O           1     -22.437  -5.602  -1.645  0.00  0.00    -0.646 OA
HETATM   24  O           1     -22.477  -7.431  -0.489  0.00  0.00    -0.646 OA
ENDBRANCH   5  22
ENDBRANCH   1   5
BRANCH   4  25
HETATM   25  C           1     -20.783  -5.740  -5.964  0.00  0.00     0.274 C 
BRANCH  25  26
HETATM   26  C           1     -21.982  -5.084  -6.637  0.00  0.00     0.044 C 
BRANCH  26  27
HETATM   27  C           1     -21.525  -3.838  -7.384  0.00  0.00     0.023 C 
BRANCH  27  28
HETATM   28  C           1     -22.071  -3.869  -8.806  0.00  0.00     0.138 C 
BRANCH  28  29
HETATM   29  N           1     -23.487  -3.474  -8.796  0.00  0.00    -0.227 N 
HETATM   30  H           1     -23.838  -2.797  -8.075  0.00  0.00     0.177 HD
HETATM   31  C           1     -24.283  -3.949  -9.659  0.00  0.00     0.665 C 
HETATM   32  N           1     -25.502  -3.608  -9.652  0.00  0.00    -0.235 N 
HETATM   33  N           1     -23.847  -4.787 -10.552  0.00  0.00    -0.235 N 
HETATM   34  H           1     -26.161  -4.002 -10.367  0.00  0.00     0.174 HD
HETATM   35  H           1     -25.853  -2.931  -8.930  0.00  0.00     0.174 HD
HETATM   36  H           1     -24.504  -5.179 -11.264  0.00  0.00     0.174 HD
HETATM   37  H           1     -22.841  -5.069 -10.558  0.00  0.00     0.174 HD
ENDBRANCH  28  29
ENDBRANCH  27  28
ENDBRANCH  26  27
ENDBRANCH  25  26
BRANCH  25  38
HETATM   38  N           1     -19.949  -6.436  -6.998  0.00  0.00    -0.067 N 
HETATM   39  H           1     -19.199  -6.990  -6.526  0.00  0.00     0.275 HD
HETATM   40  H           1     -19.514  -5.726  -7.629  0.00  0.00     0.275 HD
HETATM   41  H           1     -20.553  -7.077  -7.561  0.00  0.00     0.275 HD
ENDBRANCH  25  38
ENDBRANCH   4  25
TORSDOF 15
ENDMDL
MODEL 9
REMARK VINA RESULT:      -6.5     15.268     17.804
REMARK  15 active torsions:
REMARK  status: ('A' for Active; 'I' for Inactive)
REMARK    1  A    between atoms: N_6  and  C_20 
REMARK    2  A    between atoms: N_6  and  C_7 
REMARK    3  A    between atoms: C_7  and  C_8 
REMARK    4  A    between atoms: C_8  and  C_38 
REMARK    5  A    between atoms: N_9  and  C_38 
REMARK       I    between atoms: N_9  and  C_28 
REMARK    6  A    between atoms: C_18  and  C_19 
REMARK    7  A    between atoms: C_19  and  C_20 
REMARK    8  A    between atoms: C_20  and  C_22 
REMARK    9  A    between atoms: C_28  and  C_29 
REMARK   10  A    between atoms: C_29  and  C_30 
REMARK   11  A    between atoms: C_29  and  N_37 
REMARK   12  A    between atoms: C_30  and  C_31 
REMARK   13  A    between atoms: C_31  and  C_32 
REMARK   14  A    between atoms: C_32  and  N_33 
REMARK       I    between atoms: N_33  and  C_34 
REMARK       I    between atoms: C_34  and  N_35 
REMARK   15  A    between atoms: C_38  and  C_39 
ROOT
HETATM    1  N           1     -20.840  -6.327  -4.854  0.00  0.00    -0.345 N 
HETATM    2  O           1     -22.628  -5.451  -5.865  0.00  0.00    -0.271 OA
HETATM    3  H           1     -19.835  -6.323  -4.733  0.00  0.00     0.163 HD
HETATM    4  C           1     -21.429  -5.446  -5.721  0.00  0.00     0.249 C 
ENDROOT
BRANCH   1   5
HETATM    5  C           1     -21.656  -7.265  -4.108  0.00  0.00     0.187 C 
BRANCH   5   6
HETATM    6  C           1     -21.094  -8.671  -4.276  0.00  0.00     0.066 C 
BRANCH   6   7
HETATM    7  C           1     -19.662  -8.587  -4.788  0.00  0.00     0.273 C 
BRANCH   7   8
HETATM    8  N           1     -18.754  -8.977  -3.743  0.00  0.00     0.098 N 
HETATM    9  H           1     -19.286  -9.274  -2.925  0.00  0.00     0.317 HD
BRANCH   8  10
HETATM   10  C           1     -17.970 -10.078  -4.233  0.00  0.00     0.325 C 
BRANCH  10  11
HETATM   11  C           1     -17.663  -9.864  -5.710  0.00  0.00     0.105 C 
BRANCH  11  12
HETATM   12  C           1     -17.600 -11.189  -6.405  0.00  0.00     0.028 A 
HETATM   13  N           1     -16.456 -11.922  -6.581  0.00  0.00    -0.355 N 
HETATM   14  C           1     -16.832 -13.002  -7.227  0.00  0.00     0.180 A 
ATOM     15  HN          1     -15.512 -11.681  -6.276  1.00  0.00     0.166 HD
HETATM   16  N           1     -18.176 -12.994  -7.474  0.00  0.00    -0.360 N 
HETATM   17  C           1     -18.683 -11.837  -6.952  0.00  0.00     0.114 A 
HETATM   18  H           1     -18.719 -13.741  -7.973  0.00  0.00     0.166 HD
ENDBRANCH  11  12
ENDBRANCH  10  11
BRANCH  10  19
HETATM   19  C           1     -16.678 -10.161  -3.457  0.00  0.00     0.207 C 
HETATM   20  O           1     -16.303  -9.191  -2.765  0.00  0.00    -0.646 OA
HETATM   21  O           1     -15.986 -11.199  -3.507  0.00  0.00    -0.646 OA
ENDBRANCH  10  19
ENDBRANCH   8  10
ENDBRANCH   7   8
ENDBRANCH   6   7
ENDBRANCH   5   6
BRANCH   5  22
HETATM   22  C           1     -21.644  -6.889  -2.646  0.00  0.00     0.196 C 
HETATM   23  O           1     -22.395  -5.982  -2.228  0.00  0.00    -0.646 OA
HETATM   24  O           1     -20.883  -7.486  -1.853  0.00  0.00    -0.646 OA
ENDBRANCH   5  22
ENDBRANCH   1   5
BRANCH   4  25
HETATM   25  C           1     -20.579  -4.471  -6.497  0.00  0.00     0.274 C 
BRANCH  25  26
HETATM   26  C           1     -21.417  -3.828  -7.595  0.00  0.00     0.044 C 
BRANCH  26  27
HETATM   27  C           1     -20.770  -4.090  -8.948  0.00  0.00     0.023 C 
BRANCH  27  28
HETATM   28  C           1     -21.845  -4.131 -10.026  0.00  0.00     0.138 C 
BRANCH  28  29
HETATM   29  N           1     -23.123  -3.672  -9.462  0.00  0.00    -0.227 N 
HETATM   30  H           1     -23.135  -3.119  -8.570  0.00  0.00     0.177 HD
HETATM   31  C           1     -24.210  -3.943 -10.053  0.00  0.00     0.665 C 
HETATM   32  N           1     -25.310  -3.548  -9.568  0.00  0.00    -0.235 N 
HETATM   33  N           1     -24.195  -4.628 -11.158  0.00  0.00    -0.235 N 
HETATM   34  H           1     -26.211  -3.773 -10.058  0.00  0.00     0.174 HD
HETATM   35  H           1     -25.321  -2.995  -8.676  0.00  0.00     0.174 HD
HETATM   36  H           1     -25.091  -4.852 -11.646  0.00  0.00     0.174 HD
HETATM   37  H           1     -23.286  -4.955 -11.558  0.00  0.00     0.174 HD
ENDBRANCH  28  29
ENDBRANCH  27  28
ENDBRANCH  26  27
ENDBRANCH  25  26
BRANCH  25  38
HETATM   38  N           1     -19.421  -5.197  -7.115  0.00  0.00    -0.067 N 
HETATM   39  H           1     -18.819  -4.517  -7.631  0.00  0.00     0.275 HD
HETATM   40  H           1     -19.780  -5.920  -7.779  0.00  0.00     0.275 HD
HETATM   41  H           1     -18.860  -5.661  -6.366  0.00  0.00     0.275 HD
ENDBRANCH  25  38
ENDBRANCH   4  25
TORSDOF 15
ENDMDL
