MODEL 1
REMARK VINA RESULT:      -6.9      0.000      0.000
REMARK  10 active torsions:
REMARK  status: ('A' for Active; 'I' for Inactive)
REMARK    1  A    between atoms: C_5  and  C_25 
REMARK    2  A    between atoms: C_5  and  C_14 
REMARK    3  A    between atoms: C_6  and  C_14 
REMARK    4  A    between atoms: N_7  and  C_14 
REMARK       I    between atoms: N_7  and  C_8 
REMARK    5  A    between atoms: C_8  and  C_9 
REMARK    6  A    between atoms: C_9  and  C_27 
REMARK    7  A    between atoms: C_9  and  N_21 
REMARK       I    between atoms: N_12  and  C_15 
REMARK    8  A    between atoms: N_12  and  C_29 
REMARK       I    between atoms: N_13  and  C_15 
REMARK    9  A    between atoms: C_25  and  C_29 
REMARK   10  A    between atoms: C_26  and  C_27 
ROOT
HETATM    1  C           1     -28.624  -6.589 -17.168  0.00  0.00     0.185 C 
ENDROOT
BRANCH   1   2
HETATM    2  C           1     -29.017  -5.163 -16.803  0.00  0.00     0.038 C 
BRANCH   2   3
HETATM    3  C           1     -29.485  -4.430 -18.053  0.00  0.00     0.023 C 
BRANCH   3   4
HETATM    4  C           1     -30.700  -3.574 -17.715  0.00  0.00     0.138 C 
BRANCH   4   5
HETATM    5  N           1     -31.602  -4.329 -16.834  0.00  0.00    -0.227 N 
HETATM    6  H           1     -31.221  -5.088 -16.217  0.00  0.00     0.177 HD
HETATM    7  C           1     -32.840  -4.064 -16.818  0.00  0.00     0.665 C 
HETATM    8  N           1     -33.301  -3.148 -17.562  0.00  0.00    -0.235 N 
HETATM    9  N           1     -33.638  -4.731 -16.039  0.00  0.00    -0.235 N 
HETATM   10  H           1     -32.657  -2.609 -18.192  0.00  0.00     0.174 HD
HETATM   11  H           1     -34.327  -2.929 -17.549  0.00  0.00     0.174 HD
HETATM   12  H           1     -33.257  -5.487 -15.425  0.00  0.00     0.174 HD
HETATM   13  H           1     -34.659  -4.512 -16.026  0.00  0.00     0.174 HD
ENDBRANCH   4   5
ENDBRANCH   3   4
ENDBRANCH   2   3
ENDBRANCH   1   2
BRANCH   1  14
HETATM   14  C           1     -29.832  -7.325 -17.695  0.00  0.00     0.196 C 
HETATM   15  O           1     -29.706  -8.141 -18.634  0.00  0.00    -0.646 OA
HETATM   16  O           1     -30.958  -7.120 -17.191  0.00  0.00    -0.646 OA
ENDBRANCH   1  14
BRANCH   1  17
HETATM   17  N           1     -27.594  -6.559 -18.190  0.00  0.00    -0.345 N 
HETATM   18  C           1     -26.277  -6.469 -17.830  0.00  0.00     0.249 C 
HETATM   19  O           1     -25.971  -6.415 -16.663  0.00  0.00    -0.271 OA
HETATM   20  H           1     -27.851  -6.604 -19.167  0.00  0.00     0.163 HD
BRANCH  18  21
HETATM   21  C           1     -25.206  -6.437 -18.892  0.00  0.00     0.275 C 
BRANCH  21  22
HETATM   22  C           1     -25.852  -6.528 -20.269  0.00  0.00     0.046 C 
BRANCH  22  23
HETATM   23  C           1     -25.543  -7.884 -20.887  0.00  0.00    -0.020 C 
HETATM   24  C           1     -24.619  -7.698 -22.083  0.00  0.00     0.009 C 
HETATM   25  C           1     -26.838  -8.542 -21.344  0.00  0.00     0.009 C 
ENDBRANCH  22  23
ENDBRANCH  21  22
BRANCH  21  26
HETATM   26  N           1     -24.276  -7.598 -18.700  0.00  0.00    -0.066 N 
HETATM   27  H           1     -24.813  -8.491 -18.779  0.00  0.00     0.275 HD
HETATM   28  H           1     -23.531  -7.573 -19.433  0.00  0.00     0.275 HD
HETATM   29  H           1     -23.836  -7.540 -17.754  0.00  0.00     0.275 HD
ENDBRANCH  21  26
ENDBRANCH  18  21
ENDBRANCH   1  17
TORSDOF 10
ENDMDL
MODEL 2
REMARK VINA RESULT:      -6.3      2.095      7.396
REMARK  10 active torsions:
REMARK  status: ('A' for Active; 'I' for Inactive)
REMARK    1  A    between atoms: C_5  and  C_25 
REMARK    2  A    between atoms: C_5  and  C_14 
REMARK    3  A    between atoms: C_6  and  C_14 
REMARK    4  A    between atoms: N_7  and  C_14 
REMARK       I    between atoms: N_7  and  C_8 
REMARK    5  A    between atoms: C_8  and  C_9 
REMARK    6  A    between atoms: C_9  and  C_27 
REMARK    7  A    between atoms: C_9  and  N_21 
REMARK       I    between atoms: N_12  and  C_15 
REMARK    8  A    between atoms: N_12  and  C_29 
REMARK       I    between atoms: N_13  and  C_15 
REMARK    9  A    between atoms: C_25  and  C_29 
REMARK   10  A    between atoms: C_26  and  C_27 
ROOT
HETATM    1  C           1     -25.872  -6.895 -17.698  0.00  0.00     0.185 C 
ENDROOT
BRANCH   1   2
HETATM    2  C           1     -24.970  -6.766 -18.919  0.00  0.00     0.038 C 
BRANCH   2   3
HETATM    3  C           1     -25.806  -6.897 -20.184  0.00  0.00     0.023 C 
BRANCH   3   4
HETATM    4  C           1     -25.186  -7.947 -21.098  0.00  0.00     0.138 C 
BRANCH   4   5
HETATM    5  N           1     -23.832  -8.270 -20.626  0.00  0.00    -0.227 N 
HETATM    6  H           1     -23.609  -8.228 -19.601  0.00  0.00     0.177 HD
HETATM    7  C           1     -22.935  -8.600 -21.455  0.00  0.00     0.665 C 
HETATM    8  N           1     -23.203  -8.651 -22.692  0.00  0.00    -0.235 N 
HETATM    9  N           1     -21.737  -8.886 -21.038  0.00  0.00    -0.235 N 
HETATM   10  H           1     -24.171  -8.420 -23.029  0.00  0.00     0.174 HD
HETATM   11  H           1     -22.459  -8.924 -23.380  0.00  0.00     0.174 HD
HETATM   12  H           1     -21.516  -8.843 -20.018  0.00  0.00     0.174 HD
HETATM   13  H           1     -20.997  -9.157 -21.723  0.00  0.00     0.174 HD
ENDBRANCH   4   5
ENDBRANCH   3   4
ENDBRANCH   2   3
ENDBRANCH   1   2
BRANCH   1  14
HETATM   14  C           1     -25.026  -6.920 -16.448  0.00  0.00     0.196 C 
HETATM   15  O           1     -24.394  -7.955 -16.142  0.00  0.00    -0.646 OA
HETATM   16  O           1     -24.955  -5.906 -15.720  0.00  0.00    -0.646 OA
ENDBRANCH   1  14
BRANCH   1  17
HETATM   17  N           1     -26.777  -5.762 -17.645  0.00  0.00    -0.345 N 
HETATM   18  C           1     -28.025  -5.909 -17.104  0.00  0.00     0.249 C 
HETATM   19  O           1     -28.374  -6.981 -16.669  0.00  0.00    -0.271 OA
HETATM   20  H           1     -26.484  -4.864 -18.009  0.00  0.00     0.163 HD
BRANCH  18  21
HETATM   21  C           1     -28.967  -4.732 -17.049  0.00  0.00     0.275 C 
BRANCH  21  22
HETATM   22  C           1     -30.222  -5.119 -16.278  0.00  0.00     0.046 C 
BRANCH  22  23
HETATM   23  C           1     -31.389  -5.259 -17.245  0.00  0.00    -0.020 C 
HETATM   24  C           1     -32.585  -4.481 -16.713  0.00  0.00     0.009 C 
HETATM   25  C           1     -31.763  -6.729 -17.383  0.00  0.00     0.009 C 
ENDBRANCH  22  23
ENDBRANCH  21  22
BRANCH  21  26
HETATM   26  N           1     -29.342  -4.327 -18.443  0.00  0.00    -0.066 N 
HETATM   27  H           1     -29.041  -5.069 -19.115  0.00  0.00     0.275 HD
HETATM   28  H           1     -30.379  -4.203 -18.503  0.00  0.00     0.275 HD
HETATM   29  H           1     -28.870  -3.427 -18.685  0.00  0.00     0.275 HD
ENDBRANCH  21  26
ENDBRANCH  18  21
ENDBRANCH   1  17
TORSDOF 10
ENDMDL
MODEL 3
REMARK VINA RESULT:      -6.3     14.076     15.597
REMARK  10 active torsions:
REMARK  status: ('A' for Active; 'I' for Inactive)
REMARK    1  A    between atoms: C_5  and  C_25 
REMARK    2  A    between atoms: C_5  and  C_14 
REMARK    3  A    between atoms: C_6  and  C_14 
REMARK    4  A    between atoms: N_7  and  C_14 
REMARK       I    between atoms: N_7  and  C_8 
REMARK    5  A    between atoms: C_8  and  C_9 
REMARK    6  A    between atoms: C_9  and  C_27 
REMARK    7  A    between atoms: C_9  and  N_21 
REMARK       I    between atoms: N_12  and  C_15 
REMARK    8  A    between atoms: N_12  and  C_29 
REMARK       I    between atoms: N_13  and  C_15 
REMARK    9  A    between atoms: C_25  and  C_29 
REMARK   10  A    between atoms: C_26  and  C_27 
ROOT
HETATM    1  C           1     -21.174  -6.380  -4.763  0.00  0.00     0.185 C 
ENDROOT
BRANCH   1   2
HETATM    2  C           1     -22.177  -6.546  -3.629  0.00  0.00     0.038 C 
BRANCH   2   3
HETATM    3  C           1     -21.578  -6.007  -2.337  0.00  0.00     0.023 C 
BRANCH   3   4
HETATM    4  C           1     -22.302  -6.620  -1.145  0.00  0.00     0.138 C 
BRANCH   4   5
HETATM    5  N           1     -22.045  -8.066  -1.105  0.00  0.00    -0.227 N 
HETATM    6  H           1     -21.357  -8.496  -1.772  0.00  0.00     0.177 HD
HETATM    7  C           1     -22.653  -8.795  -0.267  0.00  0.00     0.665 C 
HETATM    8  N           1     -23.483  -8.277   0.537  0.00  0.00    -0.235 N 
HETATM    9  N           1     -22.425 -10.074  -0.232  0.00  0.00    -0.235 N 
HETATM   10  H           1     -23.666  -7.243   0.509  0.00  0.00     0.174 HD
HETATM   11  H           1     -23.987  -8.881   1.232  0.00  0.00     0.174 HD
HETATM   12  H           1     -21.740 -10.501  -0.895  0.00  0.00     0.174 HD
HETATM   13  H           1     -22.927 -10.674   0.460  0.00  0.00     0.174 HD
ENDBRANCH   4   5
ENDBRANCH   3   4
ENDBRANCH   2   3
ENDBRANCH   1   2
BRANCH   1  14
HETATM   14  C           1     -20.369  -7.648  -4.912  0.00  0.00     0.196 C 
HETATM   15  O           1     -19.636  -7.808  -5.913  0.00  0.00    -0.646 OA
HETATM   16  O           1     -20.432  -8.536  -4.035  0.00  0.00    -0.646 OA
ENDBRANCH   1  14
BRANCH   1  17
HETATM   17  N           1     -21.884  -6.112  -6.000  0.00  0.00    -0.345 N 
HETATM   18  C           1     -21.570  -5.006  -6.742  0.00  0.00     0.249 C 
HETATM   19  O           1     -20.703  -4.253  -6.369  0.00  0.00    -0.271 OA
HETATM   20  H           1     -22.611  -6.743  -6.312  0.00  0.00     0.163 HD
BRANCH  18  21
HETATM   21  C           1     -22.309  -4.726  -8.028  0.00  0.00     0.275 C 
BRANCH  21  22
HETATM   22  C           1     -21.526  -3.714  -8.854  0.00  0.00     0.046 C 
BRANCH  22  23
HETATM   23  C           1     -21.297  -4.269 -10.254  0.00  0.00    -0.020 C 
HETATM   24  C           1     -19.895  -4.857 -10.342  0.00  0.00     0.009 C 
HETATM   25  C           1     -21.443  -3.149 -11.275  0.00  0.00     0.009 C 
ENDBRANCH  22  23
ENDBRANCH  21  22
BRANCH  21  26
HETATM   26  N           1     -23.667  -4.172  -7.714  0.00  0.00    -0.066 N 
HETATM   27  H           1     -23.567  -3.212  -7.313  0.00  0.00     0.275 HD
HETATM   28  H           1     -24.235  -4.127  -8.591  0.00  0.00     0.275 HD
HETATM   29  H           1     -24.145  -4.790  -7.021  0.00  0.00     0.275 HD
ENDBRANCH  21  26
ENDBRANCH  18  21
ENDBRANCH   1  17
TORSDOF 10
ENDMDL
MODEL 4
REMARK VINA RESULT:      -6.2      1.992      2.645
REMARK  10 active torsions:
REMARK  status: ('A' for Active; 'I' for Inactive)
REMARK    1  A    between atoms: C_5  and  C_25 
REMARK    2  A    between atoms: C_5  and  C_14 
REMARK    3  A    between atoms: C_6  and  C_14 
REMARK    4  A    between atoms: N_7  and  C_14 
REMARK       I    between atoms: N_7  and  C_8 
REMARK    5  A    between atoms: C_8  and  C_9 
REMARK    6  A    between atoms: C_9  and  C_27 
REMARK    7  A    between atoms: C_9  and  N_21 
REMARK       I    between atoms: N_12  and  C_15 
REMARK    8  A    between atoms: N_12  and  C_29 
REMARK       I    between atoms: N_13  and  C_15 
REMARK    9  A    between atoms: C_25  and  C_29 
REMARK   10  A    between atoms: C_26  and  C_27 
ROOT
HETATM    1  C           1     -26.842  -5.973 -16.688  0.00  0.00     0.185 C 
ENDROOT
BRANCH   1   2
HETATM    2  C           1     -28.163  -5.312 -16.313  0.00  0.00     0.038 C 
BRANCH   2   3
HETATM    3  C           1     -28.316  -4.009 -17.085  0.00  0.00     0.023 C 
BRANCH   3   4
HETATM    4  C           1     -29.783  -3.792 -17.432  0.00  0.00     0.138 C 
BRANCH   4   5
HETATM    5  N           1     -30.456  -5.093 -17.553  0.00  0.00    -0.227 N 
HETATM    6  H           1     -30.020  -5.859 -18.123  0.00  0.00     0.177 HD
HETATM    7  C           1     -31.562  -5.291 -16.970  0.00  0.00     0.665 C 
HETATM    8  N           1     -32.089  -4.367 -16.282  0.00  0.00    -0.235 N 
HETATM    9  N           1     -32.158  -6.442 -17.077  0.00  0.00    -0.235 N 
HETATM   10  H           1     -31.608  -3.438 -16.195  0.00  0.00     0.174 HD
HETATM   11  H           1     -33.006  -4.531 -15.798  0.00  0.00     0.174 HD
HETATM   12  H           1     -31.723  -7.203 -17.644  0.00  0.00     0.174 HD
HETATM   13  H           1     -33.070  -6.604 -16.595  0.00  0.00     0.174 HD
ENDBRANCH   4   5
ENDBRANCH   3   4
ENDBRANCH   2   3
ENDBRANCH   1   2
BRANCH   1  14
HETATM   14  C           1     -26.511  -7.044 -15.678  0.00  0.00     0.196 C 
HETATM   15  O           1     -27.430  -7.617 -15.051  0.00  0.00    -0.646 OA
HETATM   16  O           1     -25.320  -7.360 -15.468  0.00  0.00    -0.646 OA
ENDBRANCH   1  14
BRANCH   1  17
HETATM   17  N           1     -26.959  -6.571 -18.004  0.00  0.00    -0.345 N 
HETATM   18  C           1     -25.844  -6.743 -18.779  0.00  0.00     0.249 C 
HETATM   19  O           1     -24.762  -6.396 -18.368  0.00  0.00    -0.271 OA
HETATM   20  H           1     -27.865  -6.862 -18.349  0.00  0.00     0.163 HD
BRANCH  18  21
HETATM   21  C           1     -25.965  -7.365 -20.149  0.00  0.00     0.275 C 
BRANCH  21  22
HETATM   22  C           1     -24.806  -6.903 -21.022  0.00  0.00     0.046 C 
BRANCH  22  23
HETATM   23  C           1     -23.984  -8.110 -21.455  0.00  0.00    -0.020 C 
HETATM   24  C           1     -22.761  -8.239 -20.556  0.00  0.00     0.009 C 
HETATM   25  C           1     -23.536  -7.928 -22.898  0.00  0.00     0.009 C 
ENDBRANCH  22  23
ENDBRANCH  21  22
BRANCH  21  26
HETATM   26  N           1     -27.261  -6.944 -20.776  0.00  0.00    -0.066 N 
HETATM   27  H           1     -27.716  -7.770 -21.225  0.00  0.00     0.275 HD
HETATM   28  H           1     -27.894  -6.555 -20.039  0.00  0.00     0.275 HD
HETATM   29  H           1     -27.078  -6.212 -21.498  0.00  0.00     0.275 HD
ENDBRANCH  21  26
ENDBRANCH  18  21
ENDBRANCH   1  17
TORSDOF 10
ENDMDL
MODEL 5
REMARK VINA RESULT:      -6.2     13.572     15.720
REMARK  10 active torsions:
REMARK  status: ('A' for Active; 'I' for Inactive)
REMARK    1  A    between atoms: C_5  and  C_25 
REMARK    2  A    between atoms: C_5  and  C_14 
REMARK    3  A    between atoms: C_6  and  C_14 
REMARK    4  A    between atoms: N_7  and  C_14 
REMARK       I    between atoms: N_7  and  C_8 
REMARK    5  A    between atoms: C_8  and  C_9 
REMARK    6  A    between atoms: C_9  and  C_27 
REMARK    7  A    between atoms: C_9  and  N_21 
REMARK       I    between atoms: N_12  and  C_15 
REMARK    8  A    between atoms: N_12  and  C_29 
REMARK       I    between atoms: N_13  and  C_15 
REMARK    9  A    between atoms: C_25  and  C_29 
REMARK   10  A    between atoms: C_26  and  C_27 
ROOT
HETATM    1  C           1     -21.089  -5.450  -6.367  0.00  0.00     0.185 C 
ENDROOT
BRANCH   1   2
HETATM    2  C           1     -21.497  -4.043  -6.787  0.00  0.00     0.038 C 
BRANCH   2   3
HETATM    3  C           1     -22.720  -4.118  -7.690  0.00  0.00     0.023 C 
BRANCH   3   4
HETATM    4  C           1     -22.339  -4.777  -9.010  0.00  0.00     0.138 C 
BRANCH   4   5
HETATM    5  N           1     -22.011  -3.741 -10.000  0.00  0.00    -0.227 N 
HETATM    6  H           1     -22.685  -2.956 -10.181  0.00  0.00     0.177 HD
HETATM    7  C           1     -20.917  -3.794 -10.634  0.00  0.00     0.665 C 
HETATM    8  N           1     -20.104  -4.740 -10.416  0.00  0.00    -0.235 N 
HETATM    9  N           1     -20.627  -2.877 -11.509  0.00  0.00    -0.235 N 
HETATM   10  H           1     -20.338  -5.480  -9.709  0.00  0.00     0.174 HD
HETATM   11  H           1     -19.196  -4.784 -10.941  0.00  0.00     0.174 HD
HETATM   12  H           1     -21.298  -2.097 -11.689  0.00  0.00     0.174 HD
HETATM   13  H           1     -19.724  -2.921 -12.032  0.00  0.00     0.174 HD
ENDBRANCH   4   5
ENDBRANCH   3   4
ENDBRANCH   2   3
ENDBRANCH   1   2
BRANCH   1  14
HETATM   14  C           1     -19.751  -5.788  -6.976  0.00  0.00     0.196 C 
HETATM   15  O           1     -19.057  -4.888  -7.500  0.00  0.00    -0.646 OA
HETATM   16  O           1     -19.334  -6.967  -6.957  0.00  0.00    -0.646 OA
ENDBRANCH   1  14
BRANCH   1  17
HETATM   17  N           1     -20.990  -5.511  -4.921  0.00  0.00    -0.345 N 
HETATM   18  C           1     -21.486  -6.594  -4.246  0.00  0.00     0.249 C 
HETATM   19  O           1     -22.006  -7.499  -4.855  0.00  0.00    -0.271 OA
HETATM   20  H           1     -20.553  -4.753  -4.411  0.00  0.00     0.163 HD
BRANCH  18  21
HETATM   21  C           1     -21.383  -6.658  -2.742  0.00  0.00     0.275 C 
BRANCH  21  22
HETATM   22  C           1     -21.760  -8.054  -2.266  0.00  0.00     0.046 C 
BRANCH  22  23
HETATM   23  C           1     -21.222  -8.274  -0.859  0.00  0.00    -0.020 C 
HETATM   24  C           1     -20.636  -9.675  -0.753  0.00  0.00     0.009 C 
HETATM   25  C           1     -22.353  -8.120   0.149  0.00  0.00     0.009 C 
ENDBRANCH  22  23
ENDBRANCH  21  22
BRANCH  21  26
HETATM   26  N           1     -22.316  -5.653  -2.135  0.00  0.00    -0.066 N 
HETATM   27  H           1     -22.679  -6.020  -1.226  0.00  0.00     0.275 HD
HETATM   28  H           1     -21.803  -4.757  -1.969  0.00  0.00     0.275 HD
HETATM   29  H           1     -23.116  -5.481  -2.784  0.00  0.00     0.275 HD
ENDBRANCH  21  26
ENDBRANCH  18  21
ENDBRANCH   1  17
TORSDOF 10
ENDMDL
MODEL 6
REMARK VINA RESULT:      -6.1     15.051     16.865
REMARK  10 active torsions:
REMARK  status: ('A' for Active; 'I' for Inactive)
REMARK    1  A    between atoms: C_5  and  C_25 
REMARK    2  A    between atoms: C_5  and  C_14 
REMARK    3  A    between atoms: C_6  and  C_14 
REMARK    4  A    between atoms: N_7  and  C_14 
REMARK       I    between atoms: N_7  and  C_8 
REMARK    5  A    between atoms: C_8  and  C_9 
REMARK    6  A    between atoms: C_9  and  C_27 
REMARK    7  A    between atoms: C_9  and  N_21 
REMARK       I    between atoms: N_12  and  C_15 
REMARK    8  A    between atoms: N_12  and  C_29 
REMARK       I    between atoms: N_13  and  C_15 
REMARK    9  A    between atoms: C_25  and  C_29 
REMARK   10  A    between atoms: C_26  and  C_27 
ROOT
HETATM    1  C           1     -21.033  -7.269  -4.146  0.00  0.00     0.185 C 
ENDROOT
BRANCH   1   2
HETATM    2  C           1     -20.920  -7.405  -5.659  0.00  0.00     0.038 C 
BRANCH   2   3
HETATM    3  C           1     -19.862  -6.440  -6.178  0.00  0.00     0.023 C 
BRANCH   3   4
HETATM    4  C           1     -20.403  -5.699  -7.394  0.00  0.00     0.138 C 
BRANCH   4   5
HETATM    5  N           1     -21.760  -5.211  -7.109  0.00  0.00    -0.227 N 
HETATM    6  H           1     -22.210  -5.421  -6.184  0.00  0.00     0.177 HD
HETATM    7  C           1     -22.386  -4.537  -7.978  0.00  0.00     0.665 C 
HETATM    8  N           1     -21.844  -4.283  -9.094  0.00  0.00    -0.235 N 
HETATM    9  N           1     -23.586  -4.105  -7.726  0.00  0.00    -0.235 N 
HETATM   10  H           1     -20.874  -4.631  -9.298  0.00  0.00     0.174 HD
HETATM   11  H           1     -22.363  -3.724  -9.815  0.00  0.00     0.174 HD
HETATM   12  H           1     -24.033  -4.315  -6.805  0.00  0.00     0.174 HD
HETATM   13  H           1     -24.103  -3.549  -8.444  0.00  0.00     0.174 HD
ENDBRANCH   4   5
ENDBRANCH   3   4
ENDBRANCH   2   3
ENDBRANCH   1   2
BRANCH   1  14
HETATM   14  C           1     -22.218  -6.399  -3.807  0.00  0.00     0.196 C 
HETATM   15  O           1     -23.053  -6.108  -4.691  0.00  0.00    -0.646 OA
HETATM   16  O           1     -22.367  -5.971  -2.642  0.00  0.00    -0.646 OA
ENDBRANCH   1  14
BRANCH   1  17
HETATM   17  N           1     -21.214  -8.582  -3.556  0.00  0.00    -0.345 N 
HETATM   18  C           1     -20.609  -8.887  -2.367  0.00  0.00     0.249 C 
HETATM   19  O           1     -19.924  -8.064  -1.808  0.00  0.00    -0.271 OA
HETATM   20  H           1     -21.788  -9.272  -4.024  0.00  0.00     0.163 HD
BRANCH  18  21
HETATM   21  C           1     -20.797 -10.253  -1.754  0.00  0.00     0.275 C 
BRANCH  21  22
HETATM   22  C           1     -21.424 -10.108  -0.373  0.00  0.00     0.046 C 
BRANCH  22  23
HETATM   23  C           1     -22.859  -9.620  -0.516  0.00  0.00    -0.020 C 
HETATM   24  C           1     -23.079  -8.420   0.396  0.00  0.00     0.009 C 
HETATM   25  C           1     -23.818 -10.736  -0.124  0.00  0.00     0.009 C 
ENDBRANCH  22  23
ENDBRANCH  21  22
BRANCH  21  26
HETATM   26  N           1     -19.465 -10.932  -1.629  0.00  0.00    -0.066 N 
HETATM   27  H           1     -18.774 -10.269  -1.211  0.00  0.00     0.275 HD
HETATM   28  H           1     -19.559 -11.772  -1.012  0.00  0.00     0.275 HD
HETATM   29  H           1     -19.135 -11.229  -2.574  0.00  0.00     0.275 HD
ENDBRANCH  21  26
ENDBRANCH  18  21
ENDBRANCH   1  17
TORSDOF 10
ENDMDL
MODEL 7
REMARK VINA RESULT:      -6.1     14.465     16.115
REMARK  10 active torsions:
REMARK  status: ('A' for Active; 'I' for Inactive)
REMARK    1  A    between atoms: C_5  and  C_25 
REMARK    2  A    between atoms: C_5  and  C_14 
REMARK    3  A    between atoms: C_6  and  C_14 
REMARK    4  A    between atoms: N_7  and  C_14 
REMARK       I    between atoms: N_7  and  C_8 
REMARK    5  A    between atoms: C_8  and  C_9 
REMARK    6  A    between atoms: C_9  and  C_27 
REMARK    7  A    between atoms: C_9  and  N_21 
REMARK       I    between atoms: N_12  and  C_15 
REMARK    8  A    between atoms: N_12  and  C_29 
REMARK       I    between atoms: N_13  and  C_15 
REMARK    9  A    between atoms: C_25  and  C_29 
REMARK   10  A    between atoms: C_26  and  C_27 
ROOT
HETATM    1  C           1     -21.124  -6.590  -4.319  0.00  0.00     0.185 C 
ENDROOT
BRANCH   1   2
HETATM    2  C           1     -22.248  -6.841  -3.322  0.00  0.00     0.038 C 
BRANCH   2   3
HETATM    3  C           1     -21.950  -6.104  -2.023  0.00  0.00     0.023 C 
BRANCH   3   4
HETATM    4  C           1     -22.329  -6.985  -0.839  0.00  0.00     0.138 C 
BRANCH   4   5
HETATM    5  N           1     -21.765  -8.329  -1.027  0.00  0.00    -0.227 N 
HETATM    6  H           1     -21.758  -8.767  -1.981  0.00  0.00     0.177 HD
HETATM    7  C           1     -21.287  -8.959  -0.038  0.00  0.00     0.665 C 
HETATM    8  N           1     -21.295  -8.431   1.113  0.00  0.00    -0.235 N 
HETATM    9  N           1     -20.788 -10.148  -0.204  0.00  0.00    -0.235 N 
HETATM   10  H           1     -21.698  -7.471   1.247  0.00  0.00     0.174 HD
HETATM   11  H           1     -20.899  -8.953   1.933  0.00  0.00     0.174 HD
HETATM   12  H           1     -20.781 -10.584  -1.154  0.00  0.00     0.174 HD
HETATM   13  H           1     -20.394 -10.667   0.612  0.00  0.00     0.174 HD
ENDBRANCH   4   5
ENDBRANCH   3   4
ENDBRANCH   2   3
ENDBRANCH   1   2
BRANCH   1  14
HETATM   14  C           1     -20.414  -7.888  -4.614  0.00  0.00     0.196 C 
HETATM   15  O           1     -20.297  -8.753  -3.718  0.00  0.00    -0.646 OA
HETATM   16  O           1     -19.944  -8.100  -5.753  0.00  0.00    -0.646 OA
ENDBRANCH   1  14
BRANCH   1  17
HETATM   17  N           1     -21.680  -6.054  -5.547  0.00  0.00    -0.345 N 
HETATM   18  C           1     -21.081  -4.987  -6.161  0.00  0.00     0.249 C 
HETATM   19  O           1     -20.090  -4.492  -5.681  0.00  0.00    -0.271 OA
HETATM   20  H           1     -22.511  -6.469  -5.949  0.00  0.00     0.163 HD
BRANCH  18  21
HETATM   21  C           1     -21.659  -4.430  -7.438  0.00  0.00     0.275 C 
BRANCH  21  22
HETATM   22  C           1     -20.756  -4.797  -8.608  0.00  0.00     0.046 C 
BRANCH  22  23
HETATM   23  C           1     -21.220  -4.063  -9.858  0.00  0.00    -0.020 C 
HETATM   24  C           1     -22.587  -4.588 -10.277  0.00  0.00     0.009 C 
HETATM   25  C           1     -20.222  -4.294 -10.984  0.00  0.00     0.009 C 
ENDBRANCH  22  23
ENDBRANCH  21  22
BRANCH  21  26
HETATM   26  N           1     -21.757  -2.937  -7.332  0.00  0.00    -0.066 N 
HETATM   27  H           1     -21.809  -2.522  -8.290  0.00  0.00     0.275 HD
HETATM   28  H           1     -22.618  -2.682  -6.795  0.00  0.00     0.275 HD
HETATM   29  H           1     -20.916  -2.566  -6.838  0.00  0.00     0.275 HD
ENDBRANCH  21  26
ENDBRANCH  18  21
ENDBRANCH   1  17
TORSDOF 10
ENDMDL
MODEL 8
REMARK VINA RESULT:      -5.9     13.419     15.001
REMARK  10 active torsions:
REMARK  status: ('A' for Active; 'I' for Inactive)
REMARK    1  A    between atoms: C_5  and  C_25 
REMARK    2  A    between atoms: C_5  and  C_14 
REMARK    3  A    between atoms: C_6  and  C_14 
REMARK    4  A    between atoms: N_7  and  C_14 
REMARK       I    between atoms: N_7  and  C_8 
REMARK    5  A    between atoms: C_8  and  C_9 
REMARK    6  A    between atoms: C_9  and  C_27 
REMARK    7  A    between atoms: C_9  and  N_21 
REMARK       I    between atoms: N_12  and  C_15 
REMARK    8  A    between atoms: N_12  and  C_29 
REMARK       I    between atoms: N_13  and  C_15 
REMARK    9  A    between atoms: C_25  and  C_29 
REMARK   10  A    between atoms: C_26  and  C_27 
ROOT
HETATM    1  C           1     -20.686  -6.800  -5.289  0.00  0.00     0.185 C 
ENDROOT
BRANCH   1   2
HETATM    2  C           1     -20.455  -6.076  -6.609  0.00  0.00     0.038 C 
BRANCH   2   3
HETATM    3  C           1     -20.096  -4.622  -6.335  0.00  0.00     0.023 C 
BRANCH   3   4
HETATM    4  C           1     -20.685  -3.738  -7.427  0.00  0.00     0.138 C 
BRANCH   4   5
HETATM    5  N           1     -22.153  -3.793  -7.366  0.00  0.00    -0.227 N 
HETATM    6  H           1     -22.641  -3.775  -6.437  0.00  0.00     0.177 HD
HETATM    7  C           1     -22.828  -3.863  -8.434  0.00  0.00     0.665 C 
HETATM    8  N           1     -22.240  -3.884  -9.556  0.00  0.00    -0.235 N 
HETATM    9  N           1     -24.126  -3.912  -8.380  0.00  0.00    -0.235 N 
HETATM   10  H           1     -21.192  -3.845  -9.599  0.00  0.00     0.174 HD
HETATM   11  H           1     -22.801  -3.942 -10.441  0.00  0.00     0.174 HD
HETATM   12  H           1     -24.611  -3.894  -7.455  0.00  0.00     0.174 HD
HETATM   13  H           1     -24.684  -3.969  -9.262  0.00  0.00     0.174 HD
ENDBRANCH   4   5
ENDBRANCH   3   4
ENDBRANCH   2   3
ENDBRANCH   1   2
BRANCH   1  14
HETATM   14  C           1     -21.961  -6.298  -4.656  0.00  0.00     0.196 C 
HETATM   15  O           1     -22.958  -6.053  -5.371  0.00  0.00    -0.646 OA
HETATM   16  O           1     -22.021  -6.129  -3.419  0.00  0.00    -0.646 OA
ENDBRANCH   1  14
BRANCH   1  17
HETATM   17  N           1     -20.798  -8.226  -5.534  0.00  0.00    -0.345 N 
HETATM   18  C           1     -20.151  -9.113  -4.717  0.00  0.00     0.249 C 
HETATM   19  O           1     -19.488  -8.710  -3.791  0.00  0.00    -0.271 OA
HETATM   20  H           1     -21.354  -8.563  -6.309  0.00  0.00     0.163 HD
BRANCH  18  21
HETATM   21  C           1     -20.267 -10.596  -4.971  0.00  0.00     0.275 C 
BRANCH  21  22
HETATM   22  C           1     -18.882 -11.228  -4.936  0.00  0.00     0.046 C 
BRANCH  22  23
HETATM   23  C           1     -18.156 -10.933  -6.241  0.00  0.00    -0.020 C 
HETATM   24  C           1     -17.635 -12.234  -6.837  0.00  0.00     0.009 C 
HETATM   25  C           1     -16.987  -9.995  -5.972  0.00  0.00     0.009 C 
ENDBRANCH  22  23
ENDBRANCH  21  22
BRANCH  21  26
HETATM   26  N           1     -20.887 -10.824  -6.318  0.00  0.00    -0.066 N 
HETATM   27  H           1     -21.099 -11.841  -6.436  0.00  0.00     0.275 HD
HETATM   28  H           1     -21.772 -10.272  -6.393  0.00  0.00     0.275 HD
HETATM   29  H           1     -20.223 -10.519  -7.064  0.00  0.00     0.275 HD
ENDBRANCH  21  26
ENDBRANCH  18  21
ENDBRANCH   1  17
TORSDOF 10
ENDMDL
MODEL 9
REMARK VINA RESULT:      -5.8     13.375     15.064
REMARK  10 active torsions:
REMARK  status: ('A' for Active; 'I' for Inactive)
REMARK    1  A    between atoms: C_5  and  C_25 
REMARK    2  A    between atoms: C_5  and  C_14 
REMARK    3  A    between atoms: C_6  and  C_14 
REMARK    4  A    between atoms: N_7  and  C_14 
REMARK       I    between atoms: N_7  and  C_8 
REMARK    5  A    between atoms: C_8  and  C_9 
REMARK    6  A    between atoms: C_9  and  C_27 
REMARK    7  A    between atoms: C_9  and  N_21 
REMARK       I    between atoms: N_12  and  C_15 
REMARK    8  A    between atoms: N_12  and  C_29 
REMARK       I    between atoms: N_13  and  C_15 
REMARK    9  A    between atoms: C_25  and  C_29 
REMARK   10  A    between atoms: C_26  and  C_27 
ROOT
HETATM    1  C           1     -20.752  -6.882  -5.434  0.00  0.00     0.185 C 
ENDROOT
BRANCH   1   2
HETATM    2  C           1     -20.468  -6.090  -6.704  0.00  0.00     0.038 C 
BRANCH   2   3
HETATM    3  C           1     -20.153  -4.645  -6.342  0.00  0.00     0.023 C 
BRANCH   3   4
HETATM    4  C           1     -20.724  -3.718  -7.408  0.00  0.00     0.138 C 
BRANCH   4   5
HETATM    5  N           1     -22.192  -3.796  -7.392  0.00  0.00    -0.227 N 
HETATM    6  H           1     -22.707  -3.822  -6.477  0.00  0.00     0.177 HD
HETATM    7  C           1     -22.836  -3.834  -8.481  0.00  0.00     0.665 C 
HETATM    8  N           1     -22.216  -3.804  -9.584  0.00  0.00    -0.235 N 
HETATM    9  N           1     -24.134  -3.904  -8.466  0.00  0.00    -0.235 N 
HETATM   10  H           1     -21.167  -3.748  -9.596  0.00  0.00     0.174 HD
HETATM   11  H           1     -22.750  -3.835 -10.488  0.00  0.00     0.174 HD
HETATM   12  H           1     -24.646  -3.929  -7.556  0.00  0.00     0.174 HD
HETATM   13  H           1     -24.665  -3.935  -9.365  0.00  0.00     0.174 HD
ENDBRANCH   4   5
ENDBRANCH   3   4
ENDBRANCH   2   3
ENDBRANCH   1   2
BRANCH   1  14
HETATM   14  C           1     -21.949  -6.289  -4.729  0.00  0.00     0.196 C 
HETATM   15  O           1     -22.988  -6.030  -5.375  0.00  0.00    -0.646 OA
HETATM   16  O           1     -21.902  -6.059  -3.502  0.00  0.00    -0.646 OA
ENDBRANCH   1  14
BRANCH   1  17
HETATM   17  N           1     -21.030  -8.263  -5.778  0.00  0.00    -0.345 N 
HETATM   18  C           1     -20.484  -9.276  -5.037  0.00  0.00     0.249 C 
HETATM   19  O           1     -19.771  -9.020  -4.096  0.00  0.00    -0.271 OA
HETATM   20  H           1     -21.628  -8.477  -6.566  0.00  0.00     0.163 HD
BRANCH  18  21
HETATM   21  C           1     -20.773 -10.713  -5.395  0.00  0.00     0.275 C 
BRANCH  21  22
HETATM   22  C           1     -20.640 -11.584  -4.153  0.00  0.00     0.046 C 
BRANCH  22  23
HETATM   23  C           1     -21.991 -12.200  -3.817  0.00  0.00    -0.020 C 
HETATM   24  C           1     -22.742 -12.505  -5.106  0.00  0.00     0.009 C 
HETATM   25  C           1     -22.801 -11.223  -2.977  0.00  0.00     0.009 C 
ENDBRANCH  22  23
ENDBRANCH  21  22
BRANCH  21  26
HETATM   26  N           1     -19.796 -11.174  -6.436  0.00  0.00    -0.066 N 
HETATM   27  H           1     -19.674 -10.427  -7.156  0.00  0.00     0.275 HD
HETATM   28  H           1     -18.874 -11.376  -5.983  0.00  0.00     0.275 HD
HETATM   29  H           1     -20.155 -12.042  -6.892  0.00  0.00     0.275 HD
ENDBRANCH  21  26
ENDBRANCH  18  21
ENDBRANCH   1  17
TORSDOF 10
ENDMDL
