MODEL 1
REMARK VINA RESULT:      -6.1      0.000      0.000
REMARK  7 active torsions:
REMARK  status: ('A' for Active; 'I' for Inactive)
REMARK    1  A    between atoms: C_4  and  C_15 
REMARK    2  A    between atoms: N_7  and  C_20 
REMARK       I    between atoms: C_9  and  N_19 
REMARK    3  A    between atoms: C_9  and  C_20 
REMARK    4  A    between atoms: C_13  and  C_15 
REMARK    5  A    between atoms: C_15  and  N_19 
REMARK    6  A    between atoms: C_17  and  C_20 
REMARK    7  A    between atoms: C_17  and  C_18 
ROOT
HETATM    1  H           1     -27.627  -6.325 -18.892  0.00  0.00     0.163 HD
HETATM    2  O           1     -25.047  -6.324 -17.108  0.00  0.00    -0.271 OA
HETATM    3  C           1     -25.713  -6.423 -18.111  0.00  0.00     0.249 C 
HETATM    4  N           1     -27.069  -6.242 -18.053  0.00  0.00    -0.344 N 
ENDROOT
BRANCH   3   5
HETATM    5  C           1     -25.051  -6.747 -19.428  0.00  0.00     0.284 C 
BRANCH   5   6
HETATM    6  N           1     -24.383  -8.088 -19.334  0.00  0.00    -0.066 N 
HETATM    7  H           1     -24.977  -8.806 -19.804  0.00  0.00     0.275 HD
HETATM    8  H           1     -24.255  -8.344 -18.329  0.00  0.00     0.275 HD
HETATM    9  H           1     -23.450  -8.045 -19.804  0.00  0.00     0.275 HD
ENDBRANCH   5   6
BRANCH   5  10
HETATM   10  C           1     -26.101  -6.781 -20.530  0.00  0.00     0.155 C 
BRANCH  10  11
HETATM   11  C           1     -25.862  -7.977 -21.417  0.00  0.00     0.175 C 
HETATM   12  O           1     -26.722  -8.881 -21.494  0.00  0.00    -0.648 OA
HETATM   13  O           1     -24.803  -8.065 -22.076  0.00  0.00    -0.648 OA
ENDBRANCH  10  11
ENDBRANCH   5  10
ENDBRANCH   3   5
BRANCH   4  14
HETATM   14  C           1     -27.705  -5.930 -16.787  0.00  0.00     0.189 C 
BRANCH  14  15
HETATM   15  C           1     -28.248  -7.198 -16.174  0.00  0.00     0.197 C 
HETATM   16  O           1     -27.853  -7.565 -15.046  0.00  0.00    -0.646 OA
HETATM   17  O           1     -29.094  -7.879 -16.792  0.00  0.00    -0.646 OA
ENDBRANCH  14  15
BRANCH  14  18
HETATM   18  C           1     -28.846  -4.949 -17.021  0.00  0.00     0.010 C 
HETATM   19  C           1     -28.359  -3.532 -16.751  0.00  0.00     0.012 C 
HETATM   20  C           1     -29.320  -5.058 -18.465  0.00  0.00     0.012 C 
ENDBRANCH  14  18
ENDBRANCH   4  14
TORSDOF 7
ENDMDL
MODEL 2
REMARK VINA RESULT:      -6.1     10.583     12.476
REMARK  7 active torsions:
REMARK  status: ('A' for Active; 'I' for Inactive)
REMARK    1  A    between atoms: C_4  and  C_15 
REMARK    2  A    between atoms: N_7  and  C_20 
REMARK       I    between atoms: C_9  and  N_19 
REMARK    3  A    between atoms: C_9  and  C_20 
REMARK    4  A    between atoms: C_13  and  C_15 
REMARK    5  A    between atoms: C_15  and  N_19 
REMARK    6  A    between atoms: C_17  and  C_20 
REMARK    7  A    between atoms: C_17  and  C_18 
ROOT
HETATM    1  H           1     -22.233  -5.669  -9.325  0.00  0.00     0.163 HD
HETATM    2  O           1     -21.643  -3.396  -7.245  0.00  0.00    -0.271 OA
HETATM    3  C           1     -21.693  -4.517  -7.692  0.00  0.00     0.249 C 
HETATM    4  N           1     -22.191  -4.730  -8.950  0.00  0.00    -0.344 N 
ENDROOT
BRANCH   3   5
HETATM    5  C           1     -21.206  -5.682  -6.866  0.00  0.00     0.284 C 
BRANCH   5   6
HETATM    6  N           1     -19.965  -6.251  -7.488  0.00  0.00    -0.066 N 
HETATM    7  H           1     -19.415  -5.482  -7.933  0.00  0.00     0.275 HD
HETATM    8  H           1     -20.229  -6.955  -8.213  0.00  0.00     0.275 HD
HETATM    9  H           1     -19.385  -6.711  -6.749  0.00  0.00     0.275 HD
ENDBRANCH   5   6
BRANCH   5  10
HETATM   10  C           1     -20.893  -5.207  -5.453  0.00  0.00     0.155 C 
BRANCH  10  11
HETATM   11  C           1     -21.245  -6.292  -4.467  0.00  0.00     0.175 C 
HETATM   12  O           1     -21.993  -6.039  -3.498  0.00  0.00    -0.648 OA
HETATM   13  O           1     -20.789  -7.447  -4.618  0.00  0.00    -0.648 OA
ENDBRANCH  10  11
ENDBRANCH   5  10
ENDBRANCH   3   5
BRANCH   4  14
HETATM   14  C           1     -22.659  -3.611  -9.744  0.00  0.00     0.189 C 
BRANCH  14  15
HETATM   15  C           1     -24.120  -3.802 -10.069  0.00  0.00     0.197 C 
HETATM   16  O           1     -24.758  -2.890 -10.638  0.00  0.00    -0.646 OA
HETATM   17  O           1     -24.692  -4.873  -9.771  0.00  0.00    -0.646 OA
ENDBRANCH  14  15
BRANCH  14  18
HETATM   18  C           1     -21.856  -3.535 -11.036  0.00  0.00     0.010 C 
HETATM   19  C           1     -20.369  -3.606 -10.714  0.00  0.00     0.012 C 
HETATM   20  C           1     -22.238  -4.702 -11.938  0.00  0.00     0.012 C 
ENDBRANCH  14  18
ENDBRANCH   4  14
TORSDOF 7
ENDMDL
MODEL 3
REMARK VINA RESULT:      -5.8      2.083      2.584
REMARK  7 active torsions:
REMARK  status: ('A' for Active; 'I' for Inactive)
REMARK    1  A    between atoms: C_4  and  C_15 
REMARK    2  A    between atoms: N_7  and  C_20 
REMARK       I    between atoms: C_9  and  N_19 
REMARK    3  A    between atoms: C_9  and  C_20 
REMARK    4  A    between atoms: C_13  and  C_15 
REMARK    5  A    between atoms: C_15  and  N_19 
REMARK    6  A    between atoms: C_17  and  C_20 
REMARK    7  A    between atoms: C_17  and  C_18 
ROOT
HETATM    1  H           1     -26.517  -6.725 -17.636  0.00  0.00     0.163 HD
HETATM    2  O           1     -27.161  -5.889 -20.590  0.00  0.00    -0.271 OA
HETATM    3  C           1     -26.521  -6.339 -19.670  0.00  0.00     0.249 C 
HETATM    4  N           1     -27.052  -6.348 -18.407  0.00  0.00    -0.344 N 
ENDROOT
BRANCH   3   5
HETATM    5  C           1     -25.138  -6.892 -19.910  0.00  0.00     0.284 C 
BRANCH   5   6
HETATM    6  N           1     -24.596  -7.455 -18.629  0.00  0.00    -0.066 N 
HETATM    7  H           1     -24.765  -6.777 -17.852  0.00  0.00     0.275 HD
HETATM    8  H           1     -23.569  -7.622 -18.729  0.00  0.00     0.275 HD
HETATM    9  H           1     -25.077  -8.358 -18.416  0.00  0.00     0.275 HD
ENDBRANCH   5   6
BRANCH   5  10
HETATM   10  C           1     -25.206  -7.993 -20.960  0.00  0.00     0.155 C 
BRANCH  10  11
HETATM   11  C           1     -23.897  -8.060 -21.706  0.00  0.00     0.175 C 
HETATM   12  O           1     -23.835  -7.682 -22.896  0.00  0.00    -0.648 OA
HETATM   13  O           1     -22.873  -8.495 -21.134  0.00  0.00    -0.648 OA
ENDBRANCH  10  11
ENDBRANCH   5  10
ENDBRANCH   3   5
BRANCH   4  14
HETATM   14  C           1     -28.382  -5.817 -18.176  0.00  0.00     0.189 C 
BRANCH  14  15
HETATM   15  C           1     -28.301  -4.671 -17.198  0.00  0.00     0.197 C 
HETATM   16  O           1     -27.706  -4.819 -16.109  0.00  0.00    -0.646 OA
HETATM   17  O           1     -28.828  -3.572 -17.477  0.00  0.00    -0.646 OA
ENDBRANCH  14  15
BRANCH  14  18
HETATM   18  C           1     -29.272  -6.912 -17.604  0.00  0.00     0.010 C 
HETATM   19  C           1     -30.546  -6.289 -17.048  0.00  0.00     0.012 C 
HETATM   20  C           1     -29.629  -7.902 -18.705  0.00  0.00     0.012 C 
ENDBRANCH  14  18
ENDBRANCH   4  14
TORSDOF 7
ENDMDL
MODEL 4
REMARK VINA RESULT:      -5.3      1.645      2.150
REMARK  7 active torsions:
REMARK  status: ('A' for Active; 'I' for Inactive)
REMARK    1  A    between atoms: C_4  and  C_15 
REMARK    2  A    between atoms: N_7  and  C_20 
REMARK       I    between atoms: C_9  and  N_19 
REMARK    3  A    between atoms: C_9  and  C_20 
REMARK    4  A    between atoms: C_13  and  C_15 
REMARK    5  A    between atoms: C_15  and  N_19 
REMARK    6  A    between atoms: C_17  and  C_20 
REMARK    7  A    between atoms: C_17  and  C_18 
ROOT
HETATM    1  H           1     -26.734  -6.840 -18.307  0.00  0.00     0.163 HD
HETATM    2  O           1     -25.300  -5.896 -15.681  0.00  0.00    -0.271 OA
HETATM    3  C           1     -25.408  -6.352 -16.795  0.00  0.00     0.249 C 
HETATM    4  N           1     -26.644  -6.458 -17.374  0.00  0.00    -0.344 N 
ENDROOT
BRANCH   3   5
HETATM    5  C           1     -24.180  -6.803 -17.547  0.00  0.00     0.284 C 
BRANCH   5   6
HETATM    6  N           1     -23.567  -7.978 -16.843  0.00  0.00    -0.066 N 
HETATM    7  H           1     -22.980  -7.639 -16.048  0.00  0.00     0.275 HD
HETATM    8  H           1     -22.970  -8.513 -17.513  0.00  0.00     0.275 HD
HETATM    9  H           1     -24.325  -8.598 -16.478  0.00  0.00     0.275 HD
ENDBRANCH   5   6
BRANCH   5  10
HETATM   10  C           1     -24.572  -7.208 -18.962  0.00  0.00     0.155 C 
BRANCH  10  11
HETATM   11  C           1     -23.338  -7.611 -19.731  0.00  0.00     0.175 C 
HETATM   12  O           1     -22.204  -7.354 -19.273  0.00  0.00    -0.648 OA
HETATM   13  O           1     -23.450  -8.202 -20.827  0.00  0.00    -0.648 OA
ENDBRANCH  10  11
ENDBRANCH   5  10
ENDBRANCH   3   5
BRANCH   4  14
HETATM   14  C           1     -27.823  -6.025 -16.651  0.00  0.00     0.189 C 
BRANCH  14  15
HETATM   15  C           1     -28.488  -7.220 -16.012  0.00  0.00     0.197 C 
HETATM   16  O           1     -29.410  -7.815 -16.610  0.00  0.00    -0.646 OA
HETATM   17  O           1     -28.116  -7.615 -14.887  0.00  0.00    -0.646 OA
ENDBRANCH  14  15
BRANCH  14  18
HETATM   18  C           1     -28.794  -5.359 -17.617  0.00  0.00     0.010 C 
HETATM   19  C           1     -28.828  -3.860 -17.350  0.00  0.00     0.012 C 
HETATM   20  C           1     -28.337  -5.611 -19.049  0.00  0.00     0.012 C 
ENDBRANCH  14  18
ENDBRANCH   4  14
TORSDOF 7
ENDMDL
MODEL 5
REMARK VINA RESULT:      -5.2     14.764     16.489
REMARK  7 active torsions:
REMARK  status: ('A' for Active; 'I' for Inactive)
REMARK    1  A    between atoms: C_4  and  C_15 
REMARK    2  A    between atoms: N_7  and  C_20 
REMARK       I    between atoms: C_9  and  N_19 
REMARK    3  A    between atoms: C_9  and  C_20 
REMARK    4  A    between atoms: C_13  and  C_15 
REMARK    5  A    between atoms: C_15  and  N_19 
REMARK    6  A    between atoms: C_17  and  C_20 
REMARK    7  A    between atoms: C_17  and  C_18 
ROOT
HETATM    1  H           1     -22.323  -8.003  -3.300  0.00  0.00     0.163 HD
HETATM    2  O           1     -19.321  -8.891  -3.097  0.00  0.00    -0.271 OA
HETATM    3  C           1     -20.309  -8.391  -3.580  0.00  0.00     0.249 C 
HETATM    4  N           1     -21.495  -8.422  -2.896  0.00  0.00    -0.344 N 
ENDROOT
BRANCH   3   5
HETATM    5  C           1     -20.237  -7.732  -4.935  0.00  0.00     0.284 C 
BRANCH   5   6
HETATM    6  N           1     -21.221  -8.385  -5.861  0.00  0.00    -0.066 N 
HETATM    7  H           1     -21.043  -8.066  -6.839  0.00  0.00     0.275 HD
HETATM    8  H           1     -22.192  -8.120  -5.580  0.00  0.00     0.275 HD
HETATM    9  H           1     -21.114  -9.423  -5.807  0.00  0.00     0.275 HD
ENDBRANCH   5   6
BRANCH   5  10
HETATM   10  C           1     -20.572  -6.253  -4.800  0.00  0.00     0.155 C 
BRANCH  10  11
HETATM   11  C           1     -21.902  -5.975  -5.457  0.00  0.00     0.175 C 
HETATM   12  O           1     -22.964  -6.277  -4.871  0.00  0.00    -0.648 OA
HETATM   13  O           1     -21.941  -5.444  -6.588  0.00  0.00    -0.648 OA
ENDBRANCH  10  11
ENDBRANCH   5  10
ENDBRANCH   3   5
BRANCH   4  14
HETATM   14  C           1     -21.565  -9.055  -1.593  0.00  0.00     0.189 C 
BRANCH  14  15
HETATM   15  C           1     -22.275 -10.381  -1.717  0.00  0.00     0.197 C 
HETATM   16  O           1     -21.747 -11.316  -2.357  0.00  0.00    -0.646 OA
HETATM   17  O           1     -23.392 -10.544  -1.179  0.00  0.00    -0.646 OA
ENDBRANCH  14  15
BRANCH  14  18
HETATM   18  C           1     -22.331  -8.155  -0.633  0.00  0.00     0.010 C 
HETATM   19  C           1     -21.675  -8.205   0.741  0.00  0.00     0.012 C 
HETATM   20  C           1     -22.312  -6.724  -1.154  0.00  0.00     0.012 C 
ENDBRANCH  14  18
ENDBRANCH   4  14
TORSDOF 7
ENDMDL
MODEL 6
REMARK VINA RESULT:      -5.2     12.983     14.602
REMARK  7 active torsions:
REMARK  status: ('A' for Active; 'I' for Inactive)
REMARK    1  A    between atoms: C_4  and  C_15 
REMARK    2  A    between atoms: N_7  and  C_20 
REMARK       I    between atoms: C_9  and  N_19 
REMARK    3  A    between atoms: C_9  and  C_20 
REMARK    4  A    between atoms: C_13  and  C_15 
REMARK    5  A    between atoms: C_15  and  N_19 
REMARK    6  A    between atoms: C_17  and  C_20 
REMARK    7  A    between atoms: C_17  and  C_18 
ROOT
HETATM    1  H           1     -19.754  -6.844  -4.700  0.00  0.00     0.163 HD
HETATM    2  O           1     -22.587  -5.803  -5.555  0.00  0.00    -0.271 OA
HETATM    3  C           1     -21.383  -5.899  -5.559  0.00  0.00     0.249 C 
HETATM    4  N           1     -20.762  -6.764  -4.697  0.00  0.00    -0.344 N 
ENDROOT
BRANCH   3   5
HETATM    5  C           1     -20.562  -5.065  -6.512  0.00  0.00     0.284 C 
BRANCH   5   6
HETATM    6  N           1     -19.960  -5.954  -7.560  0.00  0.00    -0.066 N 
HETATM    7  H           1     -18.918  -5.928  -7.481  0.00  0.00     0.275 HD
HETATM    8  H           1     -20.245  -5.620  -8.508  0.00  0.00     0.275 HD
HETATM    9  H           1     -20.296  -6.934  -7.420  0.00  0.00     0.275 HD
ENDBRANCH   5   6
BRANCH   5  10
HETATM   10  C           1     -21.457  -4.029  -7.180  0.00  0.00     0.155 C 
BRANCH  10  11
HETATM   11  C           1     -21.519  -4.298  -8.663  0.00  0.00     0.175 C 
HETATM   12  O           1     -22.478  -4.940  -9.143  0.00  0.00    -0.648 OA
HETATM   13  O           1     -20.610  -3.879  -9.413  0.00  0.00    -0.648 OA
ENDBRANCH  10  11
ENDBRANCH   5  10
ENDBRANCH   3   5
BRANCH   4  14
HETATM   14  C           1     -21.551  -7.565  -3.781  0.00  0.00     0.189 C 
BRANCH  14  15
HETATM   15  C           1     -21.585  -6.893  -2.430  0.00  0.00     0.197 C 
HETATM   16  O           1     -20.869  -7.324  -1.500  0.00  0.00    -0.646 OA
HETATM   17  O           1     -22.328  -5.906  -2.241  0.00  0.00    -0.646 OA
ENDBRANCH  14  15
BRANCH  14  18
HETATM   18  C           1     -20.924  -8.946  -3.646  0.00  0.00     0.010 C 
HETATM   19  C           1     -21.950 -10.007  -4.020  0.00  0.00     0.012 C 
HETATM   20  C           1     -19.722  -9.050  -4.577  0.00  0.00     0.012 C 
ENDBRANCH  14  18
ENDBRANCH   4  14
TORSDOF 7
ENDMDL
MODEL 7
REMARK VINA RESULT:      -5.0     11.334     13.482
REMARK  7 active torsions:
REMARK  status: ('A' for Active; 'I' for Inactive)
REMARK    1  A    between atoms: C_4  and  C_15 
REMARK    2  A    between atoms: N_7  and  C_20 
REMARK       I    between atoms: C_9  and  N_19 
REMARK    3  A    between atoms: C_9  and  C_20 
REMARK    4  A    between atoms: C_13  and  C_15 
REMARK    5  A    between atoms: C_15  and  N_19 
REMARK    6  A    between atoms: C_17  and  C_20 
REMARK    7  A    between atoms: C_17  and  C_18 
ROOT
HETATM    1  H           1     -22.679  -3.948  -7.506  0.00  0.00     0.163 HD
HETATM    2  O           1     -20.960  -6.567  -7.346  0.00  0.00    -0.271 OA
HETATM    3  C           1     -21.628  -5.642  -6.949  0.00  0.00     0.249 C 
HETATM    4  N           1     -22.120  -4.723  -7.838  0.00  0.00    -0.344 N 
ENDROOT
BRANCH   3   5
HETATM    5  C           1     -21.920  -5.498  -5.476  0.00  0.00     0.284 C 
BRANCH   5   6
HETATM    6  N           1     -23.287  -6.042  -5.183  0.00  0.00    -0.066 N 
HETATM    7  H           1     -23.237  -6.683  -4.359  0.00  0.00     0.275 HD
HETATM    8  H           1     -23.638  -6.570  -6.014  0.00  0.00     0.275 HD
HETATM    9  H           1     -23.937  -5.252  -4.970  0.00  0.00     0.275 HD
ENDBRANCH   5   6
BRANCH   5  10
HETATM   10  C           1     -20.883  -6.275  -4.675  0.00  0.00     0.155 C 
BRANCH  10  11
HETATM   11  C           1     -21.495  -6.741  -3.377  0.00  0.00     0.175 C 
HETATM   12  O           1     -21.926  -5.906  -2.553  0.00  0.00    -0.648 OA
HETATM   13  O           1     -21.569  -7.964  -3.125  0.00  0.00    -0.648 OA
ENDBRANCH  10  11
ENDBRANCH   5  10
ENDBRANCH   3   5
BRANCH   4  14
HETATM   14  C           1     -21.840  -4.861  -9.254  0.00  0.00     0.189 C 
BRANCH  14  15
HETATM   15  C           1     -20.440  -4.374  -9.538  0.00  0.00     0.197 C 
HETATM   16  O           1     -19.866  -4.706 -10.598  0.00  0.00    -0.646 OA
HETATM   17  O           1     -19.854  -3.639  -8.714  0.00  0.00    -0.646 OA
ENDBRANCH  14  15
BRANCH  14  18
HETATM   18  C           1     -22.837  -4.031 -10.051  0.00  0.00     0.010 C 
HETATM   19  C           1     -23.407  -4.875 -11.184  0.00  0.00     0.012 C 
HETATM   20  C           1     -23.968  -3.580  -9.135  0.00  0.00     0.012 C 
ENDBRANCH  14  18
ENDBRANCH   4  14
TORSDOF 7
ENDMDL
MODEL 8
REMARK VINA RESULT:      -5.0      2.670      4.125
REMARK  7 active torsions:
REMARK  status: ('A' for Active; 'I' for Inactive)
REMARK    1  A    between atoms: C_4  and  C_15 
REMARK    2  A    between atoms: N_7  and  C_20 
REMARK       I    between atoms: C_9  and  N_19 
REMARK    3  A    between atoms: C_9  and  C_20 
REMARK    4  A    between atoms: C_13  and  C_15 
REMARK    5  A    between atoms: C_15  and  N_19 
REMARK    6  A    between atoms: C_17  and  C_20 
REMARK    7  A    between atoms: C_17  and  C_18 
ROOT
HETATM    1  H           1     -28.402  -5.719 -16.566  0.00  0.00     0.163 HD
HETATM    2  O           1     -28.010  -5.799 -19.677  0.00  0.00    -0.271 OA
HETATM    3  C           1     -27.755  -5.995 -18.512  0.00  0.00     0.249 C 
HETATM    4  N           1     -28.614  -5.555 -17.541  0.00  0.00    -0.344 N 
ENDROOT
BRANCH   3   5
HETATM    5  C           1     -26.492  -6.726 -18.128  0.00  0.00     0.284 C 
BRANCH   5   6
HETATM    6  N           1     -25.524  -6.685 -19.274  0.00  0.00    -0.066 N 
HETATM    7  H           1     -25.945  -6.149 -20.066  0.00  0.00     0.275 HD
HETATM    8  H           1     -25.313  -7.659 -19.587  0.00  0.00     0.275 HD
HETATM    9  H           1     -24.641  -6.218 -18.966  0.00  0.00     0.275 HD
ENDBRANCH   5   6
BRANCH   5  10
HETATM   10  C           1     -25.867  -6.055 -16.912  0.00  0.00     0.155 C 
BRANCH  10  11
HETATM   11  C           1     -25.004  -7.049 -16.176  0.00  0.00     0.175 C 
HETATM   12  O           1     -24.162  -7.730 -16.800  0.00  0.00    -0.648 OA
HETATM   13  O           1     -25.132  -7.193 -14.940  0.00  0.00    -0.648 OA
ENDBRANCH  10  11
ENDBRANCH   5  10
ENDBRANCH   3   5
BRANCH   4  14
HETATM   14  C           1     -29.828  -4.853 -17.910  0.00  0.00     0.189 C 
BRANCH  14  15
HETATM   15  C           1     -29.701  -3.398 -17.531  0.00  0.00     0.197 C 
HETATM   16  O           1     -28.584  -2.926 -17.229  0.00  0.00    -0.646 OA
HETATM   17  O           1     -30.713  -2.664 -17.519  0.00  0.00    -0.646 OA
ENDBRANCH  14  15
BRANCH  14  18
HETATM   18  C           1     -31.013  -5.468 -17.177  0.00  0.00     0.010 C 
HETATM   19  C           1     -31.119  -6.945 -17.535  0.00  0.00     0.012 C 
HETATM   20  C           1     -30.809  -5.322 -15.674  0.00  0.00     0.012 C 
ENDBRANCH  14  18
ENDBRANCH   4  14
TORSDOF 7
ENDMDL
MODEL 9
REMARK VINA RESULT:      -5.0     15.409     17.143
REMARK  7 active torsions:
REMARK  status: ('A' for Active; 'I' for Inactive)
REMARK    1  A    between atoms: C_4  and  C_15 
REMARK    2  A    between atoms: N_7  and  C_20 
REMARK       I    between atoms: C_9  and  N_19 
REMARK    3  A    between atoms: C_9  and  C_20 
REMARK    4  A    between atoms: C_13  and  C_15 
REMARK    5  A    between atoms: C_15  and  N_19 
REMARK    6  A    between atoms: C_17  and  C_20 
REMARK    7  A    between atoms: C_17  and  C_18 
ROOT
HETATM    1  H           1     -22.000  -9.828  -2.714  0.00  0.00     0.163 HD
HETATM    2  O           1     -20.743  -7.024  -2.083  0.00  0.00    -0.271 OA
HETATM    3  C           1     -21.278  -7.889  -2.736  0.00  0.00     0.249 C 
HETATM    4  N           1     -21.552  -9.104  -2.167  0.00  0.00    -0.344 N 
ENDROOT
BRANCH   3   5
HETATM    5  C           1     -21.645  -7.629  -4.176  0.00  0.00     0.284 C 
BRANCH   5   6
HETATM    6  N           1     -22.373  -6.321  -4.278  0.00  0.00    -0.066 N 
HETATM    7  H           1     -22.092  -5.704  -3.483  0.00  0.00     0.275 HD
HETATM    8  H           1     -23.403  -6.492  -4.239  0.00  0.00     0.275 HD
HETATM    9  H           1     -22.129  -5.857  -5.182  0.00  0.00     0.275 HD
ENDBRANCH   5   6
BRANCH   5  10
HETATM   10  C           1     -20.378  -7.571  -5.020  0.00  0.00     0.155 C 
BRANCH  10  11
HETATM   11  C           1     -20.469  -6.416  -5.986  0.00  0.00     0.175 C 
HETATM   12  O           1     -20.000  -5.301  -5.673  0.00  0.00    -0.648 OA
HETATM   13  O           1     -21.014  -6.575  -7.101  0.00  0.00    -0.648 OA
ENDBRANCH  10  11
ENDBRANCH   5  10
ENDBRANCH   3   5
BRANCH   4  14
HETATM   14  C           1     -21.200  -9.354  -0.783  0.00  0.00     0.189 C 
BRANCH  14  15
HETATM   15  C           1     -20.312 -10.571  -0.703  0.00  0.00     0.197 C 
HETATM   16  O           1     -19.851 -11.079  -1.749  0.00  0.00    -0.646 OA
HETATM   17  O           1     -20.036 -11.072   0.408  0.00  0.00    -0.646 OA
ENDBRANCH  14  15
BRANCH  14  18
HETATM   18  C           1     -22.467  -9.595   0.027  0.00  0.00     0.010 C 
HETATM   19  C           1     -23.131  -8.260   0.339  0.00  0.00     0.012 C 
HETATM   20  C           1     -23.425 -10.464  -0.778  0.00  0.00     0.012 C 
ENDBRANCH  14  18
ENDBRANCH   4  14
TORSDOF 7
ENDMDL
