MODEL 1
REMARK VINA RESULT:      -9.4      0.000      0.000
REMARK  11 active torsions:
REMARK  status: ('A' for Active; 'I' for Inactive)
REMARK    1  A    between atoms: N_2  and  C_26 
REMARK       I    between atoms: N_2  and  C_3 
REMARK    2  A    between atoms: C_3  and  C_4 
REMARK    3  A    between atoms: C_4  and  C_5 
REMARK    4  A    between atoms: C_4  and  N_17 
REMARK    5  A    between atoms: C_5  and  C_6 
REMARK    6  A    between atoms: C_9  and  O_10 
REMARK    7  A    between atoms: O_10  and  P_11 
REMARK    8  A    between atoms: P_11  and  O_12 
REMARK    9  A    between atoms: C_24  and  C_26 
REMARK   10  A    between atoms: C_26  and  C_27 
REMARK   11  A    between atoms: C_27  and  C_28 
ROOT
HETATM    1  N           1     -21.278  -6.589  -2.952  0.00  0.00    -0.344 N 
HETATM    2  C           1     -21.560  -6.308  -4.262  0.00  0.00     0.249 C 
HETATM    3  O           1     -22.698  -6.079  -4.598  0.00  0.00    -0.271 OA
HETATM    4  H           1     -21.049  -5.840  -2.311  0.00  0.00     0.163 HD
ENDROOT
BRANCH   2   5
HETATM    5  C           1     -20.450  -6.280  -5.284  0.00  0.00     0.278 C 
BRANCH   5   6
HETATM    6  C           1     -20.135  -4.836  -5.652  0.00  0.00     0.081 C 
BRANCH   6   7
HETATM    7  C           1     -20.687  -4.536  -7.012  0.00  0.00    -0.056 A 
HETATM    8  C           1     -21.981  -4.029  -7.143  0.00  0.00     0.010 A 
HETATM    9  C           1     -22.495  -3.750  -8.409  0.00  0.00     0.038 A 
HETATM   10  C           1     -21.716  -3.977  -9.544  0.00  0.00     0.081 A 
HETATM   11  C           1     -20.423  -4.484  -9.412  0.00  0.00     0.038 A 
HETATM   12  C           1     -19.909  -4.763  -8.146  0.00  0.00     0.010 A 
BRANCH  10  13
HETATM   13  O           1     -22.216  -3.707 -10.774  0.00  0.00    -0.247 OA
BRANCH  13  14
HETATM   14  P           1     -23.612  -4.401 -11.195  0.00  0.00     0.411 P 
HETATM   15  O           1     -23.825  -5.615 -10.376  0.00  0.00    -0.624 OA
HETATM   16  O           1     -24.722  -3.449 -10.968  0.00  0.00    -0.624 OA
BRANCH  14  17
HETATM   17  O           1     -23.562  -4.808 -12.757  0.00  0.00    -0.300 OA
HETATM   18  H           1     -22.647  -4.812 -12.979  0.00  0.00     0.223 HD
ENDBRANCH  14  17
ENDBRANCH  13  14
ENDBRANCH  10  13
ENDBRANCH   6   7
ENDBRANCH   5   6
BRANCH   5  19
HETATM   19  N           1     -20.884  -7.024  -6.512  0.00  0.00    -0.066 N 
HETATM   20  H           1     -20.527  -8.005  -6.468  0.00  0.00     0.275 HD
HETATM   21  H           1     -21.929  -7.036  -6.560  0.00  0.00     0.275 HD
HETATM   22  H           1     -20.501  -6.551  -7.361  0.00  0.00     0.275 HD
ENDBRANCH   5  19
ENDBRANCH   2   5
BRANCH   1  23
HETATM   23  C           1     -21.306  -7.961  -2.484  0.00  0.00     0.190 C 
BRANCH  23  24
HETATM   24  C           1     -22.115  -8.043  -1.213  0.00  0.00     0.197 C 
HETATM   25  O           1     -22.662  -7.017  -0.754  0.00  0.00    -0.646 OA
HETATM   26  O           1     -22.237  -9.135  -0.619  0.00  0.00    -0.646 OA
ENDBRANCH  23  24
BRANCH  23  27
HETATM   27  C           1     -19.883  -8.434  -2.213  0.00  0.00     0.077 C 
BRANCH  27  28
HETATM   28  C           1     -19.400  -9.253  -3.367  0.00  0.00    -0.028 A 
HETATM   29  C           1     -20.185  -9.818  -4.347  0.00  0.00     0.096 A 
HETATM   30  N           1     -19.359 -10.484  -5.213  0.00  0.00    -0.365 N 
HETATM   31  H           1     -19.680 -11.012  -6.062  0.00  0.00     0.165 HD
HETATM   32  C           1     -18.048 -10.360  -4.811  0.00  0.00     0.042 A 
HETATM   33  C           1     -16.874 -10.869  -5.382  0.00  0.00     0.030 A 
HETATM   34  C           1     -18.046  -9.589  -3.649  0.00  0.00    -0.002 A 
HETATM   35  C           1     -15.666 -10.577  -4.743  0.00  0.00     0.002 A 
HETATM   36  C           1     -15.635  -9.809  -3.581  0.00  0.00     0.001 A 
HETATM   37  C           1     -16.817  -9.308  -3.024  0.00  0.00     0.014 A 
ENDBRANCH  27  28
ENDBRANCH  23  27
ENDBRANCH   1  23
TORSDOF 11
ENDMDL
MODEL 2
REMARK VINA RESULT:      -9.4      2.121      3.937
REMARK  11 active torsions:
REMARK  status: ('A' for Active; 'I' for Inactive)
REMARK    1  A    between atoms: N_2  and  C_26 
REMARK       I    between atoms: N_2  and  C_3 
REMARK    2  A    between atoms: C_3  and  C_4 
REMARK    3  A    between atoms: C_4  and  C_5 
REMARK    4  A    between atoms: C_4  and  N_17 
REMARK    5  A    between atoms: C_5  and  C_6 
REMARK    6  A    between atoms: C_9  and  O_10 
REMARK    7  A    between atoms: O_10  and  P_11 
REMARK    8  A    between atoms: P_11  and  O_12 
REMARK    9  A    between atoms: C_24  and  C_26 
REMARK   10  A    between atoms: C_26  and  C_27 
REMARK   11  A    between atoms: C_27  and  C_28 
ROOT
HETATM    1  N           1     -20.785  -8.411  -4.295  0.00  0.00    -0.344 N 
HETATM    2  C           1     -21.255  -7.530  -5.232  0.00  0.00     0.249 C 
HETATM    3  O           1     -21.511  -7.915  -6.348  0.00  0.00    -0.271 OA
HETATM    4  H           1     -21.434  -8.911  -3.700  0.00  0.00     0.163 HD
ENDROOT
BRANCH   2   5
HETATM    5  C           1     -21.456  -6.078  -4.869  0.00  0.00     0.278 C 
BRANCH   5   6
HETATM    6  C           1     -20.401  -5.230  -5.568  0.00  0.00     0.081 C 
BRANCH   6   7
HETATM    7  C           1     -20.907  -4.814  -6.914  0.00  0.00    -0.056 A 
HETATM    8  C           1     -22.210  -4.336  -7.053  0.00  0.00     0.010 A 
HETATM    9  C           1     -22.681  -3.949  -8.307  0.00  0.00     0.038 A 
HETATM   10  C           1     -21.848  -4.039  -9.423  0.00  0.00     0.081 A 
HETATM   11  C           1     -20.545  -4.516  -9.284  0.00  0.00     0.038 A 
HETATM   12  C           1     -20.074  -4.903  -8.029  0.00  0.00     0.010 A 
BRANCH  10  13
HETATM   13  O           1     -22.306  -3.663 -10.642  0.00  0.00    -0.247 OA
BRANCH  13  14
HETATM   14  P           1     -23.682  -4.322 -11.172  0.00  0.00     0.411 P 
HETATM   15  O           1     -23.974  -5.545 -10.392  0.00  0.00    -0.624 OA
HETATM   16  O           1     -24.788  -3.352 -11.005  0.00  0.00    -0.624 OA
BRANCH  14  17
HETATM   17  O           1     -23.531  -4.702 -12.734  0.00  0.00    -0.300 OA
HETATM   18  H           1     -22.860  -4.127 -13.061  0.00  0.00     0.223 HD
ENDBRANCH  14  17
ENDBRANCH  13  14
ENDBRANCH  10  13
ENDBRANCH   6   7
ENDBRANCH   5   6
BRANCH   5  19
HETATM   19  N           1     -21.326  -5.913  -3.384  0.00  0.00    -0.066 N 
HETATM   20  H           1     -21.162  -4.906  -3.159  0.00  0.00     0.275 HD
HETATM   21  H           1     -22.205  -6.235  -2.920  0.00  0.00     0.275 HD
HETATM   22  H           1     -20.520  -6.483  -3.039  0.00  0.00     0.275 HD
ENDBRANCH   5  19
ENDBRANCH   2   5
BRANCH   1  23
HETATM   23  C           1     -19.358  -8.626  -4.155  0.00  0.00     0.190 C 
BRANCH  23  24
HETATM   24  C           1     -18.881  -9.557  -5.242  0.00  0.00     0.197 C 
HETATM   25  O           1     -19.638 -10.451  -5.675  0.00  0.00    -0.646 OA
HETATM   26  O           1     -17.728  -9.434  -5.708  0.00  0.00    -0.646 OA
ENDBRANCH  23  24
BRANCH  23  27
HETATM   27  C           1     -19.071  -9.244  -2.793  0.00  0.00     0.077 C 
BRANCH  27  28
HETATM   28  C           1     -20.325  -9.844  -2.241  0.00  0.00    -0.028 A 
HETATM   29  C           1     -20.829 -11.090  -2.539  0.00  0.00     0.096 A 
HETATM   30  N           1     -21.987 -11.255  -1.828  0.00  0.00    -0.365 N 
HETATM   31  H           1     -22.592 -12.113  -1.856  0.00  0.00     0.165 HD
HETATM   32  C           1     -22.244 -10.134  -1.070  0.00  0.00     0.042 A 
HETATM   33  C           1     -23.303  -9.856  -0.197  0.00  0.00     0.030 A 
HETATM   34  C           1     -21.211  -9.229  -1.312  0.00  0.00    -0.002 A 
HETATM   35  C           1     -23.301  -8.614   0.446  0.00  0.00     0.002 A 
HETATM   36  C           1     -22.282  -7.691   0.223  0.00  0.00     0.001 A 
HETATM   37  C           1     -21.230  -7.986  -0.653  0.00  0.00     0.014 A 
ENDBRANCH  27  28
ENDBRANCH  23  27
ENDBRANCH   1  23
TORSDOF 11
ENDMDL
MODEL 3
REMARK VINA RESULT:      -8.6     14.252     16.941
REMARK  11 active torsions:
REMARK  status: ('A' for Active; 'I' for Inactive)
REMARK    1  A    between atoms: N_2  and  C_26 
REMARK       I    between atoms: N_2  and  C_3 
REMARK    2  A    between atoms: C_3  and  C_4 
REMARK    3  A    between atoms: C_4  and  C_5 
REMARK    4  A    between atoms: C_4  and  N_17 
REMARK    5  A    between atoms: C_5  and  C_6 
REMARK    6  A    between atoms: C_9  and  O_10 
REMARK    7  A    between atoms: O_10  and  P_11 
REMARK    8  A    between atoms: P_11  and  O_12 
REMARK    9  A    between atoms: C_24  and  C_26 
REMARK   10  A    between atoms: C_26  and  C_27 
REMARK   11  A    between atoms: C_27  and  C_28 
ROOT
HETATM    1  N           1     -34.675  -1.128 -15.759  0.00  0.00    -0.344 N 
HETATM    2  C           1     -34.589  -2.175 -16.638  0.00  0.00     0.249 C 
HETATM    3  O           1     -35.245  -2.167 -17.652  0.00  0.00    -0.271 OA
HETATM    4  H           1     -34.054  -0.335 -15.855  0.00  0.00     0.163 HD
ENDROOT
BRANCH   2   5
HETATM    5  C           1     -33.672  -3.336 -16.341  0.00  0.00     0.278 C 
BRANCH   5   6
HETATM    6  C           1     -32.837  -3.653 -17.575  0.00  0.00     0.081 C 
BRANCH   6   7
HETATM    7  C           1     -31.437  -3.983 -17.160  0.00  0.00    -0.056 A 
HETATM    8  C           1     -30.367  -3.249 -17.671  0.00  0.00     0.010 A 
HETATM    9  C           1     -29.062  -3.557 -17.284  0.00  0.00     0.038 A 
HETATM   10  C           1     -28.829  -4.598 -16.386  0.00  0.00     0.081 A 
HETATM   11  C           1     -29.899  -5.333 -15.876  0.00  0.00     0.038 A 
HETATM   12  C           1     -31.203  -5.024 -16.262  0.00  0.00     0.010 A 
BRANCH  10  13
HETATM   13  O           1     -27.561  -4.898 -16.010  0.00  0.00    -0.247 OA
BRANCH  13  14
HETATM   14  P           1     -26.938  -6.306 -16.498  0.00  0.00     0.411 P 
HETATM   15  O           1     -25.482  -6.153 -16.709  0.00  0.00    -0.624 OA
HETATM   16  O           1     -27.184  -7.336 -15.465  0.00  0.00    -0.624 OA
BRANCH  14  17
HETATM   17  O           1     -27.638  -6.754 -17.883  0.00  0.00    -0.300 OA
HETATM   18  H           1     -26.963  -6.675 -18.534  0.00  0.00     0.223 HD
ENDBRANCH  14  17
ENDBRANCH  13  14
ENDBRANCH  10  13
ENDBRANCH   6   7
ENDBRANCH   5   6
BRANCH   5  19
HETATM   19  N           1     -34.492  -4.537 -15.971  0.00  0.00    -0.066 N 
HETATM   20  H           1     -35.408  -4.499 -16.472  0.00  0.00     0.275 HD
HETATM   21  H           1     -33.980  -5.406 -16.246  0.00  0.00     0.275 HD
HETATM   22  H           1     -34.658  -4.541 -14.940  0.00  0.00     0.275 HD
ENDBRANCH   5  19
ENDBRANCH   2   5
BRANCH   1  23
HETATM   23  C           1     -35.655  -1.158 -14.692  0.00  0.00     0.190 C 
BRANCH  23  24
HETATM   24  C           1     -36.828  -0.282 -15.062  0.00  0.00     0.197 C 
HETATM   25  O           1     -37.960  -0.522 -14.590  0.00  0.00    -0.646 OA
HETATM   26  O           1     -36.667   0.681 -15.841  0.00  0.00    -0.646 OA
ENDBRANCH  23  24
BRANCH  23  27
HETATM   27  C           1     -35.021  -0.642 -13.407  0.00  0.00     0.077 C 
BRANCH  27  28
HETATM   28  C           1     -35.279  -1.612 -12.297  0.00  0.00    -0.028 A 
HETATM   29  C           1     -36.255  -1.501 -11.332  0.00  0.00     0.096 A 
HETATM   30  N           1     -36.156  -2.591 -10.509  0.00  0.00    -0.365 N 
HETATM   31  H           1     -36.774  -2.775  -9.680  0.00  0.00     0.165 HD
HETATM   32  C           1     -35.130  -3.410 -10.924  0.00  0.00     0.042 A 
HETATM   33  C           1     -34.667  -4.620 -10.393  0.00  0.00     0.030 A 
HETATM   34  C           1     -34.561  -2.815 -12.050  0.00  0.00    -0.002 A 
HETATM   35  C           1     -33.590  -5.237 -11.036  0.00  0.00     0.002 A 
HETATM   36  C           1     -33.002  -4.666 -12.163  0.00  0.00     0.001 A 
HETATM   37  C           1     -33.478  -3.455 -12.681  0.00  0.00     0.014 A 
ENDBRANCH  27  28
ENDBRANCH  23  27
ENDBRANCH   1  23
TORSDOF 11
ENDMDL
MODEL 4
REMARK VINA RESULT:      -8.3      4.822      8.742
REMARK  11 active torsions:
REMARK  status: ('A' for Active; 'I' for Inactive)
REMARK    1  A    between atoms: N_2  and  C_26 
REMARK       I    between atoms: N_2  and  C_3 
REMARK    2  A    between atoms: C_3  and  C_4 
REMARK    3  A    between atoms: C_4  and  C_5 
REMARK    4  A    between atoms: C_4  and  N_17 
REMARK    5  A    between atoms: C_5  and  C_6 
REMARK    6  A    between atoms: C_9  and  O_10 
REMARK    7  A    between atoms: O_10  and  P_11 
REMARK    8  A    between atoms: P_11  and  O_12 
REMARK    9  A    between atoms: C_24  and  C_26 
REMARK   10  A    between atoms: C_26  and  C_27 
REMARK   11  A    between atoms: C_27  and  C_28 
ROOT
HETATM    1  N           1     -20.310  -7.825  -3.936  0.00  0.00    -0.344 N 
HETATM    2  C           1     -20.431  -8.649  -5.022  0.00  0.00     0.249 C 
HETATM    3  O           1     -21.148  -8.333  -5.943  0.00  0.00    -0.271 OA
HETATM    4  H           1     -19.592  -7.112  -3.918  0.00  0.00     0.163 HD
ENDROOT
BRANCH   2   5
HETATM    5  C           1     -19.669  -9.950  -5.072  0.00  0.00     0.278 C 
BRANCH   5   6
HETATM    6  C           1     -18.182  -9.662  -5.235  0.00  0.00     0.081 C 
BRANCH   6   7
HETATM    7  C           1     -17.412 -10.401  -4.185  0.00  0.00    -0.056 A 
HETATM    8  C           1     -16.699  -9.694  -3.216  0.00  0.00     0.010 A 
HETATM    9  C           1     -15.982 -10.383  -2.238  0.00  0.00     0.038 A 
HETATM   10  C           1     -15.978 -11.778  -2.228  0.00  0.00     0.081 A 
HETATM   11  C           1     -16.690 -12.484  -3.197  0.00  0.00     0.038 A 
HETATM   12  C           1     -17.408 -11.795  -4.175  0.00  0.00     0.010 A 
BRANCH  10  13
HETATM   13  O           1     -15.280 -12.447  -1.278  0.00  0.00    -0.247 OA
BRANCH  13  14
HETATM   14  P           1     -16.043 -12.832   0.092  0.00  0.00     0.411 P 
HETATM   15  O           1     -17.461 -13.134  -0.202  0.00  0.00    -0.624 OA
HETATM   16  O           1     -15.399 -14.020   0.697  0.00  0.00    -0.624 OA
BRANCH  14  17
HETATM   17  O           1     -15.959 -11.592   1.123  0.00  0.00    -0.300 OA
HETATM   18  H           1     -15.118 -11.677   1.539  0.00  0.00     0.223 HD
ENDBRANCH  14  17
ENDBRANCH  13  14
ENDBRANCH  10  13
ENDBRANCH   6   7
ENDBRANCH   5   6
BRANCH   5  19
HETATM   19  N           1     -20.149 -10.766  -6.236  0.00  0.00    -0.066 N 
HETATM   20  H           1     -21.166 -10.582  -6.393  0.00  0.00     0.275 HD
HETATM   21  H           1     -19.612 -10.500  -7.093  0.00  0.00     0.275 HD
HETATM   22  H           1     -20.005 -11.781  -6.034  0.00  0.00     0.275 HD
ENDBRANCH   5  19
ENDBRANCH   2   5
BRANCH   1  23
HETATM   23  C           1     -21.210  -7.975  -2.809  0.00  0.00     0.190 C 
BRANCH  23  24
HETATM   24  C           1     -21.975  -6.690  -2.603  0.00  0.00     0.197 C 
HETATM   25  O           1     -22.309  -6.340  -1.451  0.00  0.00    -0.646 OA
HETATM   26  O           1     -22.275  -5.977  -3.584  0.00  0.00    -0.646 OA
ENDBRANCH  23  24
BRANCH  23  27
HETATM   27  C           1     -20.406  -8.295  -1.556  0.00  0.00     0.077 C 
BRANCH  27  28
HETATM   28  C           1     -20.577  -9.740  -1.208  0.00  0.00    -0.028 A 
HETATM   29  C           1     -19.612 -10.717  -1.303  0.00  0.00     0.096 A 
HETATM   30  N           1     -20.170 -11.898  -0.890  0.00  0.00    -0.365 N 
HETATM   31  H           1     -19.667 -12.820  -0.856  0.00  0.00     0.165 HD
HETATM   32  C           1     -21.483 -11.703  -0.528  0.00  0.00     0.042 A 
HETATM   33  C           1     -22.434 -12.613  -0.050  0.00  0.00     0.030 A 
HETATM   34  C           1     -21.765 -10.350  -0.719  0.00  0.00    -0.002 A 
HETATM   35  C           1     -23.710 -12.121   0.241  0.00  0.00     0.002 A 
HETATM   36  C           1     -24.019 -10.775   0.060  0.00  0.00     0.001 A 
HETATM   37  C           1     -23.056  -9.878  -0.419  0.00  0.00     0.014 A 
ENDBRANCH  27  28
ENDBRANCH  23  27
ENDBRANCH   1  23
TORSDOF 11
ENDMDL
MODEL 5
REMARK VINA RESULT:      -8.2      5.333      9.298
REMARK  11 active torsions:
REMARK  status: ('A' for Active; 'I' for Inactive)
REMARK    1  A    between atoms: N_2  and  C_26 
REMARK       I    between atoms: N_2  and  C_3 
REMARK    2  A    between atoms: C_3  and  C_4 
REMARK    3  A    between atoms: C_4  and  C_5 
REMARK    4  A    between atoms: C_4  and  N_17 
REMARK    5  A    between atoms: C_5  and  C_6 
REMARK    6  A    between atoms: C_9  and  O_10 
REMARK    7  A    between atoms: O_10  and  P_11 
REMARK    8  A    between atoms: P_11  and  O_12 
REMARK    9  A    between atoms: C_24  and  C_26 
REMARK   10  A    between atoms: C_26  and  C_27 
REMARK   11  A    between atoms: C_27  and  C_28 
ROOT
HETATM    1  N           1     -18.571 -10.075  -6.066  0.00  0.00    -0.344 N 
HETATM    2  C           1     -18.229 -11.224  -6.728  0.00  0.00     0.249 C 
HETATM    3  O           1     -18.900 -11.608  -7.656  0.00  0.00    -0.271 OA
HETATM    4  H           1     -18.201  -9.184  -6.373  0.00  0.00     0.163 HD
ENDROOT
BRANCH   2   5
HETATM    5  C           1     -17.013 -12.009  -6.299  0.00  0.00     0.278 C 
BRANCH   5   6
HETATM    6  C           1     -15.952 -11.052  -5.771  0.00  0.00     0.081 C 
BRANCH   6   7
HETATM    7  C           1     -15.803 -11.240  -4.293  0.00  0.00    -0.056 A 
HETATM    8  C           1     -15.461 -12.491  -3.779  0.00  0.00     0.010 A 
HETATM    9  C           1     -15.323 -12.665  -2.402  0.00  0.00     0.038 A 
HETATM   10  C           1     -15.526 -11.588  -1.539  0.00  0.00     0.081 A 
HETATM   11  C           1     -15.868 -10.338  -2.053  0.00  0.00     0.038 A 
HETATM   12  C           1     -16.006 -10.163  -3.430  0.00  0.00     0.010 A 
BRANCH  10  13
HETATM   13  O           1     -15.392 -11.758  -0.201  0.00  0.00    -0.247 OA
BRANCH  13  14
HETATM   14  P           1     -16.556 -12.558   0.582  0.00  0.00     0.411 P 
HETATM   15  O           1     -17.843 -11.848   0.411  0.00  0.00    -0.624 OA
HETATM   16  O           1     -16.669 -13.927   0.031  0.00  0.00    -0.624 OA
BRANCH  14  17
HETATM   17  O           1     -16.190 -12.639   2.153  0.00  0.00    -0.300 OA
HETATM   18  H           1     -16.633 -13.409   2.467  0.00  0.00     0.223 HD
ENDBRANCH  14  17
ENDBRANCH  13  14
ENDBRANCH  10  13
ENDBRANCH   6   7
ENDBRANCH   5   6
BRANCH   5  19
HETATM   19  N           1     -16.465 -12.761  -7.476  0.00  0.00    -0.066 N 
HETATM   20  H           1     -16.396 -13.776  -7.238  0.00  0.00     0.275 HD
HETATM   21  H           1     -17.104 -12.639  -8.295  0.00  0.00     0.275 HD
HETATM   22  H           1     -15.517 -12.392  -7.715  0.00  0.00     0.275 HD
ENDBRANCH   5  19
ENDBRANCH   2   5
BRANCH   1  23
HETATM   23  C           1     -19.463 -10.135  -4.924  0.00  0.00     0.190 C 
BRANCH  23  24
HETATM   24  C           1     -20.893 -10.056  -5.399  0.00  0.00     0.197 C 
HETATM   25  O           1     -21.315  -9.012  -5.940  0.00  0.00    -0.646 OA
HETATM   26  O           1     -21.656 -11.034  -5.249  0.00  0.00    -0.646 OA
ENDBRANCH  23  24
BRANCH  23  27
HETATM   27  C           1     -19.171  -8.967  -3.991  0.00  0.00     0.077 C 
BRANCH  27  28
HETATM   28  C           1     -19.811  -9.217  -2.662  0.00  0.00    -0.028 A 
HETATM   29  C           1     -19.601 -10.311  -1.853  0.00  0.00     0.096 A 
HETATM   30  N           1     -20.372 -10.157  -0.732  0.00  0.00    -0.365 N 
HETATM   31  H           1     -20.416 -10.840   0.065  0.00  0.00     0.165 HD
HETATM   32  C           1     -21.081  -8.979  -0.799  0.00  0.00     0.042 A 
HETATM   33  C           1     -21.985  -8.414   0.108  0.00  0.00     0.030 A 
HETATM   34  C           1     -20.745  -8.367  -2.007  0.00  0.00    -0.002 A 
HETATM   35  C           1     -22.561  -7.186  -0.233  0.00  0.00     0.002 A 
HETATM   36  C           1     -22.243  -6.553  -1.432  0.00  0.00     0.001 A 
HETATM   37  C           1     -21.337  -7.131  -2.328  0.00  0.00     0.014 A 
ENDBRANCH  27  28
ENDBRANCH  23  27
ENDBRANCH   1  23
TORSDOF 11
ENDMDL
MODEL 6
REMARK VINA RESULT:      -8.0      4.879      9.197
REMARK  11 active torsions:
REMARK  status: ('A' for Active; 'I' for Inactive)
REMARK    1  A    between atoms: N_2  and  C_26 
REMARK       I    between atoms: N_2  and  C_3 
REMARK    2  A    between atoms: C_3  and  C_4 
REMARK    3  A    between atoms: C_4  and  C_5 
REMARK    4  A    between atoms: C_4  and  N_17 
REMARK    5  A    between atoms: C_5  and  C_6 
REMARK    6  A    between atoms: C_9  and  O_10 
REMARK    7  A    between atoms: O_10  and  P_11 
REMARK    8  A    between atoms: P_11  and  O_12 
REMARK    9  A    between atoms: C_24  and  C_26 
REMARK   10  A    between atoms: C_26  and  C_27 
REMARK   11  A    between atoms: C_27  and  C_28 
ROOT
HETATM    1  N           1     -19.943  -7.620  -3.876  0.00  0.00    -0.344 N 
HETATM    2  C           1     -19.828  -8.481  -4.935  0.00  0.00     0.249 C 
HETATM    3  O           1     -20.233  -8.154  -6.025  0.00  0.00    -0.271 OA
HETATM    4  H           1     -19.200  -6.963  -3.675  0.00  0.00     0.163 HD
ENDROOT
BRANCH   2   5
HETATM    5  C           1     -19.193  -9.836  -4.741  0.00  0.00     0.278 C 
BRANCH   5   6
HETATM    6  C           1     -17.735  -9.661  -4.339  0.00  0.00     0.081 C 
BRANCH   6   7
HETATM    7  C           1     -17.488 -10.358  -3.037  0.00  0.00    -0.056 A 
HETATM    8  C           1     -18.564 -10.827  -2.283  0.00  0.00     0.010 A 
HETATM    9  C           1     -18.334 -11.476  -1.070  0.00  0.00     0.038 A 
HETATM   10  C           1     -17.029 -11.657  -0.611  0.00  0.00     0.081 A 
HETATM   11  C           1     -15.954 -11.187  -1.365  0.00  0.00     0.038 A 
HETATM   12  C           1     -16.184 -10.538  -2.579  0.00  0.00     0.010 A 
BRANCH  10  13
HETATM   13  O           1     -16.806 -12.287   0.568  0.00  0.00    -0.247 OA
BRANCH  13  14
HETATM   14  P           1     -16.318 -13.826   0.525  0.00  0.00     0.411 P 
HETATM   15  O           1     -16.712 -14.432  -0.767  0.00  0.00    -0.624 OA
HETATM   16  O           1     -14.846 -13.879   0.667  0.00  0.00    -0.624 OA
BRANCH  14  17
HETATM   17  O           1     -17.006 -14.644   1.735  0.00  0.00    -0.300 OA
HETATM   18  H           1     -16.896 -14.095   2.493  0.00  0.00     0.223 HD
ENDBRANCH  14  17
ENDBRANCH  13  14
ENDBRANCH  10  13
ENDBRANCH   6   7
ENDBRANCH   5   6
BRANCH   5  19
HETATM   19  N           1     -19.268 -10.610  -6.024  0.00  0.00    -0.066 N 
HETATM   20  H           1     -18.454 -10.358  -6.629  0.00  0.00     0.275 HD
HETATM   21  H           1     -19.243 -11.634  -5.815  0.00  0.00     0.275 HD
HETATM   22  H           1     -20.157 -10.376  -6.521  0.00  0.00     0.275 HD
ENDBRANCH   5  19
ENDBRANCH   2   5
BRANCH   1  23
HETATM   23  C           1     -21.129  -7.652  -3.042  0.00  0.00     0.190 C 
BRANCH  23  24
HETATM   24  C           1     -21.902  -6.368  -3.218  0.00  0.00     0.197 C 
HETATM   25  O           1     -22.451  -6.114  -4.311  0.00  0.00    -0.646 OA
HETATM   26  O           1     -21.991  -5.558  -2.271  0.00  0.00    -0.646 OA
ENDBRANCH  23  24
BRANCH  23  27
HETATM   27  C           1     -20.719  -7.803  -1.583  0.00  0.00     0.077 C 
BRANCH  27  28
HETATM   28  C           1     -21.841  -8.420  -0.810  0.00  0.00    -0.028 A 
HETATM   29  C           1     -22.509  -7.847   0.249  0.00  0.00     0.096 A 
HETATM   30  N           1     -23.461  -8.735   0.674  0.00  0.00    -0.365 N 
HETATM   31  H           1     -24.125  -8.567   1.470  0.00  0.00     0.165 HD
HETATM   32  C           1     -23.423  -9.877  -0.093  0.00  0.00     0.042 A 
HETATM   33  C           1     -24.201 -11.040  -0.024  0.00  0.00     0.030 A 
HETATM   34  C           1     -22.409  -9.705  -1.036  0.00  0.00    -0.002 A 
HETATM   35  C           1     -23.932 -12.053  -0.949  0.00  0.00     0.002 A 
HETATM   36  C           1     -22.926 -11.907  -1.902  0.00  0.00     0.001 A 
HETATM   37  C           1     -22.157 -10.739  -1.957  0.00  0.00     0.014 A 
ENDBRANCH  27  28
ENDBRANCH  23  27
ENDBRANCH   1  23
TORSDOF 11
ENDMDL
MODEL 7
REMARK VINA RESULT:      -8.0      2.848      4.323
REMARK  11 active torsions:
REMARK  status: ('A' for Active; 'I' for Inactive)
REMARK    1  A    between atoms: N_2  and  C_26 
REMARK       I    between atoms: N_2  and  C_3 
REMARK    2  A    between atoms: C_3  and  C_4 
REMARK    3  A    between atoms: C_4  and  C_5 
REMARK    4  A    between atoms: C_4  and  N_17 
REMARK    5  A    between atoms: C_5  and  C_6 
REMARK    6  A    between atoms: C_9  and  O_10 
REMARK    7  A    between atoms: O_10  and  P_11 
REMARK    8  A    between atoms: P_11  and  O_12 
REMARK    9  A    between atoms: C_24  and  C_26 
REMARK   10  A    between atoms: C_26  and  C_27 
REMARK   11  A    between atoms: C_27  and  C_28 
ROOT
HETATM    1  N           1     -21.124  -9.466  -3.514  0.00  0.00    -0.344 N 
HETATM    2  C           1     -21.198  -8.797  -4.706  0.00  0.00     0.249 C 
HETATM    3  O           1     -21.103  -9.404  -5.746  0.00  0.00    -0.271 OA
HETATM    4  H           1     -21.965  -9.830  -3.084  0.00  0.00     0.163 HD
ENDROOT
BRANCH   2   5
HETATM    5  C           1     -21.402  -7.301  -4.721  0.00  0.00     0.278 C 
BRANCH   5   6
HETATM    6  C           1     -20.332  -6.651  -5.588  0.00  0.00     0.081 C 
BRANCH   6   7
HETATM    7  C           1     -20.984  -5.781  -6.618  0.00  0.00    -0.056 A 
HETATM    8  C           1     -20.334  -5.523  -7.825  0.00  0.00     0.010 A 
HETATM    9  C           1     -20.941  -4.712  -8.783  0.00  0.00     0.038 A 
HETATM   10  C           1     -22.198  -4.160  -8.535  0.00  0.00     0.081 A 
HETATM   11  C           1     -22.847  -4.418  -7.328  0.00  0.00     0.038 A 
HETATM   12  C           1     -22.240  -5.229  -6.369  0.00  0.00     0.010 A 
BRANCH  10  13
HETATM   13  O           1     -22.788  -3.371  -9.466  0.00  0.00    -0.247 OA
BRANCH  13  14
HETATM   14  P           1     -23.650  -4.087 -10.630  0.00  0.00     0.411 P 
HETATM   15  O           1     -24.072  -5.430 -10.175  0.00  0.00    -0.624 OA
HETATM   16  O           1     -24.845  -3.268 -10.932  0.00  0.00    -0.624 OA
BRANCH  14  17
HETATM   17  O           1     -22.745  -4.229 -11.960  0.00  0.00    -0.300 OA
HETATM   18  H           1     -22.373  -5.093 -11.910  0.00  0.00     0.223 HD
ENDBRANCH  14  17
ENDBRANCH  13  14
ENDBRANCH  10  13
ENDBRANCH   6   7
ENDBRANCH   5   6
BRANCH   5  19
HETATM   19  N           1     -21.300  -6.770  -3.321  0.00  0.00    -0.066 N 
HETATM   20  H           1     -21.202  -5.731  -3.350  0.00  0.00     0.275 HD
HETATM   21  H           1     -22.163  -7.024  -2.789  0.00  0.00     0.275 HD
HETATM   22  H           1     -20.465  -7.187  -2.850  0.00  0.00     0.275 HD
ENDBRANCH   5  19
ENDBRANCH   2   5
BRANCH   1  23
HETATM   23  C           1     -19.841  -9.651  -2.865  0.00  0.00     0.190 C 
BRANCH  23  24
HETATM   24  C           1     -19.378 -11.073  -3.063  0.00  0.00     0.197 C 
HETATM   25  O           1     -19.992 -11.826  -3.849  0.00  0.00    -0.646 OA
HETATM   26  O           1     -18.381 -11.499  -2.441  0.00  0.00    -0.646 OA
ENDBRANCH  23  24
BRANCH  23  27
HETATM   27  C           1     -19.978  -9.363  -1.376  0.00  0.00     0.077 C 
BRANCH  27  28
HETATM   28  C           1     -21.292  -9.886  -0.885  0.00  0.00    -0.028 A 
HETATM   29  C           1     -22.504  -9.238  -0.965  0.00  0.00     0.096 A 
HETATM   30  N           1     -23.451 -10.053  -0.405  0.00  0.00    -0.365 N 
HETATM   31  H           1     -24.472  -9.820  -0.325  0.00  0.00     0.165 HD
HETATM   32  C           1     -22.873 -11.221   0.039  0.00  0.00     0.042 A 
HETATM   33  C           1     -23.447 -12.332   0.669  0.00  0.00     0.030 A 
HETATM   34  C           1     -21.511 -11.141  -0.252  0.00  0.00    -0.002 A 
HETATM   35  C           1     -22.599 -13.390   1.011  0.00  0.00     0.002 A 
HETATM   36  C           1     -21.235 -13.337   0.732  0.00  0.00     0.001 A 
HETATM   37  C           1     -20.678 -12.219   0.100  0.00  0.00     0.014 A 
ENDBRANCH  27  28
ENDBRANCH  23  27
ENDBRANCH   1  23
TORSDOF 11
ENDMDL
MODEL 8
REMARK VINA RESULT:      -7.9      4.259      6.035
REMARK  11 active torsions:
REMARK  status: ('A' for Active; 'I' for Inactive)
REMARK    1  A    between atoms: N_2  and  C_26 
REMARK       I    between atoms: N_2  and  C_3 
REMARK    2  A    between atoms: C_3  and  C_4 
REMARK    3  A    between atoms: C_4  and  C_5 
REMARK    4  A    between atoms: C_4  and  N_17 
REMARK    5  A    between atoms: C_5  and  C_6 
REMARK    6  A    between atoms: C_9  and  O_10 
REMARK    7  A    between atoms: O_10  and  P_11 
REMARK    8  A    between atoms: P_11  and  O_12 
REMARK    9  A    between atoms: C_24  and  C_26 
REMARK   10  A    between atoms: C_26  and  C_27 
REMARK   11  A    between atoms: C_27  and  C_28 
ROOT
HETATM    1  N           1     -20.608 -11.476   0.676  0.00  0.00    -0.344 N 
HETATM    2  C           1     -21.939 -11.635   0.397  0.00  0.00     0.249 C 
HETATM    3  O           1     -22.521 -12.625   0.773  0.00  0.00    -0.271 OA
HETATM    4  H           1     -20.321 -11.013   1.529  0.00  0.00     0.163 HD
ENDROOT
BRANCH   2   5
HETATM    5  C           1     -22.680 -10.572  -0.376  0.00  0.00     0.278 C 
BRANCH   5   6
HETATM    6  C           1     -22.296  -9.197   0.154  0.00  0.00     0.081 C 
BRANCH   6   7
HETATM    7  C           1     -21.916  -8.309  -0.990  0.00  0.00    -0.056 A 
HETATM    8  C           1     -22.340  -6.980  -1.011  0.00  0.00     0.010 A 
HETATM    9  C           1     -21.987  -6.153  -2.078  0.00  0.00     0.038 A 
HETATM   10  C           1     -21.209  -6.654  -3.121  0.00  0.00     0.081 A 
HETATM   11  C           1     -20.786  -7.983  -3.100  0.00  0.00     0.038 A 
HETATM   12  C           1     -21.139  -8.810  -2.033  0.00  0.00     0.010 A 
BRANCH  10  13
HETATM   13  O           1     -20.866  -5.851  -4.157  0.00  0.00    -0.247 OA
BRANCH  13  14
HETATM   14  P           1     -21.676  -6.014  -5.545  0.00  0.00     0.411 P 
HETATM   15  O           1     -21.476  -4.807  -6.377  0.00  0.00    -0.624 OA
HETATM   16  O           1     -21.177  -7.204  -6.270  0.00  0.00    -0.624 OA
BRANCH  14  17
HETATM   17  O           1     -23.250  -6.196  -5.231  0.00  0.00    -0.300 OA
HETATM   18  H           1     -23.316  -7.023  -4.786  0.00  0.00     0.223 HD
ENDBRANCH  14  17
ENDBRANCH  13  14
ENDBRANCH  10  13
ENDBRANCH   6   7
ENDBRANCH   5   6
BRANCH   5  19
HETATM   19  N           1     -24.158 -10.775  -0.212  0.00  0.00    -0.066 N 
HETATM   20  H           1     -24.446 -11.649  -0.708  0.00  0.00     0.275 HD
HETATM   21  H           1     -24.387 -10.860   0.804  0.00  0.00     0.275 HD
HETATM   22  H           1     -24.669  -9.959  -0.618  0.00  0.00     0.275 HD
ENDBRANCH   5  19
ENDBRANCH   2   5
BRANCH   1  23
HETATM   23  C           1     -19.610 -11.971  -0.252  0.00  0.00     0.190 C 
BRANCH  23  24
HETATM   24  C           1     -19.760 -13.465  -0.402  0.00  0.00     0.197 C 
HETATM   25  O           1     -20.094 -13.952  -1.504  0.00  0.00    -0.646 OA
HETATM   26  O           1     -19.552 -14.216   0.575  0.00  0.00    -0.646 OA
ENDBRANCH  23  24
BRANCH  23  27
HETATM   27  C           1     -18.220 -11.651   0.281  0.00  0.00     0.077 C 
BRANCH  27  28
HETATM   28  C           1     -17.202 -11.920  -0.783  0.00  0.00    -0.028 A 
HETATM   29  C           1     -16.287 -12.948  -0.789  0.00  0.00     0.096 A 
HETATM   30  N           1     -15.544 -12.840  -1.934  0.00  0.00    -0.365 N 
HETATM   31  H           1     -14.766 -13.490  -2.209  0.00  0.00     0.165 HD
HETATM   32  C           1     -15.962 -11.756  -2.673  0.00  0.00     0.042 A 
HETATM   33  C           1     -15.499 -11.264  -3.900  0.00  0.00     0.030 A 
HETATM   34  C           1     -17.007 -11.158  -1.968  0.00  0.00    -0.002 A 
HETATM   35  C           1     -16.127 -10.127  -4.418  0.00  0.00     0.002 A 
HETATM   36  C           1     -17.173  -9.510  -3.736  0.00  0.00     0.001 A 
HETATM   37  C           1     -17.624 -10.015  -2.511  0.00  0.00     0.014 A 
ENDBRANCH  27  28
ENDBRANCH  23  27
ENDBRANCH   1  23
TORSDOF 11
ENDMDL
MODEL 9
REMARK VINA RESULT:      -7.5     16.779     18.488
REMARK  11 active torsions:
REMARK  status: ('A' for Active; 'I' for Inactive)
REMARK    1  A    between atoms: N_2  and  C_26 
REMARK       I    between atoms: N_2  and  C_3 
REMARK    2  A    between atoms: C_3  and  C_4 
REMARK    3  A    between atoms: C_4  and  C_5 
REMARK    4  A    between atoms: C_4  and  N_17 
REMARK    5  A    between atoms: C_5  and  C_6 
REMARK    6  A    between atoms: C_9  and  O_10 
REMARK    7  A    between atoms: O_10  and  P_11 
REMARK    8  A    between atoms: P_11  and  O_12 
REMARK    9  A    between atoms: C_24  and  C_26 
REMARK   10  A    between atoms: C_26  and  C_27 
REMARK   11  A    between atoms: C_27  and  C_28 
ROOT
HETATM    1  N           1     -19.806  10.432   1.835  0.00  0.00    -0.344 N 
HETATM    2  C           1     -21.128  10.610   2.143  0.00  0.00     0.249 C 
HETATM    3  O           1     -21.625  11.709   2.062  0.00  0.00    -0.271 OA
HETATM    4  H           1     -19.533  10.208   0.887  0.00  0.00     0.163 HD
ENDROOT
BRANCH   2   5
HETATM    5  C           1     -21.966   9.433   2.581  0.00  0.00     0.278 C 
BRANCH   5   6
HETATM    6  C           1     -23.428   9.697   2.244  0.00  0.00     0.081 C 
BRANCH   6   7
HETATM    7  C           1     -23.836   8.839   1.087  0.00  0.00    -0.056 A 
HETATM    8  C           1     -25.188   8.672   0.786  0.00  0.00     0.010 A 
HETATM    9  C           1     -25.568   7.872  -0.292  0.00  0.00     0.038 A 
HETATM   10  C           1     -24.597   7.240  -1.069  0.00  0.00     0.081 A 
HETATM   11  C           1     -23.246   7.407  -0.767  0.00  0.00     0.038 A 
HETATM   12  C           1     -22.865   8.207   0.311  0.00  0.00     0.010 A 
BRANCH  10  13
HETATM   13  O           1     -24.967   6.462  -2.115  0.00  0.00    -0.247 OA
BRANCH  13  14
HETATM   14  P           1     -25.553   7.191  -3.432  0.00  0.00     0.411 P 
HETATM   15  O           1     -24.936   8.530  -3.569  0.00  0.00    -0.624 OA
HETATM   16  O           1     -25.238   6.376  -4.627  0.00  0.00    -0.624 OA
BRANCH  14  17
HETATM   17  O           1     -27.154   7.348  -3.293  0.00  0.00    -0.300 OA
HETATM   18  H           1     -27.461   6.496  -3.035  0.00  0.00     0.223 HD
ENDBRANCH  14  17
ENDBRANCH  13  14
ENDBRANCH  10  13
ENDBRANCH   6   7
ENDBRANCH   5   6
BRANCH   5  19
HETATM   19  N           1     -21.822   9.243   4.062  0.00  0.00    -0.066 N 
HETATM   20  H           1     -22.022   8.247   4.305  0.00  0.00     0.275 HD
HETATM   21  H           1     -20.846   9.482   4.350  0.00  0.00     0.275 HD
HETATM   22  H           1     -22.497   9.866   4.561  0.00  0.00     0.275 HD
ENDBRANCH   5  19
ENDBRANCH   2   5
BRANCH   1  23
HETATM   23  C           1     -18.798  10.565   2.869  0.00  0.00     0.190 C 
BRANCH  23  24
HETATM   24  C           1     -17.646  11.388   2.345  0.00  0.00     0.197 C 
HETATM   25  O           1     -17.431  12.527   2.811  0.00  0.00    -0.646 OA
HETATM   26  O           1     -16.909  10.931   1.446  0.00  0.00    -0.646 OA
ENDBRANCH  23  24
BRANCH  23  27
HETATM   27  C           1     -18.296   9.183   3.267  0.00  0.00     0.077 C 
BRANCH  27  28
HETATM   28  C           1     -17.664   9.252   4.622  0.00  0.00    -0.028 A 
HETATM   29  C           1     -18.321   9.462   5.813  0.00  0.00     0.096 A 
HETATM   30  N           1     -17.386   9.455   6.814  0.00  0.00    -0.365 N 
HETATM   31  H           1     -17.597   9.592   7.834  0.00  0.00     0.165 HD
HETATM   32  C           1     -16.130   9.242   6.291  0.00  0.00     0.042 A 
HETATM   33  C           1     -14.886   9.156   6.928  0.00  0.00     0.030 A 
HETATM   34  C           1     -16.279   9.111   4.910  0.00  0.00    -0.002 A 
HETATM   35  C           1     -13.764   8.930   6.127  0.00  0.00     0.002 A 
HETATM   36  C           1     -13.882   8.795   4.746  0.00  0.00     0.001 A 
HETATM   37  C           1     -15.133   8.882   4.124  0.00  0.00     0.014 A 
ENDBRANCH  27  28
ENDBRANCH  23  27
ENDBRANCH   1  23
TORSDOF 11
ENDMDL
