MODEL 1
REMARK VINA RESULT:      -5.0      0.000      0.000
REMARK  6 active torsions:
REMARK  status: ('A' for Active; 'I' for Inactive)
REMARK    1  A    between atoms: C_1  and  O_6 
REMARK    2  A    between atoms: C_1  and  C_2 
REMARK    3  A    between atoms: C_2  and  C_9 
REMARK    4  A    between atoms: C_2  and  N_15 
REMARK    5  A    between atoms: N_10  and  C_14 
REMARK    6  A    between atoms: C_14  and  C_16 
REMARK       I    between atoms: N_15  and  C_16 
ROOT
HETATM    1  H           1     -22.429  -5.827  -9.249  0.00  0.00     0.163 HD
HETATM    2  O           1     -21.521  -3.370  -7.524  0.00  0.00    -0.272 OA
HETATM    3  N           1     -22.269  -4.856  -9.013  0.00  0.00    -0.343 N 
HETATM    4  C           1     -21.712  -4.529  -7.806  0.00  0.00     0.243 C 
ENDROOT
BRANCH   3   5
HETATM    5  C           1     -22.628  -3.813  -9.954  0.00  0.00     0.209 C 
BRANCH   5   6
HETATM    6  C           1     -21.855  -4.012 -11.251  0.00  0.00     0.200 C 
BRANCH   6   7
HETATM    7  O           1     -22.700  -4.575 -12.217  0.00  0.00    -0.398 OA
HETATM    8  H           1     -22.537  -4.117 -13.024  0.00  0.00     0.209 HD
ENDBRANCH   6   7
ENDBRANCH   5   6
BRANCH   5   9
HETATM    9  C           1     -24.109  -3.879 -10.235  0.00  0.00     0.198 C 
HETATM   10  O           1     -24.679  -2.926 -10.810  0.00  0.00    -0.646 OA
HETATM   11  O           1     -24.766  -4.885  -9.893  0.00  0.00    -0.646 OA
ENDBRANCH   5   9
ENDBRANCH   3   5
BRANCH   4  12
HETATM   12  C           1     -21.339  -5.615  -6.827  0.00  0.00     0.332 C 
BRANCH  12  13
HETATM   13  N           1     -20.068  -6.275  -7.273  0.00  0.00    -0.071 N 
HETATM   14  H           1     -19.814  -5.933  -8.228  0.00  0.00     0.274 HD
HETATM   15  H           1     -19.300  -6.039  -6.604  0.00  0.00     0.274 HD
HETATM   16  H           1     -20.203  -7.311  -7.298  0.00  0.00     0.274 HD
ENDBRANCH  12  13
ENDBRANCH   4  12
TORSDOF 6
ENDMDL
MODEL 2
REMARK VINA RESULT:      -4.8      1.425      2.343
REMARK  6 active torsions:
REMARK  status: ('A' for Active; 'I' for Inactive)
REMARK    1  A    between atoms: C_1  and  O_6 
REMARK    2  A    between atoms: C_1  and  C_2 
REMARK    3  A    between atoms: C_2  and  C_9 
REMARK    4  A    between atoms: C_2  and  N_15 
REMARK    5  A    between atoms: N_10  and  C_14 
REMARK    6  A    between atoms: C_14  and  C_16 
REMARK       I    between atoms: N_15  and  C_16 
ROOT
HETATM    1  H           1     -22.724  -2.557  -8.365  0.00  0.00     0.163 HD
HETATM    2  O           1     -21.635  -5.493  -8.180  0.00  0.00    -0.272 OA
HETATM    3  N           1     -22.637  -3.540  -8.589  0.00  0.00    -0.343 N 
HETATM    4  C           1     -21.737  -4.320  -7.913  0.00  0.00     0.243 C 
ENDROOT
BRANCH   3   5
HETATM    5  C           1     -23.467  -4.123  -9.626  0.00  0.00     0.209 C 
BRANCH   5   6
HETATM    6  C           1     -24.834  -3.451  -9.618  0.00  0.00     0.200 C 
BRANCH   6   7
HETATM    7  O           1     -25.197  -3.114 -10.929  0.00  0.00    -0.398 OA
HETATM    8  H           1     -24.547  -2.512 -11.248  0.00  0.00     0.209 HD
ENDBRANCH   6   7
ENDBRANCH   5   6
BRANCH   5   9
HETATM    9  C           1     -22.811  -3.915 -10.969  0.00  0.00     0.198 C 
HETATM   10  O           1     -23.008  -4.734 -11.893  0.00  0.00    -0.646 OA
HETATM   11  O           1     -22.073  -2.925 -11.158  0.00  0.00    -0.646 OA
ENDBRANCH   5   9
ENDBRANCH   3   5
BRANCH   4  12
HETATM   12  C           1     -20.874  -3.713  -6.834  0.00  0.00     0.332 C 
BRANCH  12  13
HETATM   13  N           1     -20.517  -4.766  -5.828  0.00  0.00    -0.071 N 
HETATM   14  H           1     -21.075  -5.630  -6.014  0.00  0.00     0.274 HD
HETATM   15  H           1     -19.498  -4.988  -5.903  0.00  0.00     0.274 HD
HETATM   16  H           1     -20.727  -4.415  -4.866  0.00  0.00     0.274 HD
ENDBRANCH  12  13
ENDBRANCH   4  12
TORSDOF 6
ENDMDL
MODEL 3
REMARK VINA RESULT:      -4.5      9.513     11.098
REMARK  6 active torsions:
REMARK  status: ('A' for Active; 'I' for Inactive)
REMARK    1  A    between atoms: C_1  and  O_6 
REMARK    2  A    between atoms: C_1  and  C_2 
REMARK    3  A    between atoms: C_2  and  C_9 
REMARK    4  A    between atoms: C_2  and  N_15 
REMARK    5  A    between atoms: N_10  and  C_14 
REMARK    6  A    between atoms: C_14  and  C_16 
REMARK       I    between atoms: N_15  and  C_16 
ROOT
HETATM    1  H           1     -28.232  -3.973 -18.428  0.00  0.00     0.163 HD
HETATM    2  O           1     -30.439  -5.925 -17.352  0.00  0.00    -0.272 OA
HETATM    3  N           1     -28.650  -4.850 -18.144  0.00  0.00    -0.343 N 
HETATM    4  C           1     -29.941  -4.878 -17.689  0.00  0.00     0.243 C 
ENDROOT
BRANCH   3   5
HETATM    5  C           1     -27.881  -6.077 -18.221  0.00  0.00     0.209 C 
BRANCH   5   6
HETATM    6  C           1     -27.302  -6.226 -19.622  0.00  0.00     0.200 C 
BRANCH   6   7
HETATM    7  O           1     -27.333  -7.576 -20.000  0.00  0.00    -0.398 OA
HETATM    8  H           1     -26.444  -7.829 -20.183  0.00  0.00     0.209 HD
ENDBRANCH   6   7
ENDBRANCH   5   6
BRANCH   5   9
HETATM    9  C           1     -26.757  -6.029 -17.215  0.00  0.00     0.198 C 
HETATM   10  O           1     -25.607  -6.393 -17.544  0.00  0.00    -0.646 OA
HETATM   11  O           1     -26.976  -5.625 -16.053  0.00  0.00    -0.646 OA
ENDBRANCH   5   9
ENDBRANCH   3   5
BRANCH   4  12
HETATM   12  C           1     -30.740  -3.601 -17.609  0.00  0.00     0.332 C 
BRANCH  12  13
HETATM   13  N           1     -29.806  -2.430 -17.542  0.00  0.00    -0.071 N 
HETATM   14  H           1     -29.121  -2.484 -18.330  0.00  0.00     0.274 HD
HETATM   15  H           1     -30.354  -1.542 -17.619  0.00  0.00     0.274 HD
HETATM   16  H           1     -29.292  -2.445 -16.632  0.00  0.00     0.274 HD
ENDBRANCH  12  13
ENDBRANCH   4  12
TORSDOF 6
ENDMDL
MODEL 4
REMARK VINA RESULT:      -4.4      9.905     11.790
REMARK  6 active torsions:
REMARK  status: ('A' for Active; 'I' for Inactive)
REMARK    1  A    between atoms: C_1  and  O_6 
REMARK    2  A    between atoms: C_1  and  C_2 
REMARK    3  A    between atoms: C_2  and  C_9 
REMARK    4  A    between atoms: C_2  and  N_15 
REMARK    5  A    between atoms: N_10  and  C_14 
REMARK    6  A    between atoms: C_14  and  C_16 
REMARK       I    between atoms: N_15  and  C_16 
ROOT
HETATM    1  H           1     -31.320  -6.088 -16.063  0.00  0.00     0.163 HD
HETATM    2  O           1     -31.320  -3.288 -17.476  0.00  0.00    -0.272 OA
HETATM    3  N           1     -30.944  -5.284 -16.550  0.00  0.00    -0.343 N 
HETATM    4  C           1     -31.769  -4.247 -16.897  0.00  0.00     0.243 C 
ENDROOT
BRANCH   3   5
HETATM    5  C           1     -29.533  -5.230 -16.878  0.00  0.00     0.209 C 
BRANCH   5   6
HETATM    6  C           1     -28.712  -5.603 -15.651  0.00  0.00     0.200 C 
BRANCH   6   7
HETATM    7  O           1     -27.359  -5.327 -15.892  0.00  0.00    -0.398 OA
HETATM    8  H           1     -27.233  -5.367 -16.824  0.00  0.00     0.209 HD
ENDBRANCH   6   7
ENDBRANCH   5   6
BRANCH   5   9
HETATM    9  C           1     -29.240  -6.202 -17.995  0.00  0.00     0.198 C 
HETATM   10  O           1     -28.160  -6.129 -18.620  0.00  0.00    -0.646 OA
HETATM   11  O           1     -30.077  -7.081 -18.294  0.00  0.00    -0.646 OA
ENDBRANCH   5   9
ENDBRANCH   3   5
BRANCH   4  12
HETATM   12  C           1     -33.237  -4.305 -16.554  0.00  0.00     0.332 C 
BRANCH  12  13
HETATM   13  N           1     -33.925  -3.086 -17.094  0.00  0.00    -0.071 N 
HETATM   14  H           1     -33.419  -2.230 -16.774  0.00  0.00     0.274 HD
HETATM   15  H           1     -33.923  -3.120 -18.139  0.00  0.00     0.274 HD
HETATM   16  H           1     -34.911  -3.060 -16.748  0.00  0.00     0.274 HD
ENDBRANCH  12  13
ENDBRANCH   4  12
TORSDOF 6
ENDMDL
MODEL 5
REMARK VINA RESULT:      -4.4     10.208     11.233
REMARK  6 active torsions:
REMARK  status: ('A' for Active; 'I' for Inactive)
REMARK    1  A    between atoms: C_1  and  O_6 
REMARK    2  A    between atoms: C_1  and  C_2 
REMARK    3  A    between atoms: C_2  and  C_9 
REMARK    4  A    between atoms: C_2  and  N_15 
REMARK    5  A    between atoms: N_10  and  C_14 
REMARK    6  A    between atoms: C_14  and  C_16 
REMARK       I    between atoms: N_15  and  C_16 
ROOT
HETATM    1  H           1     -27.990  -7.117 -20.019  0.00  0.00     0.163 HD
HETATM    2  O           1     -26.239  -6.119 -17.616  0.00  0.00    -0.272 OA
HETATM    3  N           1     -27.784  -6.764 -19.093  0.00  0.00    -0.343 N 
HETATM    4  C           1     -26.485  -6.541 -18.720  0.00  0.00     0.243 C 
ENDROOT
BRANCH   3   5
HETATM    5  C           1     -28.863  -6.494 -18.163  0.00  0.00     0.209 C 
BRANCH   5   6
HETATM    6  C           1     -29.391  -5.084 -18.395  0.00  0.00     0.200 C 
BRANCH   6   7
HETATM    7  O           1     -28.646  -4.174 -17.632  0.00  0.00    -0.398 OA
HETATM    8  H           1     -28.914  -3.311 -17.896  0.00  0.00     0.209 HD
ENDBRANCH   6   7
ENDBRANCH   5   6
BRANCH   5   9
HETATM    9  C           1     -29.974  -7.491 -18.381  0.00  0.00     0.198 C 
HETATM   10  O           1     -29.797  -8.469 -19.140  0.00  0.00    -0.646 OA
HETATM   11  O           1     -31.071  -7.340 -17.803  0.00  0.00    -0.646 OA
ENDBRANCH   5   9
ENDBRANCH   3   5
BRANCH   4  12
HETATM   12  C           1     -25.363  -6.822 -19.689  0.00  0.00     0.332 C 
BRANCH  12  13
HETATM   13  N           1     -24.244  -7.514 -18.970  0.00  0.00    -0.071 N 
HETATM   14  H           1     -24.608  -8.375 -18.504  0.00  0.00     0.274 HD
HETATM   15  H           1     -23.500  -7.778 -19.656  0.00  0.00     0.274 HD
HETATM   16  H           1     -23.841  -6.872 -18.250  0.00  0.00     0.274 HD
ENDBRANCH  12  13
ENDBRANCH   4  12
TORSDOF 6
ENDMDL
MODEL 6
REMARK VINA RESULT:      -4.2      1.992      4.508
REMARK  6 active torsions:
REMARK  status: ('A' for Active; 'I' for Inactive)
REMARK    1  A    between atoms: C_1  and  O_6 
REMARK    2  A    between atoms: C_1  and  C_2 
REMARK    3  A    between atoms: C_2  and  C_9 
REMARK    4  A    between atoms: C_2  and  N_15 
REMARK    5  A    between atoms: N_10  and  C_14 
REMARK    6  A    between atoms: C_14  and  C_16 
REMARK       I    between atoms: N_15  and  C_16 
ROOT
HETATM    1  H           1     -23.015  -3.889  -7.775  0.00  0.00     0.163 HD
HETATM    2  O           1     -22.224  -4.629 -10.719  0.00  0.00    -0.272 OA
HETATM    3  N           1     -22.470  -4.295  -8.525  0.00  0.00    -0.343 N 
HETATM    4  C           1     -22.875  -4.145  -9.824  0.00  0.00     0.243 C 
ENDROOT
BRANCH   3   5
HETATM    5  C           1     -21.260  -5.036  -8.223  0.00  0.00     0.209 C 
BRANCH   5   6
HETATM    6  C           1     -20.095  -4.065  -8.079  0.00  0.00     0.200 C 
BRANCH   6   7
HETATM    7  O           1     -19.279  -4.469  -7.013  0.00  0.00    -0.398 OA
HETATM    8  H           1     -19.168  -3.720  -6.453  0.00  0.00     0.209 HD
ENDBRANCH   6   7
ENDBRANCH   5   6
BRANCH   5   9
HETATM    9  C           1     -21.446  -5.795  -6.932  0.00  0.00     0.198 C 
HETATM   10  O           1     -22.148  -5.312  -6.018  0.00  0.00    -0.646 OA
HETATM   11  O           1     -20.898  -6.908  -6.778  0.00  0.00    -0.646 OA
ENDBRANCH   5   9
ENDBRANCH   3   5
BRANCH   4  12
HETATM   12  C           1     -24.134  -3.374 -10.137  0.00  0.00     0.332 C 
BRANCH  12  13
HETATM   13  N           1     -25.315  -4.082  -9.542  0.00  0.00    -0.071 N 
HETATM   14  H           1     -25.009  -5.002  -9.151  0.00  0.00     0.274 HD
HETATM   15  H           1     -25.722  -3.497  -8.777  0.00  0.00     0.274 HD
HETATM   16  H           1     -26.036  -4.241 -10.282  0.00  0.00     0.274 HD
ENDBRANCH  12  13
ENDBRANCH   4  12
TORSDOF 6
ENDMDL
MODEL 7
REMARK VINA RESULT:      -4.1      1.932      4.623
REMARK  6 active torsions:
REMARK  status: ('A' for Active; 'I' for Inactive)
REMARK    1  A    between atoms: C_1  and  O_6 
REMARK    2  A    between atoms: C_1  and  C_2 
REMARK    3  A    between atoms: C_2  and  C_9 
REMARK    4  A    between atoms: C_2  and  N_15 
REMARK    5  A    between atoms: N_10  and  C_14 
REMARK    6  A    between atoms: C_14  and  C_16 
REMARK       I    between atoms: N_15  and  C_16 
ROOT
HETATM    1  H           1     -20.774  -5.190  -9.261  0.00  0.00     0.163 HD
HETATM    2  O           1     -23.232  -3.266  -9.572  0.00  0.00    -0.272 OA
HETATM    3  N           1     -21.498  -4.542  -8.979  0.00  0.00    -0.343 N 
HETATM    4  C           1     -22.367  -4.039  -9.910  0.00  0.00     0.243 C 
ENDROOT
BRANCH   3   5
HETATM    5  C           1     -21.615  -4.147  -7.589  0.00  0.00     0.209 C 
BRANCH   5   6
HETATM    6  C           1     -22.656  -5.019  -6.900  0.00  0.00     0.200 C 
BRANCH   6   7
HETATM    7  O           1     -23.876  -4.329  -6.837  0.00  0.00    -0.398 OA
HETATM    8  H           1     -23.680  -3.416  -6.958  0.00  0.00     0.209 HD
ENDBRANCH   6   7
ENDBRANCH   5   6
BRANCH   5   9
HETATM    9  C           1     -20.281  -4.320  -6.905  0.00  0.00     0.198 C 
HETATM   10  O           1     -20.229  -4.468  -5.664  0.00  0.00    -0.646 OA
HETATM   11  O           1     -19.228  -4.315  -7.578  0.00  0.00    -0.646 OA
ENDBRANCH   5   9
ENDBRANCH   3   5
BRANCH   4  12
HETATM   12  C           1     -22.245  -4.451 -11.356  0.00  0.00     0.332 C 
BRANCH  12  13
HETATM   13  N           1     -21.184  -3.628 -12.022  0.00  0.00    -0.071 N 
HETATM   14  H           1     -20.258  -3.828 -11.580  0.00  0.00     0.274 HD
HETATM   15  H           1     -21.142  -3.870 -13.039  0.00  0.00     0.274 HD
HETATM   16  H           1     -21.410  -2.613 -11.915  0.00  0.00     0.274 HD
ENDBRANCH  12  13
ENDBRANCH   4  12
TORSDOF 6
ENDMDL
MODEL 8
REMARK VINA RESULT:      -4.1     10.052     11.274
REMARK  6 active torsions:
REMARK  status: ('A' for Active; 'I' for Inactive)
REMARK    1  A    between atoms: C_1  and  O_6 
REMARK    2  A    between atoms: C_1  and  C_2 
REMARK    3  A    between atoms: C_2  and  C_9 
REMARK    4  A    between atoms: C_2  and  N_15 
REMARK    5  A    between atoms: N_10  and  C_14 
REMARK    6  A    between atoms: C_14  and  C_16 
REMARK       I    between atoms: N_15  and  C_16 
ROOT
HETATM    1  H           1     -29.221  -4.600 -19.053  0.00  0.00     0.163 HD
HETATM    2  O           1     -28.010  -4.329 -16.172  0.00  0.00    -0.272 OA
HETATM    3  N           1     -28.718  -4.873 -18.218  0.00  0.00    -0.343 N 
HETATM    4  C           1     -28.610  -4.002 -17.167  0.00  0.00     0.243 C 
ENDROOT
BRANCH   3   5
HETATM    5  C           1     -28.112  -6.188 -18.136  0.00  0.00     0.209 C 
BRANCH   5   6
HETATM    6  C           1     -29.181  -7.253 -18.341  0.00  0.00     0.200 C 
BRANCH   6   7
HETATM    7  O           1     -28.783  -8.124 -19.365  0.00  0.00    -0.398 OA
HETATM    8  H           1     -29.178  -7.811 -20.160  0.00  0.00     0.209 HD
ENDBRANCH   6   7
ENDBRANCH   5   6
BRANCH   5   9
HETATM    9  C           1     -27.055  -6.321 -19.205  0.00  0.00     0.198 C 
HETATM   10  O           1     -27.314  -5.994 -20.383  0.00  0.00    -0.646 OA
HETATM   11  O           1     -25.922  -6.758 -18.913  0.00  0.00    -0.646 OA
ENDBRANCH   5   9
ENDBRANCH   3   5
BRANCH   4  12
HETATM   12  C           1     -29.241  -2.634 -17.254  0.00  0.00     0.332 C 
BRANCH  12  13
HETATM   13  N           1     -30.700  -2.775 -17.571  0.00  0.00    -0.071 N 
HETATM   14  H           1     -30.812  -3.252 -18.493  0.00  0.00     0.274 HD
HETATM   15  H           1     -31.164  -3.344 -16.827  0.00  0.00     0.274 HD
HETATM   16  H           1     -31.141  -1.828 -17.612  0.00  0.00     0.274 HD
ENDBRANCH  12  13
ENDBRANCH   4  12
TORSDOF 6
ENDMDL
MODEL 9
REMARK VINA RESULT:      -4.0     10.239     10.872
REMARK  6 active torsions:
REMARK  status: ('A' for Active; 'I' for Inactive)
REMARK    1  A    between atoms: C_1  and  O_6 
REMARK    2  A    between atoms: C_1  and  C_2 
REMARK    3  A    between atoms: C_2  and  C_9 
REMARK    4  A    between atoms: C_2  and  N_15 
REMARK    5  A    between atoms: N_10  and  C_14 
REMARK    6  A    between atoms: C_14  and  C_16 
REMARK       I    between atoms: N_15  and  C_16 
ROOT
HETATM    1  H           1     -29.323  -5.349 -19.321  0.00  0.00     0.163 HD
HETATM    2  O           1     -26.777  -5.808 -17.548  0.00  0.00    -0.272 OA
HETATM    3  N           1     -28.730  -5.302 -18.502  0.00  0.00    -0.343 N 
HETATM    4  C           1     -27.483  -5.866 -18.525  0.00  0.00     0.243 C 
ENDROOT
BRANCH   3   5
HETATM    5  C           1     -29.203  -4.635 -17.304  0.00  0.00     0.209 C 
BRANCH   5   6
HETATM    6  C           1     -30.202  -3.551 -17.688  0.00  0.00     0.200 C 
BRANCH   6   7
HETATM    7  O           1     -29.615  -2.290 -17.513  0.00  0.00    -0.398 OA
HETATM    8  H           1     -28.689  -2.398 -17.648  0.00  0.00     0.209 HD
ENDBRANCH   6   7
ENDBRANCH   5   6
BRANCH   5   9
HETATM    9  C           1     -29.872  -5.641 -16.401  0.00  0.00     0.198 C 
HETATM   10  O           1     -29.597  -5.666 -15.181  0.00  0.00    -0.646 OA
HETATM   11  O           1     -30.702  -6.448 -16.870  0.00  0.00    -0.646 OA
ENDBRANCH   5   9
ENDBRANCH   3   5
BRANCH   4  12
HETATM   12  C           1     -26.993  -6.560 -19.772  0.00  0.00     0.332 C 
BRANCH  12  13
HETATM   13  N           1     -25.586  -7.036 -19.560  0.00  0.00    -0.071 N 
HETATM   14  H           1     -25.275  -6.783 -18.594  0.00  0.00     0.274 HD
HETATM   15  H           1     -25.548  -8.074 -19.677  0.00  0.00     0.274 HD
HETATM   16  H           1     -24.955  -6.583 -20.259  0.00  0.00     0.274 HD
ENDBRANCH  12  13
ENDBRANCH   4  12
TORSDOF 6
ENDMDL
