MODEL 1
REMARK VINA RESULT:      -5.7      0.000      0.000
REMARK  7 active torsions:
REMARK  status: ('A' for Active; 'I' for Inactive)
REMARK    1  A    between atoms: C_1  and  C_15 
REMARK    2  A    between atoms: C_1  and  C_8 
REMARK    3  A    between atoms: C_1  and  N_18 
REMARK    4  A    between atoms: C_2  and  C_9 
REMARK    5  A    between atoms: C_2  and  C_3 
REMARK    6  A    between atoms: C_2  and  N_5 
REMARK       I    between atoms: C_9  and  N_18 
REMARK    7  A    between atoms: C_15  and  S_17 
ROOT
HETATM    1  C           1     -34.365  -2.330 -12.136  0.00  0.00     0.249 C 
HETATM    2  H           1     -35.384  -1.881 -13.881  0.00  0.00     0.163 HD
HETATM    3  O           1     -33.902  -1.879 -11.116  0.00  0.00    -0.271 OA
HETATM    4  N           1     -34.996  -1.503 -13.026  0.00  0.00    -0.344 N 
ENDROOT
BRANCH   1   5
HETATM    5  C           1     -34.246  -3.806 -12.431  0.00  0.00     0.278 C 
BRANCH   5   6
HETATM    6  C           1     -33.261  -4.440 -11.458  0.00  0.00     0.017 C 
HETATM    7  C           1     -33.848  -5.734 -10.912  0.00  0.00     0.012 C 
HETATM    8  C           1     -31.956  -4.740 -12.182  0.00  0.00     0.012 C 
ENDBRANCH   5   6
BRANCH   5   9
HETATM    9  N           1     -33.754  -3.996 -13.835  0.00  0.00    -0.066 N 
HETATM   10  H           1     -34.129  -3.233 -14.442  0.00  0.00     0.275 HD
HETATM   11  H           1     -32.710  -3.966 -13.845  0.00  0.00     0.275 HD
HETATM   12  H           1     -34.080  -4.921 -14.196  0.00  0.00     0.275 HD
ENDBRANCH   5   9
ENDBRANCH   1   5
BRANCH   4  13
HETATM   13  C           1     -35.110  -0.085 -12.742  0.00  0.00     0.194 C 
BRANCH  13  14
HETATM   14  C           1     -35.239   0.685 -14.050  0.00  0.00     0.106 C 
BRANCH  14  15
HETATM   15  S           1     -35.638  -0.466 -15.395  0.00  0.00    -0.180 SA
HETATM   16  H           1     -34.450  -0.371 -16.017  0.00  0.00     0.101 HD
ENDBRANCH  14  15
ENDBRANCH  13  14
BRANCH  13  17
HETATM   17  C           1     -36.331   0.160 -11.891  0.00  0.00     0.197 C 
HETATM   18  O           1     -36.203   0.540 -10.707  0.00  0.00    -0.646 OA
HETATM   19  O           1     -37.473  -0.015 -12.370  0.00  0.00    -0.646 OA
ENDBRANCH  13  17
ENDBRANCH   4  13
TORSDOF 7
ENDMDL
MODEL 2
REMARK VINA RESULT:      -5.5      2.362      2.708
REMARK  7 active torsions:
REMARK  status: ('A' for Active; 'I' for Inactive)
REMARK    1  A    between atoms: C_1  and  C_15 
REMARK    2  A    between atoms: C_1  and  C_8 
REMARK    3  A    between atoms: C_1  and  N_18 
REMARK    4  A    between atoms: C_2  and  C_9 
REMARK    5  A    between atoms: C_2  and  C_3 
REMARK    6  A    between atoms: C_2  and  N_5 
REMARK       I    between atoms: C_9  and  N_18 
REMARK    7  A    between atoms: C_15  and  S_17 
ROOT
HETATM    1  C           1     -34.330  -2.418 -12.402  0.00  0.00     0.249 C 
HETATM    2  H           1     -34.945  -0.667 -11.486  0.00  0.00     0.163 HD
HETATM    3  O           1     -34.420  -3.100 -13.396  0.00  0.00    -0.271 OA
HETATM    4  N           1     -35.021  -1.238 -12.317  0.00  0.00    -0.344 N 
ENDROOT
BRANCH   1   5
HETATM    5  C           1     -33.459  -2.867 -11.255  0.00  0.00     0.278 C 
BRANCH   5   6
HETATM    6  C           1     -34.061  -4.111 -10.616  0.00  0.00     0.017 C 
HETATM    7  C           1     -35.569  -4.111 -10.827  0.00  0.00     0.012 C 
HETATM    8  C           1     -33.459  -5.353 -11.259  0.00  0.00     0.012 C 
ENDBRANCH   5   6
BRANCH   5   9
HETATM    9  N           1     -33.374  -1.772 -10.234  0.00  0.00    -0.066 N 
HETATM   10  H           1     -33.199  -2.188  -9.291  0.00  0.00     0.275 HD
HETATM   11  H           1     -32.589  -1.127 -10.480  0.00  0.00     0.275 HD
HETATM   12  H           1     -34.272  -1.239 -10.219  0.00  0.00     0.275 HD
ENDBRANCH   5   9
ENDBRANCH   1   5
BRANCH   4  13
HETATM   13  C           1     -35.858  -0.807 -13.420  0.00  0.00     0.194 C 
BRANCH  13  14
HETATM   14  C           1     -37.132  -0.176 -12.873  0.00  0.00     0.106 C 
BRANCH  14  15
HETATM   15  S           1     -37.042  -0.100 -11.062  0.00  0.00    -0.180 SA
HETATM   16  H           1     -38.093   0.723 -10.904  0.00  0.00     0.101 HD
ENDBRANCH  14  15
ENDBRANCH  13  14
BRANCH  13  17
HETATM   17  C           1     -35.111   0.205 -14.252  0.00  0.00     0.197 C 
HETATM   18  O           1     -34.786   1.306 -13.756  0.00  0.00    -0.646 OA
HETATM   19  O           1     -34.817  -0.056 -15.440  0.00  0.00    -0.646 OA
ENDBRANCH  13  17
ENDBRANCH   4  13
TORSDOF 7
ENDMDL
MODEL 3
REMARK VINA RESULT:      -5.5      2.572      3.337
REMARK  7 active torsions:
REMARK  status: ('A' for Active; 'I' for Inactive)
REMARK    1  A    between atoms: C_1  and  C_15 
REMARK    2  A    between atoms: C_1  and  C_8 
REMARK    3  A    between atoms: C_1  and  N_18 
REMARK    4  A    between atoms: C_2  and  C_9 
REMARK    5  A    between atoms: C_2  and  C_3 
REMARK    6  A    between atoms: C_2  and  N_5 
REMARK       I    between atoms: C_9  and  N_18 
REMARK    7  A    between atoms: C_15  and  S_17 
ROOT
HETATM    1  C           1     -35.312  -1.544 -12.823  0.00  0.00     0.249 C 
HETATM    2  H           1     -33.991  -1.222 -14.383  0.00  0.00     0.163 HD
HETATM    3  O           1     -36.462  -1.452 -12.464  0.00  0.00    -0.271 OA
HETATM    4  N           1     -34.954  -1.145 -14.083  0.00  0.00    -0.344 N 
ENDROOT
BRANCH   1   5
HETATM    5  C           1     -34.271  -2.098 -11.882  0.00  0.00     0.278 C 
BRANCH   5   6
HETATM    6  C           1     -34.216  -3.613 -12.019  0.00  0.00     0.017 C 
HETATM    7  C           1     -32.774  -4.084 -11.893  0.00  0.00     0.012 C 
HETATM    8  C           1     -35.055  -4.252 -10.920  0.00  0.00     0.012 C 
ENDBRANCH   5   6
BRANCH   5   9
HETATM    9  N           1     -34.630  -1.736 -10.471  0.00  0.00    -0.066 N 
HETATM   10  H           1     -34.343  -2.510  -9.829  0.00  0.00     0.275 HD
HETATM   11  H           1     -34.132  -0.858 -10.200  0.00  0.00     0.275 HD
HETATM   12  H           1     -35.662  -1.589 -10.401  0.00  0.00     0.275 HD
ENDBRANCH   5   9
ENDBRANCH   1   5
BRANCH   4  13
HETATM   13  C           1     -35.956  -0.613 -14.986  0.00  0.00     0.194 C 
BRANCH  13  14
HETATM   14  C           1     -35.857   0.907 -15.015  0.00  0.00     0.106 C 
BRANCH  14  15
HETATM   15  S           1     -34.593   1.455 -13.834  0.00  0.00    -0.180 SA
HETATM   16  H           1     -34.524   0.297 -13.155  0.00  0.00     0.101 HD
ENDBRANCH  14  15
ENDBRANCH  13  14
BRANCH  13  17
HETATM   17  C           1     -35.723  -1.159 -16.373  0.00  0.00     0.197 C 
HETATM   18  O           1     -34.734  -1.890 -16.600  0.00  0.00    -0.646 OA
HETATM   19  O           1     -36.520  -0.881 -17.296  0.00  0.00    -0.646 OA
ENDBRANCH  13  17
ENDBRANCH   4  13
TORSDOF 7
ENDMDL
MODEL 4
REMARK VINA RESULT:      -5.4     11.940     13.695
REMARK  7 active torsions:
REMARK  status: ('A' for Active; 'I' for Inactive)
REMARK    1  A    between atoms: C_1  and  C_15 
REMARK    2  A    between atoms: C_1  and  C_8 
REMARK    3  A    between atoms: C_1  and  N_18 
REMARK    4  A    between atoms: C_2  and  C_9 
REMARK    5  A    between atoms: C_2  and  C_3 
REMARK    6  A    between atoms: C_2  and  N_5 
REMARK       I    between atoms: C_9  and  N_18 
REMARK    7  A    between atoms: C_15  and  S_17 
ROOT
HETATM    1  C           1     -21.915  -4.606  -7.931  0.00  0.00     0.249 C 
HETATM    2  H           1     -22.324  -5.761  -9.600  0.00  0.00     0.163 HD
HETATM    3  O           1     -21.950  -3.492  -7.465  0.00  0.00    -0.271 OA
HETATM    4  N           1     -22.353  -4.827  -9.210  0.00  0.00    -0.344 N 
ENDROOT
BRANCH   1   5
HETATM    5  C           1     -21.387  -5.753  -7.105  0.00  0.00     0.278 C 
BRANCH   5   6
HETATM    6  C           1     -21.421  -5.374  -5.630  0.00  0.00     0.017 C 
HETATM    7  C           1     -21.773  -6.600  -4.799  0.00  0.00     0.012 C 
HETATM    8  C           1     -20.055  -4.851  -5.210  0.00  0.00     0.012 C 
ENDBRANCH   5   6
BRANCH   5   9
HETATM    9  N           1     -19.974  -6.052  -7.511  0.00  0.00    -0.066 N 
HETATM   10  H           1     -19.801  -5.678  -8.471  0.00  0.00     0.275 HD
HETATM   11  H           1     -19.316  -5.599  -6.838  0.00  0.00     0.275 HD
HETATM   12  H           1     -19.822  -7.086  -7.506  0.00  0.00     0.275 HD
ENDBRANCH   5   9
ENDBRANCH   1   5
BRANCH   4  13
HETATM   13  C           1     -22.860  -3.725 -10.003  0.00  0.00     0.194 C 
BRANCH  13  14
HETATM   14  C           1     -22.124  -3.678 -11.336  0.00  0.00     0.106 C 
BRANCH  14  15
HETATM   15  S           1     -20.365  -4.041 -11.070  0.00  0.00    -0.180 SA
HETATM   16  H           1     -20.469  -4.277  -9.751  0.00  0.00     0.101 HD
ENDBRANCH  14  15
ENDBRANCH  13  14
BRANCH  13  17
HETATM   17  C           1     -24.335  -3.919 -10.250  0.00  0.00     0.197 C 
HETATM   18  O           1     -24.922  -4.919  -9.780  0.00  0.00    -0.646 OA
HETATM   19  O           1     -24.973  -3.081 -10.924  0.00  0.00    -0.646 OA
ENDBRANCH  13  17
ENDBRANCH   4  13
TORSDOF 7
ENDMDL
MODEL 5
REMARK VINA RESULT:      -5.2     10.295     12.333
REMARK  7 active torsions:
REMARK  status: ('A' for Active; 'I' for Inactive)
REMARK    1  A    between atoms: C_1  and  C_15 
REMARK    2  A    between atoms: C_1  and  C_8 
REMARK    3  A    between atoms: C_1  and  N_18 
REMARK    4  A    between atoms: C_2  and  C_9 
REMARK    5  A    between atoms: C_2  and  C_3 
REMARK    6  A    between atoms: C_2  and  N_5 
REMARK       I    between atoms: C_9  and  N_18 
REMARK    7  A    between atoms: C_15  and  S_17 
ROOT
HETATM    1  C           1     -25.120  -6.957 -18.870  0.00  0.00     0.249 C 
HETATM    2  H           1     -27.174  -7.059 -18.631  0.00  0.00     0.163 HD
HETATM    3  O           1     -24.086  -6.554 -18.392  0.00  0.00    -0.271 OA
HETATM    4  N           1     -26.308  -6.721 -18.231  0.00  0.00    -0.344 N 
ENDROOT
BRANCH   1   5
HETATM    5  C           1     -25.102  -7.717 -20.174  0.00  0.00     0.278 C 
BRANCH   5   6
HETATM    6  C           1     -24.392  -6.888 -21.236  0.00  0.00     0.017 C 
HETATM    7  C           1     -24.080  -7.765 -22.440  0.00  0.00     0.012 C 
HETATM    8  C           1     -25.291  -5.737 -21.665  0.00  0.00     0.012 C 
ENDBRANCH   5   6
BRANCH   5   9
HETATM    9  N           1     -26.510  -7.990 -20.612  0.00  0.00    -0.066 N 
HETATM   10  H           1     -27.073  -8.316 -19.794  0.00  0.00     0.275 HD
HETATM   11  H           1     -26.931  -7.114 -20.996  0.00  0.00     0.275 HD
HETATM   12  H           1     -26.508  -8.729 -21.351  0.00  0.00     0.275 HD
ENDBRANCH   5   9
ENDBRANCH   1   5
BRANCH   4  13
HETATM   13  C           1     -26.324  -5.991 -16.979  0.00  0.00     0.194 C 
BRANCH  13  14
HETATM   14  C           1     -27.581  -5.133 -16.908  0.00  0.00     0.106 C 
BRANCH  14  15
HETATM   15  S           1     -28.643  -5.496 -18.334  0.00  0.00    -0.180 SA
HETATM   16  H           1     -29.497  -6.297 -17.672  0.00  0.00     0.101 HD
ENDBRANCH  14  15
ENDBRANCH  13  14
BRANCH  13  17
HETATM   17  C           1     -26.315  -6.965 -15.828  0.00  0.00     0.197 C 
HETATM   18  O           1     -27.392  -7.403 -15.369  0.00  0.00    -0.646 OA
HETATM   19  O           1     -25.229  -7.336 -15.331  0.00  0.00    -0.646 OA
ENDBRANCH  13  17
ENDBRANCH   4  13
TORSDOF 7
ENDMDL
MODEL 6
REMARK VINA RESULT:      -5.1      9.489     11.274
REMARK  7 active torsions:
REMARK  status: ('A' for Active; 'I' for Inactive)
REMARK    1  A    between atoms: C_1  and  C_15 
REMARK    2  A    between atoms: C_1  and  C_8 
REMARK    3  A    between atoms: C_1  and  N_18 
REMARK    4  A    between atoms: C_2  and  C_9 
REMARK    5  A    between atoms: C_2  and  C_3 
REMARK    6  A    between atoms: C_2  and  N_5 
REMARK       I    between atoms: C_9  and  N_18 
REMARK    7  A    between atoms: C_15  and  S_17 
ROOT
HETATM    1  C           1     -26.294  -6.336 -18.194  0.00  0.00     0.249 C 
HETATM    2  H           1     -27.607  -6.883 -19.697  0.00  0.00     0.163 HD
HETATM    3  O           1     -26.200  -5.920 -17.063  0.00  0.00    -0.271 OA
HETATM    4  N           1     -27.529  -6.535 -18.750  0.00  0.00    -0.344 N 
ENDROOT
BRANCH   1   5
HETATM    5  C           1     -25.049  -6.633 -18.993  0.00  0.00     0.278 C 
BRANCH   5   6
HETATM    6  C           1     -25.441  -7.148 -20.371  0.00  0.00     0.017 C 
HETATM    7  C           1     -25.497  -5.986 -21.352  0.00  0.00     0.012 C 
HETATM    8  C           1     -24.410  -8.163 -20.845  0.00  0.00     0.012 C 
ENDBRANCH   5   6
BRANCH   5   9
HETATM    9  N           1     -24.236  -7.674 -18.283  0.00  0.00    -0.066 N 
HETATM   10  H           1     -24.765  -8.023 -17.452  0.00  0.00     0.275 HD
HETATM   11  H           1     -24.046  -8.470 -18.933  0.00  0.00     0.275 HD
HETATM   12  H           1     -23.331  -7.256 -17.970  0.00  0.00     0.275 HD
ENDBRANCH   5   9
ENDBRANCH   1   5
BRANCH   4  13
HETATM   13  C           1     -28.725  -6.249 -17.981  0.00  0.00     0.194 C 
BRANCH  13  14
HETATM   14  C           1     -29.338  -4.941 -18.464  0.00  0.00     0.106 C 
BRANCH  14  15
HETATM   15  S           1     -28.960  -3.620 -17.278  0.00  0.00    -0.180 SA
HETATM   16  H           1     -29.572  -2.638 -17.962  0.00  0.00     0.101 HD
ENDBRANCH  14  15
ENDBRANCH  13  14
BRANCH  13  17
HETATM   17  C           1     -29.719  -7.368 -18.163  0.00  0.00     0.197 C 
HETATM   18  O           1     -29.479  -8.295 -18.967  0.00  0.00    -0.646 OA
HETATM   19  O           1     -30.786  -7.370 -17.510  0.00  0.00    -0.646 OA
ENDBRANCH  13  17
ENDBRANCH   4  13
TORSDOF 7
ENDMDL
MODEL 7
REMARK VINA RESULT:      -5.1      2.429      5.148
REMARK  7 active torsions:
REMARK  status: ('A' for Active; 'I' for Inactive)
REMARK    1  A    between atoms: C_1  and  C_15 
REMARK    2  A    between atoms: C_1  and  C_8 
REMARK    3  A    between atoms: C_1  and  N_18 
REMARK    4  A    between atoms: C_2  and  C_9 
REMARK    5  A    between atoms: C_2  and  C_3 
REMARK    6  A    between atoms: C_2  and  N_5 
REMARK       I    between atoms: C_9  and  N_18 
REMARK    7  A    between atoms: C_15  and  S_17 
ROOT
HETATM    1  C           1     -35.865  -0.985 -13.131  0.00  0.00     0.249 C 
HETATM    2  H           1     -34.081  -1.769 -13.827  0.00  0.00     0.163 HD
HETATM    3  O           1     -36.729  -1.082 -12.292  0.00  0.00    -0.271 OA
HETATM    4  N           1     -34.804  -1.851 -13.124  0.00  0.00    -0.344 N 
ENDROOT
BRANCH   1   5
HETATM    5  C           1     -35.958   0.088 -14.188  0.00  0.00     0.278 C 
BRANCH   5   6
HETATM    6  C           1     -36.879  -0.378 -15.307  0.00  0.00     0.017 C 
HETATM    7  C           1     -37.815   0.756 -15.702  0.00  0.00     0.012 C 
HETATM    8  C           1     -36.045  -0.791 -16.512  0.00  0.00     0.012 C 
ENDBRANCH   5   6
BRANCH   5   9
HETATM    9  N           1     -34.592   0.358 -14.746  0.00  0.00    -0.066 N 
HETATM   10  H           1     -34.030   0.895 -14.047  0.00  0.00     0.275 HD
HETATM   11  H           1     -34.115  -0.548 -14.952  0.00  0.00     0.275 HD
HETATM   12  H           1     -34.679   0.915 -15.626  0.00  0.00     0.275 HD
ENDBRANCH   5   9
ENDBRANCH   1   5
BRANCH   4  13
HETATM   13  C           1     -34.717  -2.882 -12.109  0.00  0.00     0.194 C 
BRANCH  13  14
HETATM   14  C           1     -34.417  -4.221 -12.770  0.00  0.00     0.106 C 
BRANCH  14  15
HETATM   15  S           1     -34.701  -5.562 -11.581  0.00  0.00    -0.180 SA
HETATM   16  H           1     -33.784  -6.400 -12.093  0.00  0.00     0.101 HD
ENDBRANCH  14  15
ENDBRANCH  13  14
BRANCH  13  17
HETATM   17  C           1     -33.612  -2.540 -11.140  0.00  0.00     0.197 C 
HETATM   18  O           1     -33.840  -1.780 -10.174  0.00  0.00    -0.646 OA
HETATM   19  O           1     -32.468  -3.019 -11.302  0.00  0.00    -0.646 OA
ENDBRANCH  13  17
ENDBRANCH   4  13
TORSDOF 7
ENDMDL
MODEL 8
REMARK VINA RESULT:      -5.1      9.807     11.748
REMARK  7 active torsions:
REMARK  status: ('A' for Active; 'I' for Inactive)
REMARK    1  A    between atoms: C_1  and  C_15 
REMARK    2  A    between atoms: C_1  and  C_8 
REMARK    3  A    between atoms: C_1  and  N_18 
REMARK    4  A    between atoms: C_2  and  C_9 
REMARK    5  A    between atoms: C_2  and  C_3 
REMARK    6  A    between atoms: C_2  and  N_5 
REMARK       I    between atoms: C_9  and  N_18 
REMARK    7  A    between atoms: C_15  and  S_17 
ROOT
HETATM    1  C           1     -28.302  -6.291 -18.667  0.00  0.00     0.249 C 
HETATM    2  H           1     -27.192  -8.039 -18.695  0.00  0.00     0.163 HD
HETATM    3  O           1     -28.525  -5.251 -19.238  0.00  0.00    -0.271 OA
HETATM    4  N           1     -27.379  -7.167 -19.174  0.00  0.00    -0.344 N 
ENDROOT
BRANCH   1   5
HETATM    5  C           1     -29.039  -6.625 -17.393  0.00  0.00     0.278 C 
BRANCH   5   6
HETATM    6  C           1     -28.260  -6.087 -16.200  0.00  0.00     0.017 C 
HETATM    7  C           1     -29.233  -5.578 -15.145  0.00  0.00     0.012 C 
HETATM    8  C           1     -27.406  -7.200 -15.608  0.00  0.00     0.012 C 
ENDBRANCH   5   6
BRANCH   5   9
HETATM    9  N           1     -29.175  -8.113 -17.270  0.00  0.00    -0.066 N 
HETATM   10  H           1     -29.908  -8.339 -16.559  0.00  0.00     0.275 HD
HETATM   11  H           1     -29.453  -8.514 -18.194  0.00  0.00     0.275 HD
HETATM   12  H           1     -28.262  -8.524 -16.972  0.00  0.00     0.275 HD
ENDBRANCH   5   9
ENDBRANCH   1   5
BRANCH   4  13
HETATM   13  C           1     -26.672  -6.846 -20.398  0.00  0.00     0.194 C 
BRANCH  13  14
HETATM   14  C           1     -25.294  -6.292 -20.057  0.00  0.00     0.106 C 
BRANCH  14  15
HETATM   15  S           1     -24.690  -7.067 -18.531  0.00  0.00    -0.180 SA
HETATM   16  H           1     -24.142  -8.140 -19.126  0.00  0.00     0.101 HD
ENDBRANCH  14  15
ENDBRANCH  13  14
BRANCH  13  17
HETATM   17  C           1     -26.521  -8.092 -21.234  0.00  0.00     0.197 C 
HETATM   18  O           1     -27.505  -8.839 -21.427  0.00  0.00    -0.646 OA
HETATM   19  O           1     -25.411  -8.379 -21.734  0.00  0.00    -0.646 OA
ENDBRANCH  13  17
ENDBRANCH   4  13
TORSDOF 7
ENDMDL
MODEL 9
REMARK VINA RESULT:      -4.7      2.657      5.156
REMARK  7 active torsions:
REMARK  status: ('A' for Active; 'I' for Inactive)
REMARK    1  A    between atoms: C_1  and  C_15 
REMARK    2  A    between atoms: C_1  and  C_8 
REMARK    3  A    between atoms: C_1  and  N_18 
REMARK    4  A    between atoms: C_2  and  C_9 
REMARK    5  A    between atoms: C_2  and  C_3 
REMARK    6  A    between atoms: C_2  and  N_5 
REMARK       I    between atoms: C_9  and  N_18 
REMARK    7  A    between atoms: C_15  and  S_17 
ROOT
HETATM    1  C           1     -35.559  -0.035 -13.271  0.00  0.00     0.249 C 
HETATM    2  H           1     -36.464  -1.896 -13.255  0.00  0.00     0.163 HD
HETATM    3  O           1     -34.726   0.666 -12.746  0.00  0.00    -0.271 OA
HETATM    4  N           1     -35.766  -1.309 -12.816  0.00  0.00    -0.344 N 
ENDROOT
BRANCH   1   5
HETATM    5  C           1     -36.373   0.497 -14.425  0.00  0.00     0.278 C 
BRANCH   5   6
HETATM    6  C           1     -36.732  -0.647 -15.363  0.00  0.00     0.017 C 
HETATM    7  C           1     -38.074  -0.363 -16.022  0.00  0.00     0.012 C 
HETATM    8  C           1     -35.659  -0.779 -16.435  0.00  0.00     0.012 C 
ENDBRANCH   5   6
BRANCH   5   9
HETATM    9  N           1     -35.571   1.522 -15.171  0.00  0.00    -0.066 N 
HETATM   10  H           1     -35.079   2.143 -14.490  0.00  0.00     0.275 HD
HETATM   11  H           1     -34.867   1.040 -15.774  0.00  0.00     0.275 HD
HETATM   12  H           1     -36.209   2.096 -15.768  0.00  0.00     0.275 HD
ENDBRANCH   5   9
ENDBRANCH   1   5
BRANCH   4  13
HETATM   13  C           1     -34.984  -1.819 -11.707  0.00  0.00     0.194 C 
BRANCH  13  14
HETATM   14  C           1     -35.918  -2.265 -10.590  0.00  0.00     0.106 C 
BRANCH  14  15
HETATM   15  S           1     -36.678  -0.809  -9.817  0.00  0.00    -0.180 SA
HETATM   16  H           1     -36.606  -0.020 -10.904  0.00  0.00     0.101 HD
ENDBRANCH  14  15
ENDBRANCH  13  14
BRANCH  13  17
HETATM   17  C           1     -34.158  -2.993 -12.171  0.00  0.00     0.197 C 
HETATM   18  O           1     -34.582  -3.734 -13.085  0.00  0.00    -0.646 OA
HETATM   19  O           1     -33.050  -3.227 -11.641  0.00  0.00    -0.646 OA
ENDBRANCH  13  17
ENDBRANCH   4  13
TORSDOF 7
ENDMDL
