MODEL 1
REMARK VINA RESULT:      -7.5      0.000      0.000
REMARK  11 active torsions:
REMARK  status: ('A' for Active; 'I' for Inactive)
REMARK    1  A    between atoms: N_3  and  C_9 
REMARK    2  A    between atoms: C_7  and  C_15 
REMARK    3  A    between atoms: C_7  and  C_19 
REMARK    4  A    between atoms: C_7  and  N_27 
REMARK    5  A    between atoms: C_8  and  C_11 
REMARK    6  A    between atoms: C_9  and  C_14 
REMARK    7  A    between atoms: N_10  and  C_11 
REMARK       I    between atoms: N_10  and  C_15 
REMARK    8  A    between atoms: C_11  and  C_12 
REMARK    9  A    between atoms: C_12  and  C_13 
REMARK   10  A    between atoms: C_13  and  C_14 
REMARK   11  A    between atoms: C_18  and  C_19 
ROOT
HETATM    1  H           1     -32.450  -3.735 -14.162  0.00  0.00     0.163 HD
HETATM    2  N           1     -33.416  -4.011 -14.292  0.00  0.00    -0.345 N 
HETATM    3  C           1     -33.845  -4.437 -15.520  0.00  0.00     0.249 C 
HETATM    4  O           1     -34.997  -4.766 -15.677  0.00  0.00    -0.271 OA
ENDROOT
BRANCH   2   5
HETATM    5  C           1     -34.344  -3.952 -13.180  0.00  0.00     0.185 C 
BRANCH   5   6
HETATM    6  C           1     -34.588  -2.510 -12.805  0.00  0.00     0.196 C 
HETATM    7  O           1     -34.225  -2.085 -11.687  0.00  0.00    -0.646 OA
HETATM    8  O           1     -35.151  -1.742 -13.613  0.00  0.00    -0.646 OA
ENDBRANCH   5   6
BRANCH   5   9
HETATM    9  C           1     -33.755  -4.693 -11.987  0.00  0.00     0.036 C 
BRANCH   9  10
HETATM   10  C           1     -34.691  -5.822 -11.577  0.00  0.00     0.004 C 
BRANCH  10  11
HETATM   11  C           1     -34.214  -6.426 -10.263  0.00  0.00     0.027 C 
BRANCH  11  12
HETATM   12  C           1     -34.745  -7.848 -10.134  0.00  0.00     0.229 C 
BRANCH  12  13
HETATM   13  N           1     -33.602  -8.817 -10.210  0.00  0.00    -0.079 N 
HETATM   14  H           1     -33.777  -9.503 -10.980  0.00  0.00     0.274 HD
HETATM   15  H           1     -32.717  -8.297 -10.402  0.00  0.00     0.274 HD
HETATM   16  H           1     -33.518  -9.329  -9.303  0.00  0.00     0.274 HD
ENDBRANCH  12  13
ENDBRANCH  11  12
ENDBRANCH  10  11
ENDBRANCH   9  10
ENDBRANCH   5   9
ENDBRANCH   2   5
BRANCH   3  17
HETATM   17  C           1     -32.879  -4.497 -16.678  0.00  0.00     0.278 C 
BRANCH  17  18
HETATM   18  C           1     -31.454  -4.574 -16.146  0.00  0.00     0.081 C 
BRANCH  18  19
HETATM   19  C           1     -30.614  -5.388 -17.082  0.00  0.00    -0.056 A 
HETATM   20  C           1     -30.960  -6.712 -17.357  0.00  0.00     0.007 A 
HETATM   21  C           1     -30.179  -7.470 -18.229  0.00  0.00     0.001 A 
HETATM   22  C           1     -29.052  -6.904 -18.826  0.00  0.00     0.000 A 
HETATM   23  C           1     -28.706  -5.582 -18.550  0.00  0.00     0.001 A 
HETATM   24  C           1     -29.487  -4.824 -17.678  0.00  0.00     0.007 A 
ENDBRANCH  18  19
ENDBRANCH  17  18
BRANCH  17  25
HETATM   25  N           1     -33.032  -3.265 -17.520  0.00  0.00    -0.066 N 
HETATM   26  H           1     -34.046  -3.087 -17.696  0.00  0.00     0.275 HD
HETATM   27  H           1     -32.539  -3.403 -18.431  0.00  0.00     0.275 HD
HETATM   28  H           1     -32.617  -2.447 -17.018  0.00  0.00     0.275 HD
ENDBRANCH  17  25
ENDBRANCH   3  17
TORSDOF 11
ENDMDL
MODEL 2
REMARK VINA RESULT:      -7.0     13.676     14.835
REMARK  11 active torsions:
REMARK  status: ('A' for Active; 'I' for Inactive)
REMARK    1  A    between atoms: N_3  and  C_9 
REMARK    2  A    between atoms: C_7  and  C_15 
REMARK    3  A    between atoms: C_7  and  C_19 
REMARK    4  A    between atoms: C_7  and  N_27 
REMARK    5  A    between atoms: C_8  and  C_11 
REMARK    6  A    between atoms: C_9  and  C_14 
REMARK    7  A    between atoms: N_10  and  C_11 
REMARK       I    between atoms: N_10  and  C_15 
REMARK    8  A    between atoms: C_11  and  C_12 
REMARK    9  A    between atoms: C_12  and  C_13 
REMARK   10  A    between atoms: C_13  and  C_14 
REMARK   11  A    between atoms: C_18  and  C_19 
ROOT
HETATM    1  H           1     -22.353  -7.433  -5.597  0.00  0.00     0.163 HD
HETATM    2  N           1     -21.585  -6.848  -5.292  0.00  0.00    -0.345 N 
HETATM    3  C           1     -21.396  -5.615  -5.857  0.00  0.00     0.249 C 
HETATM    4  O           1     -20.480  -4.917  -5.494  0.00  0.00    -0.271 OA
ENDROOT
BRANCH   2   5
HETATM    5  C           1     -20.683  -7.316  -4.258  0.00  0.00     0.185 C 
BRANCH   5   6
HETATM    6  C           1     -19.935  -8.530  -4.756  0.00  0.00     0.196 C 
HETATM    7  O           1     -18.843  -8.847  -4.237  0.00  0.00    -0.646 OA
HETATM    8  O           1     -20.409  -9.217  -5.686  0.00  0.00    -0.646 OA
ENDBRANCH   5   6
BRANCH   5   9
HETATM    9  C           1     -21.482  -7.688  -3.017  0.00  0.00     0.036 C 
BRANCH   9  10
HETATM   10  C           1     -21.923  -6.421  -2.297  0.00  0.00     0.004 C 
BRANCH  10  11
HETATM   11  C           1     -22.303  -6.758  -0.861  0.00  0.00     0.027 C 
BRANCH  11  12
HETATM   12  C           1     -22.226  -8.265  -0.655  0.00  0.00     0.229 C 
BRANCH  12  13
HETATM   13  N           1     -23.298  -8.695   0.303  0.00  0.00    -0.079 N 
HETATM   14  H           1     -24.222  -8.697  -0.186  0.00  0.00     0.274 HD
HETATM   15  H           1     -23.087  -9.656   0.653  0.00  0.00     0.274 HD
HETATM   16  H           1     -23.333  -8.029   1.108  0.00  0.00     0.274 HD
ENDBRANCH  12  13
ENDBRANCH  11  12
ENDBRANCH  10  11
ENDBRANCH   9  10
ENDBRANCH   5   9
ENDBRANCH   2   5
BRANCH   3  17
HETATM   17  C           1     -22.335  -5.128  -6.934  0.00  0.00     0.278 C 
BRANCH  17  18
HETATM   18  C           1     -21.780  -3.851  -7.552  0.00  0.00     0.081 C 
BRANCH  18  19
HETATM   19  C           1     -21.716  -4.003  -9.040  0.00  0.00    -0.056 A 
HETATM   20  C           1     -20.487  -3.930  -9.696  0.00  0.00     0.007 A 
HETATM   21  C           1     -20.427  -4.071 -11.083  0.00  0.00     0.001 A 
HETATM   22  C           1     -21.596  -4.286 -11.812  0.00  0.00     0.000 A 
HETATM   23  C           1     -22.825  -4.358 -11.157  0.00  0.00     0.001 A 
HETATM   24  C           1     -22.885  -4.216  -9.771  0.00  0.00     0.007 A 
ENDBRANCH  18  19
ENDBRANCH  17  18
BRANCH  17  25
HETATM   25  N           1     -23.681  -4.848  -6.334  0.00  0.00    -0.066 N 
HETATM   26  H           1     -23.598  -4.074  -5.637  0.00  0.00     0.275 HD
HETATM   27  H           1     -24.036  -5.708  -5.859  0.00  0.00     0.275 HD
HETATM   28  H           1     -24.347  -4.566  -7.089  0.00  0.00     0.275 HD
ENDBRANCH  17  25
ENDBRANCH   3  17
TORSDOF 11
ENDMDL
MODEL 3
REMARK VINA RESULT:      -6.7     14.240     15.434
REMARK  11 active torsions:
REMARK  status: ('A' for Active; 'I' for Inactive)
REMARK    1  A    between atoms: N_3  and  C_9 
REMARK    2  A    between atoms: C_7  and  C_15 
REMARK    3  A    between atoms: C_7  and  C_19 
REMARK    4  A    between atoms: C_7  and  N_27 
REMARK    5  A    between atoms: C_8  and  C_11 
REMARK    6  A    between atoms: C_9  and  C_14 
REMARK    7  A    between atoms: N_10  and  C_11 
REMARK       I    between atoms: N_10  and  C_15 
REMARK    8  A    between atoms: C_11  and  C_12 
REMARK    9  A    between atoms: C_12  and  C_13 
REMARK   10  A    between atoms: C_13  and  C_14 
REMARK   11  A    between atoms: C_18  and  C_19 
ROOT
HETATM    1  H           1     -21.671  -7.704  -4.569  0.00  0.00     0.163 HD
HETATM    2  N           1     -20.766  -7.705  -5.022  0.00  0.00    -0.345 N 
HETATM    3  C           1     -20.528  -6.864  -6.076  0.00  0.00     0.249 C 
HETATM    4  O           1     -19.449  -6.864  -6.618  0.00  0.00    -0.271 OA
ENDROOT
BRANCH   2   5
HETATM    5  C           1     -19.722  -8.597  -4.557  0.00  0.00     0.185 C 
BRANCH   5   6
HETATM    6  C           1     -19.843  -9.924  -5.267  0.00  0.00     0.196 C 
HETATM    7  O           1     -18.966 -10.278  -6.084  0.00  0.00    -0.646 OA
HETATM    8  O           1     -20.818 -10.669  -5.035  0.00  0.00    -0.646 OA
ENDBRANCH   5   6
BRANCH   5   9
HETATM    9  C           1     -19.866  -8.810  -3.057  0.00  0.00     0.036 C 
BRANCH   9  10
HETATM   10  C           1     -21.254  -8.371  -2.611  0.00  0.00     0.004 C 
BRANCH  10  11
HETATM   11  C           1     -21.190  -7.853  -1.181  0.00  0.00     0.027 C 
BRANCH  11  12
HETATM   12  C           1     -22.345  -6.890  -0.935  0.00  0.00     0.229 C 
BRANCH  12  13
HETATM   13  N           1     -22.324  -5.809  -1.975  0.00  0.00    -0.079 N 
HETATM   14  H           1     -22.547  -4.891  -1.528  0.00  0.00     0.274 HD
HETATM   15  H           1     -21.376  -5.763  -2.411  0.00  0.00     0.274 HD
HETATM   16  H           1     -23.037  -6.019  -2.710  0.00  0.00     0.274 HD
ENDBRANCH  12  13
ENDBRANCH  11  12
ENDBRANCH  10  11
ENDBRANCH   9  10
ENDBRANCH   5   9
ENDBRANCH   2   5
BRANCH   3  17
HETATM   17  C           1     -21.615  -5.936  -6.560  0.00  0.00     0.278 C 
BRANCH  17  18
HETATM   18  C           1     -21.003  -4.596  -6.948  0.00  0.00     0.081 C 
BRANCH  18  19
HETATM   19  C           1     -21.217  -4.353  -8.410  0.00  0.00    -0.056 A 
HETATM   20  C           1     -20.181  -4.585  -9.315  0.00  0.00     0.007 A 
HETATM   21  C           1     -20.381  -4.359 -10.676  0.00  0.00     0.001 A 
HETATM   22  C           1     -21.617  -3.901 -11.133  0.00  0.00     0.000 A 
HETATM   23  C           1     -22.652  -3.668 -10.229  0.00  0.00     0.001 A 
HETATM   24  C           1     -22.453  -3.894  -8.867  0.00  0.00     0.007 A 
ENDBRANCH  18  19
ENDBRANCH  17  18
BRANCH  17  25
HETATM   25  N           1     -22.618  -5.728  -5.465  0.00  0.00    -0.066 N 
HETATM   26  H           1     -22.719  -4.706  -5.273  0.00  0.00     0.275 HD
HETATM   27  H           1     -22.294  -6.214  -4.598  0.00  0.00     0.275 HD
HETATM   28  H           1     -23.542  -6.119  -5.760  0.00  0.00     0.275 HD
ENDBRANCH  17  25
ENDBRANCH   3  17
TORSDOF 11
ENDMDL
MODEL 4
REMARK VINA RESULT:      -6.4      4.502      6.672
REMARK  11 active torsions:
REMARK  status: ('A' for Active; 'I' for Inactive)
REMARK    1  A    between atoms: N_3  and  C_9 
REMARK    2  A    between atoms: C_7  and  C_15 
REMARK    3  A    between atoms: C_7  and  C_19 
REMARK    4  A    between atoms: C_7  and  N_27 
REMARK    5  A    between atoms: C_8  and  C_11 
REMARK    6  A    between atoms: C_9  and  C_14 
REMARK    7  A    between atoms: N_10  and  C_11 
REMARK       I    between atoms: N_10  and  C_15 
REMARK    8  A    between atoms: C_11  and  C_12 
REMARK    9  A    between atoms: C_12  and  C_13 
REMARK   10  A    between atoms: C_13  and  C_14 
REMARK   11  A    between atoms: C_18  and  C_19 
ROOT
HETATM    1  H           1     -33.571  -1.676 -11.080  0.00  0.00     0.163 HD
HETATM    2  N           1     -34.153  -2.500 -10.988  0.00  0.00    -0.345 N 
HETATM    3  C           1     -35.513  -2.372 -10.910  0.00  0.00     0.249 C 
HETATM    4  O           1     -36.208  -3.354 -10.801  0.00  0.00    -0.271 OA
ENDROOT
BRANCH   2   5
HETATM    5  C           1     -33.545  -3.815 -10.938  0.00  0.00     0.185 C 
BRANCH   5   6
HETATM    6  C           1     -32.939  -4.139 -12.283  0.00  0.00     0.196 C 
HETATM    7  O           1     -33.560  -3.861 -13.331  0.00  0.00    -0.646 OA
HETATM    8  O           1     -31.817  -4.684 -12.347  0.00  0.00    -0.646 OA
ENDBRANCH   5   6
BRANCH   5   9
HETATM    9  C           1     -34.606  -4.853 -10.597  0.00  0.00     0.036 C 
BRANCH   9  10
HETATM   10  C           1     -33.972  -6.237 -10.567  0.00  0.00     0.004 C 
BRANCH  10  11
HETATM   11  C           1     -34.974  -7.243 -10.016  0.00  0.00     0.027 C 
BRANCH  11  12
HETATM   12  C           1     -34.227  -8.413  -9.389  0.00  0.00     0.229 C 
BRANCH  12  13
HETATM   13  N           1     -33.471  -9.152 -10.453  0.00  0.00    -0.079 N 
HETATM   14  H           1     -32.458  -9.191 -10.198  0.00  0.00     0.274 HD
HETATM   15  H           1     -33.846 -10.123 -10.538  0.00  0.00     0.274 HD
HETATM   16  H           1     -33.580  -8.655 -11.367  0.00  0.00     0.274 HD
ENDBRANCH  12  13
ENDBRANCH  11  12
ENDBRANCH  10  11
ENDBRANCH   9  10
ENDBRANCH   5   9
ENDBRANCH   2   5
BRANCH   3  17
HETATM   17  C           1     -36.146  -1.003 -10.962  0.00  0.00     0.278 C 
BRANCH  17  18
HETATM   18  C           1     -35.279  -0.074 -11.802  0.00  0.00     0.081 C 
BRANCH  18  19
HETATM   19  C           1     -35.924   0.141 -13.136  0.00  0.00    -0.056 A 
HETATM   20  C           1     -35.198   0.723 -14.176  0.00  0.00     0.007 A 
HETATM   21  C           1     -35.798   0.923 -15.418  0.00  0.00     0.001 A 
HETATM   22  C           1     -37.124   0.541 -15.622  0.00  0.00     0.000 A 
HETATM   23  C           1     -37.850  -0.040 -14.582  0.00  0.00     0.001 A 
HETATM   24  C           1     -37.250  -0.240 -13.340  0.00  0.00     0.007 A 
ENDBRANCH  18  19
ENDBRANCH  17  18
BRANCH  17  25
HETATM   25  N           1     -36.262  -0.454  -9.570  0.00  0.00    -0.066 N 
HETATM   26  H           1     -35.988  -1.190  -8.881  0.00  0.00     0.275 HD
HETATM   27  H           1     -37.250  -0.161  -9.393  0.00  0.00     0.275 HD
HETATM   28  H           1     -35.629   0.371  -9.467  0.00  0.00     0.275 HD
ENDBRANCH  17  25
ENDBRANCH   3  17
TORSDOF 11
ENDMDL
MODEL 5
REMARK VINA RESULT:      -6.3     14.624     16.061
REMARK  11 active torsions:
REMARK  status: ('A' for Active; 'I' for Inactive)
REMARK    1  A    between atoms: N_3  and  C_9 
REMARK    2  A    between atoms: C_7  and  C_15 
REMARK    3  A    between atoms: C_7  and  C_19 
REMARK    4  A    between atoms: C_7  and  N_27 
REMARK    5  A    between atoms: C_8  and  C_11 
REMARK    6  A    between atoms: C_9  and  C_14 
REMARK    7  A    between atoms: N_10  and  C_11 
REMARK       I    between atoms: N_10  and  C_15 
REMARK    8  A    between atoms: C_11  and  C_12 
REMARK    9  A    between atoms: C_12  and  C_13 
REMARK   10  A    between atoms: C_13  and  C_14 
REMARK   11  A    between atoms: C_18  and  C_19 
ROOT
HETATM    1  H           1     -20.589  -4.585  -5.666  0.00  0.00     0.163 HD
HETATM    2  N           1     -20.921  -5.316  -6.282  0.00  0.00    -0.345 N 
HETATM    3  C           1     -21.089  -6.589  -5.807  0.00  0.00     0.249 C 
HETATM    4  O           1     -21.485  -7.462  -6.541  0.00  0.00    -0.271 OA
ENDROOT
BRANCH   2   5
HETATM    5  C           1     -21.216  -5.017  -7.670  0.00  0.00     0.185 C 
BRANCH   5   6
HETATM    6  C           1     -19.937  -4.668  -8.391  0.00  0.00     0.196 C 
HETATM    7  O           1     -19.882  -4.740  -9.638  0.00  0.00    -0.646 OA
HETATM    8  O           1     -18.933  -4.305  -7.742  0.00  0.00    -0.646 OA
ENDBRANCH   5   6
BRANCH   5   9
HETATM    9  C           1     -22.176  -3.837  -7.742  0.00  0.00     0.036 C 
BRANCH   9  10
HETATM   10  C           1     -23.364  -4.201  -8.622  0.00  0.00     0.004 C 
BRANCH  10  11
HETATM   11  C           1     -23.186  -3.577 -10.000  0.00  0.00     0.027 C 
BRANCH  11  12
HETATM   12  C           1     -23.250  -4.666 -11.064  0.00  0.00     0.229 C 
BRANCH  12  13
HETATM   13  N           1     -22.039  -4.578 -11.943  0.00  0.00    -0.079 N 
HETATM   14  H           1     -21.315  -5.254 -11.608  0.00  0.00     0.274 HD
HETATM   15  H           1     -22.304  -4.810 -12.926  0.00  0.00     0.274 HD
HETATM   16  H           1     -21.650  -3.608 -11.906  0.00  0.00     0.274 HD
ENDBRANCH  12  13
ENDBRANCH  11  12
ENDBRANCH  10  11
ENDBRANCH   9  10
ENDBRANCH   5   9
ENDBRANCH   2   5
BRANCH   3  17
HETATM   17  C           1     -20.781  -6.900  -4.362  0.00  0.00     0.278 C 
BRANCH  17  18
HETATM   18  C           1     -20.804  -8.409  -4.153  0.00  0.00     0.081 C 
BRANCH  18  19
HETATM   19  C           1     -19.399  -8.926  -4.093  0.00  0.00    -0.056 A 
HETATM   20  C           1     -18.757  -9.338  -5.261  0.00  0.00     0.007 A 
HETATM   21  C           1     -17.449  -9.819  -5.205  0.00  0.00     0.001 A 
HETATM   22  C           1     -16.784  -9.888  -3.981  0.00  0.00     0.000 A 
HETATM   23  C           1     -17.425  -9.478  -2.814  0.00  0.00     0.001 A 
HETATM   24  C           1     -18.733  -8.996  -2.869  0.00  0.00     0.007 A 
ENDBRANCH  18  19
ENDBRANCH  17  18
BRANCH  17  25
HETATM   25  N           1     -21.813  -6.259  -3.482  0.00  0.00    -0.066 N 
HETATM   26  H           1     -21.759  -6.672  -2.524  0.00  0.00     0.275 HD
HETATM   27  H           1     -22.764  -6.427  -3.881  0.00  0.00     0.275 HD
HETATM   28  H           1     -21.633  -5.231  -3.428  0.00  0.00     0.275 HD
ENDBRANCH  17  25
ENDBRANCH   3  17
TORSDOF 11
ENDMDL
MODEL 6
REMARK VINA RESULT:      -6.2     27.449     28.936
REMARK  11 active torsions:
REMARK  status: ('A' for Active; 'I' for Inactive)
REMARK    1  A    between atoms: N_3  and  C_9 
REMARK    2  A    between atoms: C_7  and  C_15 
REMARK    3  A    between atoms: C_7  and  C_19 
REMARK    4  A    between atoms: C_7  and  N_27 
REMARK    5  A    between atoms: C_8  and  C_11 
REMARK    6  A    between atoms: C_9  and  C_14 
REMARK    7  A    between atoms: N_10  and  C_11 
REMARK       I    between atoms: N_10  and  C_15 
REMARK    8  A    between atoms: C_11  and  C_12 
REMARK    9  A    between atoms: C_12  and  C_13 
REMARK   10  A    between atoms: C_13  and  C_14 
REMARK   11  A    between atoms: C_18  and  C_19 
ROOT
HETATM    1  H           1     -17.235   8.062   4.694  0.00  0.00     0.163 HD
HETATM    2  N           1     -17.412   9.053   4.808  0.00  0.00    -0.345 N 
HETATM    3  C           1     -16.420   9.878   5.264  0.00  0.00     0.249 C 
HETATM    4  O           1     -16.631  11.059   5.401  0.00  0.00    -0.271 OA
ENDROOT
BRANCH   2   5
HETATM    5  C           1     -18.718   9.597   4.489  0.00  0.00     0.185 C 
BRANCH   5   6
HETATM    6  C           1     -19.722   9.123   5.511  0.00  0.00     0.196 C 
HETATM    7  O           1     -19.465   9.216   6.731  0.00  0.00    -0.646 OA
HETATM    8  O           1     -20.812   8.639   5.138  0.00  0.00    -0.646 OA
ENDBRANCH   5   6
BRANCH   5   9
HETATM    9  C           1     -19.141   9.125   3.105  0.00  0.00     0.036 C 
BRANCH   9  10
HETATM   10  C           1     -18.013   9.376   2.114  0.00  0.00     0.004 C 
BRANCH  10  11
HETATM   11  C           1     -18.000  10.847   1.721  0.00  0.00     0.027 C 
BRANCH  11  12
HETATM   12  C           1     -16.582  11.260   1.344  0.00  0.00     0.229 C 
BRANCH  12  13
HETATM   13  N           1     -15.924  11.921   2.519  0.00  0.00    -0.079 N 
HETATM   14  H           1     -15.146  11.316   2.868  0.00  0.00     0.274 HD
HETATM   15  H           1     -15.541  12.848   2.228  0.00  0.00     0.274 HD
HETATM   16  H           1     -16.627  12.056   3.281  0.00  0.00     0.274 HD
ENDBRANCH  12  13
ENDBRANCH  11  12
ENDBRANCH  10  11
ENDBRANCH   9  10
ENDBRANCH   5   9
ENDBRANCH   2   5
BRANCH   3  17
HETATM   17  C           1     -15.061   9.311   5.596  0.00  0.00     0.278 C 
BRANCH  17  18
HETATM   18  C           1     -14.800   8.081   4.736  0.00  0.00     0.081 C 
BRANCH  18  19
HETATM   19  C           1     -14.312   8.510   3.387  0.00  0.00    -0.056 A 
HETATM   20  C           1     -14.841   7.926   2.236  0.00  0.00     0.007 A 
HETATM   21  C           1     -14.387   8.326   0.979  0.00  0.00     0.001 A 
HETATM   22  C           1     -13.403   9.309   0.873  0.00  0.00     0.000 A 
HETATM   23  C           1     -12.873   9.892   2.024  0.00  0.00     0.001 A 
HETATM   24  C           1     -13.327   9.493   3.280  0.00  0.00     0.007 A 
ENDBRANCH  18  19
ENDBRANCH  17  18
BRANCH  17  25
HETATM   25  N           1     -15.023   8.924   7.045  0.00  0.00    -0.066 N 
HETATM   26  H           1     -15.662   8.113   7.206  0.00  0.00     0.275 HD
HETATM   27  H           1     -15.331   9.733   7.630  0.00  0.00     0.275 HD
HETATM   28  H           1     -14.047   8.655   7.308  0.00  0.00     0.275 HD
ENDBRANCH  17  25
ENDBRANCH   3  17
TORSDOF 11
ENDMDL
MODEL 7
REMARK VINA RESULT:      -6.1     14.248     16.488
REMARK  11 active torsions:
REMARK  status: ('A' for Active; 'I' for Inactive)
REMARK    1  A    between atoms: N_3  and  C_9 
REMARK    2  A    between atoms: C_7  and  C_15 
REMARK    3  A    between atoms: C_7  and  C_19 
REMARK    4  A    between atoms: C_7  and  N_27 
REMARK    5  A    between atoms: C_8  and  C_11 
REMARK    6  A    between atoms: C_9  and  C_14 
REMARK    7  A    between atoms: N_10  and  C_11 
REMARK       I    between atoms: N_10  and  C_15 
REMARK    8  A    between atoms: C_11  and  C_12 
REMARK    9  A    between atoms: C_12  and  C_13 
REMARK   10  A    between atoms: C_13  and  C_14 
REMARK   11  A    between atoms: C_18  and  C_19 
ROOT
HETATM    1  H           1     -21.594  -4.735  -5.116  0.00  0.00     0.163 HD
HETATM    2  N           1     -21.437  -5.339  -5.913  0.00  0.00    -0.345 N 
HETATM    3  C           1     -21.539  -6.696  -5.775  0.00  0.00     0.249 C 
HETATM    4  O           1     -21.352  -7.417  -6.725  0.00  0.00    -0.271 OA
ENDROOT
BRANCH   2   5
HETATM    5  C           1     -21.104  -4.765  -7.203  0.00  0.00     0.185 C 
BRANCH   5   6
HETATM    6  C           1     -19.628  -4.448  -7.244  0.00  0.00     0.196 C 
HETATM    7  O           1     -18.891  -4.776  -6.290  0.00  0.00    -0.646 OA
HETATM    8  O           1     -19.144  -3.859  -8.234  0.00  0.00    -0.646 OA
ENDBRANCH   5   6
BRANCH   5   9
HETATM    9  C           1     -21.903  -3.486  -7.412  0.00  0.00     0.036 C 
BRANCH   9  10
HETATM   10  C           1     -22.763  -3.623  -8.661  0.00  0.00     0.004 C 
BRANCH  10  11
HETATM   11  C           1     -22.314  -4.840  -9.458  0.00  0.00     0.027 C 
BRANCH  11  12
HETATM   12  C           1     -21.896  -4.406 -10.858  0.00  0.00     0.229 C 
BRANCH  12  13
HETATM   13  N           1     -20.559  -3.729 -10.793  0.00  0.00    -0.079 N 
HETATM   14  H           1     -20.588  -2.846 -11.353  0.00  0.00     0.274 HD
HETATM   15  H           1     -20.330  -3.504  -9.799  0.00  0.00     0.274 HD
HETATM   16  H           1     -19.827  -4.364 -11.185  0.00  0.00     0.274 HD
ENDBRANCH  12  13
ENDBRANCH  11  12
ENDBRANCH  10  11
ENDBRANCH   9  10
ENDBRANCH   5   9
ENDBRANCH   2   5
BRANCH   3  17
HETATM   17  C           1     -21.885  -7.293  -4.432  0.00  0.00     0.278 C 
BRANCH  17  18
HETATM   18  C           1     -20.984  -6.692  -3.361  0.00  0.00     0.081 C 
BRANCH  18  19
HETATM   19  C           1     -21.331  -7.279  -2.028  0.00  0.00    -0.056 A 
HETATM   20  C           1     -20.574  -8.331  -1.511  0.00  0.00     0.007 A 
HETATM   21  C           1     -20.897  -8.878  -0.270  0.00  0.00     0.001 A 
HETATM   22  C           1     -21.978  -8.374   0.454  0.00  0.00     0.000 A 
HETATM   23  C           1     -22.735  -7.324  -0.063  0.00  0.00     0.001 A 
HETATM   24  C           1     -22.412  -6.777  -1.304  0.00  0.00     0.007 A 
ENDBRANCH  18  19
ENDBRANCH  17  18
BRANCH  17  25
HETATM   25  N           1     -21.681  -8.779  -4.479  0.00  0.00    -0.066 N 
HETATM   26  H           1     -20.932  -9.049  -3.803  0.00  0.00     0.275 HD
HETATM   27  H           1     -21.398  -9.061  -5.444  0.00  0.00     0.275 HD
HETATM   28  H           1     -22.572  -9.260  -4.221  0.00  0.00     0.275 HD
ENDBRANCH  17  25
ENDBRANCH   3  17
TORSDOF 11
ENDMDL
MODEL 8
REMARK VINA RESULT:      -6.1      4.398      8.497
REMARK  11 active torsions:
REMARK  status: ('A' for Active; 'I' for Inactive)
REMARK    1  A    between atoms: N_3  and  C_9 
REMARK    2  A    between atoms: C_7  and  C_15 
REMARK    3  A    between atoms: C_7  and  C_19 
REMARK    4  A    between atoms: C_7  and  N_27 
REMARK    5  A    between atoms: C_8  and  C_11 
REMARK    6  A    between atoms: C_9  and  C_14 
REMARK    7  A    between atoms: N_10  and  C_11 
REMARK       I    between atoms: N_10  and  C_15 
REMARK    8  A    between atoms: C_11  and  C_12 
REMARK    9  A    between atoms: C_12  and  C_13 
REMARK   10  A    between atoms: C_13  and  C_14 
REMARK   11  A    between atoms: C_18  and  C_19 
ROOT
HETATM    1  H           1     -33.294  -1.561 -11.726  0.00  0.00     0.163 HD
HETATM    2  N           1     -34.035  -2.249 -11.665  0.00  0.00    -0.345 N 
HETATM    3  C           1     -35.316  -1.852 -11.393  0.00  0.00     0.249 C 
HETATM    4  O           1     -36.201  -2.671 -11.319  0.00  0.00    -0.271 OA
ENDROOT
BRANCH   2   5
HETATM    5  C           1     -33.739  -3.654 -11.864  0.00  0.00     0.185 C 
BRANCH   5   6
HETATM    6  C           1     -34.391  -4.128 -13.141  0.00  0.00     0.196 C 
HETATM    7  O           1     -34.219  -3.493 -14.203  0.00  0.00    -0.646 OA
HETATM    8  O           1     -35.099  -5.157 -13.135  0.00  0.00    -0.646 OA
ENDBRANCH   5   6
BRANCH   5   9
HETATM    9  C           1     -34.280  -4.459 -10.690  0.00  0.00     0.036 C 
BRANCH   9  10
HETATM   10  C           1     -33.737  -5.880 -10.754  0.00  0.00     0.004 C 
BRANCH  10  11
HETATM   11  C           1     -34.700  -6.824 -10.047  0.00  0.00     0.027 C 
BRANCH  11  12
HETATM   12  C           1     -34.342  -8.265 -10.389  0.00  0.00     0.229 C 
BRANCH  12  13
HETATM   13  N           1     -34.186  -9.055  -9.124  0.00  0.00    -0.079 N 
HETATM   14  H           1     -35.127  -9.226  -8.700  0.00  0.00     0.274 HD
HETATM   15  H           1     -33.730  -9.970  -9.338  0.00  0.00     0.274 HD
HETATM   16  H           1     -33.594  -8.520  -8.449  0.00  0.00     0.274 HD
ENDBRANCH  12  13
ENDBRANCH  11  12
ENDBRANCH  10  11
ENDBRANCH   9  10
ENDBRANCH   5   9
ENDBRANCH   2   5
BRANCH   3  17
HETATM   17  C           1     -35.625  -0.389 -11.186  0.00  0.00     0.278 C 
BRANCH  17  18
HETATM   18  C           1     -37.131  -0.201 -11.055  0.00  0.00     0.081 C 
BRANCH  18  19
HETATM   19  C           1     -37.461   0.234  -9.660  0.00  0.00    -0.056 A 
HETATM   20  C           1     -37.768   1.570  -9.401  0.00  0.00     0.007 A 
HETATM   21  C           1     -38.075   1.976  -8.102  0.00  0.00     0.001 A 
HETATM   22  C           1     -38.075   1.045  -7.063  0.00  0.00     0.000 A 
HETATM   23  C           1     -37.767  -0.290  -7.322  0.00  0.00     0.001 A 
HETATM   24  C           1     -37.460  -0.696  -8.621  0.00  0.00     0.007 A 
ENDBRANCH  18  19
ENDBRANCH  17  18
BRANCH  17  25
HETATM   25  N           1     -35.124   0.398 -12.360  0.00  0.00    -0.066 N 
HETATM   26  H           1     -35.583   0.053 -13.233  0.00  0.00     0.275 HD
HETATM   27  H           1     -34.089   0.281 -12.442  0.00  0.00     0.275 HD
HETATM   28  H           1     -35.351   1.409 -12.224  0.00  0.00     0.275 HD
ENDBRANCH  17  25
ENDBRANCH   3  17
TORSDOF 11
ENDMDL
MODEL 9
REMARK VINA RESULT:      -6.0     15.310     16.657
REMARK  11 active torsions:
REMARK  status: ('A' for Active; 'I' for Inactive)
REMARK    1  A    between atoms: N_3  and  C_9 
REMARK    2  A    between atoms: C_7  and  C_15 
REMARK    3  A    between atoms: C_7  and  C_19 
REMARK    4  A    between atoms: C_7  and  N_27 
REMARK    5  A    between atoms: C_8  and  C_11 
REMARK    6  A    between atoms: C_9  and  C_14 
REMARK    7  A    between atoms: N_10  and  C_11 
REMARK       I    between atoms: N_10  and  C_15 
REMARK    8  A    between atoms: C_11  and  C_12 
REMARK    9  A    between atoms: C_12  and  C_13 
REMARK   10  A    between atoms: C_13  and  C_14 
REMARK   11  A    between atoms: C_18  and  C_19 
ROOT
HETATM    1  H           1     -21.275  -7.922  -2.762  0.00  0.00     0.163 HD
HETATM    2  N           1     -20.854  -8.359  -3.573  0.00  0.00    -0.345 N 
HETATM    3  C           1     -20.942  -7.756  -4.799  0.00  0.00     0.249 C 
HETATM    4  O           1     -20.440  -8.276  -5.766  0.00  0.00    -0.271 OA
ENDROOT
BRANCH   2   5
HETATM    5  C           1     -20.158  -9.624  -3.437  0.00  0.00     0.185 C 
BRANCH   5   6
HETATM    6  C           1     -21.052 -10.615  -2.731  0.00  0.00     0.196 C 
HETATM    7  O           1     -20.628 -11.760  -2.465  0.00  0.00    -0.646 OA
HETATM    8  O           1     -22.215 -10.289  -2.411  0.00  0.00    -0.646 OA
ENDBRANCH   5   6
BRANCH   5   9
HETATM    9  C           1     -18.887  -9.419  -2.623  0.00  0.00     0.036 C 
BRANCH   9  10
HETATM   10  C           1     -17.677  -9.482  -3.545  0.00  0.00     0.004 C 
BRANCH  10  11
HETATM   11  C           1     -17.798 -10.692  -4.462  0.00  0.00     0.027 C 
BRANCH  11  12
HETATM   12  C           1     -17.154 -10.377  -5.806  0.00  0.00     0.229 C 
BRANCH  12  13
HETATM   13  N           1     -17.928  -9.289  -6.489  0.00  0.00    -0.079 N 
HETATM   14  H           1     -18.804  -9.687  -6.897  0.00  0.00     0.274 HD
HETATM   15  H           1     -18.172  -8.547  -5.796  0.00  0.00     0.274 HD
HETATM   16  H           1     -17.347  -8.875  -7.253  0.00  0.00     0.274 HD
ENDBRANCH  12  13
ENDBRANCH  11  12
ENDBRANCH  10  11
ENDBRANCH   9  10
ENDBRANCH   5   9
ENDBRANCH   2   5
BRANCH   3  17
HETATM   17  C           1     -21.667  -6.440  -4.941  0.00  0.00     0.278 C 
BRANCH  17  18
HETATM   18  C           1     -20.673  -5.352  -5.325  0.00  0.00     0.081 C 
BRANCH  18  19
HETATM   19  C           1     -20.900  -4.949  -6.750  0.00  0.00    -0.056 A 
HETATM   20  C           1     -19.849  -5.004  -7.666  0.00  0.00     0.007 A 
HETATM   21  C           1     -20.060  -4.629  -8.993  0.00  0.00     0.001 A 
HETATM   22  C           1     -21.322  -4.199  -9.403  0.00  0.00     0.000 A 
HETATM   23  C           1     -22.372  -4.142  -8.487  0.00  0.00     0.001 A 
HETATM   24  C           1     -22.161  -4.517  -7.161  0.00  0.00     0.007 A 
ENDBRANCH  18  19
ENDBRANCH  17  18
BRANCH  17  25
HETATM   25  N           1     -22.316  -6.084  -3.636  0.00  0.00    -0.066 N 
HETATM   26  H           1     -22.023  -5.122  -3.352  0.00  0.00     0.275 HD
HETATM   27  H           1     -22.023  -6.769  -2.903  0.00  0.00     0.275 HD
HETATM   28  H           1     -23.355  -6.113  -3.745  0.00  0.00     0.275 HD
ENDBRANCH  17  25
ENDBRANCH   3  17
TORSDOF 11
ENDMDL
