MODEL 1
REMARK VINA RESULT:      -7.5      0.000      0.000
REMARK  11 active torsions:
REMARK  status: ('A' for Active; 'I' for Inactive)
REMARK    1  A    between atoms: C_1  and  C_15 
REMARK    2  A    between atoms: C_1  and  C_2 
REMARK    3  A    between atoms: C_2  and  C_3 
REMARK    4  A    between atoms: C_3  and  C_23 
REMARK    5  A    between atoms: N_8  and  C_15 
REMARK    6  A    between atoms: C_9  and  C_16 
REMARK    7  A    between atoms: N_11  and  C_16 
REMARK       I    between atoms: N_11  and  C_14 
REMARK    8  A    between atoms: C_13  and  C_25 
REMARK    9  A    between atoms: C_14  and  C_15 
REMARK   10  A    between atoms: C_16  and  C_25 
REMARK   11  A    between atoms: N_17  and  C_23 
ROOT
HETATM    1  N           1     -35.698  -1.292 -10.029  0.00  0.00    -0.344 N 
HETATM    2  H           1     -36.072  -1.622  -9.149  0.00  0.00     0.163 HD
HETATM    3  C           1     -34.711  -2.000 -10.662  0.00  0.00     0.249 C 
HETATM    4  O           1     -33.550  -1.762 -10.427  0.00  0.00    -0.271 OA
ENDROOT
BRANCH   3   5
HETATM    5  C           1     -35.075  -3.077 -11.654  0.00  0.00     0.274 C 
BRANCH   5   6
HETATM    6  C           1     -35.371  -4.373 -10.911  0.00  0.00     0.042 C 
BRANCH   6   7
HETATM    7  C           1     -34.061  -5.048 -10.524  0.00  0.00     0.004 C 
BRANCH   7   8
HETATM    8  C           1     -34.144  -6.536 -10.840  0.00  0.00     0.027 C 
BRANCH   8   9
HETATM    9  C           1     -34.974  -7.237  -9.774  0.00  0.00     0.229 C 
BRANCH   9  10
HETATM   10  N           1     -34.325  -8.540  -9.411  0.00  0.00    -0.079 N 
HETATM   11  H           1     -33.662  -8.822 -10.167  0.00  0.00     0.274 HD
HETATM   12  H           1     -35.060  -9.276  -9.300  0.00  0.00     0.274 HD
HETATM   13  H           1     -33.803  -8.431  -8.512  0.00  0.00     0.274 HD
ENDBRANCH   9  10
ENDBRANCH   8   9
ENDBRANCH   7   8
ENDBRANCH   6   7
ENDBRANCH   5   6
BRANCH   5  14
HETATM   14  N           1     -33.930  -3.294 -12.599  0.00  0.00    -0.067 N 
HETATM   15  H           1     -33.196  -3.871 -12.128  0.00  0.00     0.275 HD
HETATM   16  H           1     -33.523  -2.371 -12.872  0.00  0.00     0.275 HD
HETATM   17  H           1     -34.271  -3.791 -13.452  0.00  0.00     0.275 HD
ENDBRANCH   5  14
ENDBRANCH   3   5
BRANCH   1  18
HETATM   18  C           1     -36.205  -0.068 -10.619  0.00  0.00     0.189 C 
BRANCH  18  19
HETATM   19  C           1     -36.839   0.781  -9.545  0.00  0.00     0.197 C 
HETATM   20  O           1     -37.911   1.380  -9.774  0.00  0.00    -0.646 OA
HETATM   21  O           1     -36.290   0.885  -8.427  0.00  0.00    -0.646 OA
ENDBRANCH  18  19
BRANCH  18  22
HETATM   22  C           1     -37.246  -0.410 -11.677  0.00  0.00     0.074 C 
BRANCH  22  23
HETATM   23  C           1     -36.749   0.020 -13.023  0.00  0.00    -0.056 A 
HETATM   24  C           1     -35.429   0.441 -13.177  0.00  0.00     0.007 A 
HETATM   25  C           1     -34.967   0.843 -14.431  0.00  0.00     0.001 A 
HETATM   26  C           1     -35.825   0.820 -15.530  0.00  0.00     0.000 A 
HETATM   27  C           1     -37.146   0.398 -15.376  0.00  0.00     0.001 A 
HETATM   28  C           1     -37.607  -0.003 -14.122  0.00  0.00     0.007 A 
ENDBRANCH  22  23
ENDBRANCH  18  22
ENDBRANCH   1  18
TORSDOF 11
ENDMDL
MODEL 2
REMARK VINA RESULT:      -6.7      5.541      7.804
REMARK  11 active torsions:
REMARK  status: ('A' for Active; 'I' for Inactive)
REMARK    1  A    between atoms: C_1  and  C_15 
REMARK    2  A    between atoms: C_1  and  C_2 
REMARK    3  A    between atoms: C_2  and  C_3 
REMARK    4  A    between atoms: C_3  and  C_23 
REMARK    5  A    between atoms: N_8  and  C_15 
REMARK    6  A    between atoms: C_9  and  C_16 
REMARK    7  A    between atoms: N_11  and  C_16 
REMARK       I    between atoms: N_11  and  C_14 
REMARK    8  A    between atoms: C_13  and  C_25 
REMARK    9  A    between atoms: C_14  and  C_15 
REMARK   10  A    between atoms: C_16  and  C_25 
REMARK   11  A    between atoms: N_17  and  C_23 
ROOT
HETATM    1  N           1     -33.903  -4.499 -15.606  0.00  0.00    -0.344 N 
HETATM    2  H           1     -34.633  -5.030 -16.064  0.00  0.00     0.163 HD
HETATM    3  C           1     -34.144  -3.908 -14.394  0.00  0.00     0.249 C 
HETATM    4  O           1     -34.575  -2.781 -14.346  0.00  0.00    -0.271 OA
ENDROOT
BRANCH   3   5
HETATM    5  C           1     -33.869  -4.666 -13.118  0.00  0.00     0.274 C 
BRANCH   5   6
HETATM    6  C           1     -34.689  -4.065 -11.984  0.00  0.00     0.042 C 
BRANCH   6   7
HETATM    7  C           1     -33.774  -3.743 -10.810  0.00  0.00     0.004 C 
BRANCH   7   8
HETATM    8  C           1     -33.833  -2.249 -10.516  0.00  0.00     0.027 C 
BRANCH   8   9
HETATM    9  C           1     -35.107  -1.664 -11.110  0.00  0.00     0.229 C 
BRANCH   9  10
HETATM   10  N           1     -34.755  -0.540 -12.039  0.00  0.00    -0.079 N 
HETATM   11  H           1     -33.731  -0.564 -12.244  0.00  0.00     0.274 HD
HETATM   12  H           1     -34.999   0.373 -11.590  0.00  0.00     0.274 HD
HETATM   13  H           1     -35.292  -0.643 -12.931  0.00  0.00     0.274 HD
ENDBRANCH   9  10
ENDBRANCH   8   9
ENDBRANCH   7   8
ENDBRANCH   6   7
ENDBRANCH   5   6
BRANCH   5  14
HETATM   14  N           1     -32.410  -4.569 -12.784  0.00  0.00    -0.067 N 
HETATM   15  H           1     -31.878  -4.273 -13.634  0.00  0.00     0.275 HD
HETATM   16  H           1     -32.062  -5.502 -12.464  0.00  0.00     0.275 HD
HETATM   17  H           1     -32.272  -3.866 -12.024  0.00  0.00     0.275 HD
ENDBRANCH   5  14
ENDBRANCH   3   5
BRANCH   1  18
HETATM   18  C           1     -32.603  -4.363 -16.234  0.00  0.00     0.189 C 
BRANCH  18  19
HETATM   19  C           1     -32.666  -3.288 -17.290  0.00  0.00     0.197 C 
HETATM   20  O           1     -31.641  -2.991 -17.942  0.00  0.00    -0.646 OA
HETATM   21  O           1     -33.744  -2.695 -17.515  0.00  0.00    -0.646 OA
ENDBRANCH  18  19
BRANCH  18  22
HETATM   22  C           1     -32.210  -5.686 -16.877  0.00  0.00     0.074 C 
BRANCH  22  23
HETATM   23  C           1     -30.718  -5.805 -16.904  0.00  0.00    -0.056 A 
HETATM   24  C           1     -30.076  -6.281 -18.046  0.00  0.00     0.007 A 
HETATM   25  C           1     -28.686  -6.393 -18.070  0.00  0.00     0.001 A 
HETATM   26  C           1     -27.938  -6.026 -16.951  0.00  0.00     0.000 A 
HETATM   27  C           1     -28.580  -5.549 -15.808  0.00  0.00     0.001 A 
HETATM   28  C           1     -29.970  -5.438 -15.785  0.00  0.00     0.007 A 
ENDBRANCH  22  23
ENDBRANCH  18  22
ENDBRANCH   1  18
TORSDOF 11
ENDMDL
MODEL 3
REMARK VINA RESULT:      -6.7     14.675     18.049
REMARK  11 active torsions:
REMARK  status: ('A' for Active; 'I' for Inactive)
REMARK    1  A    between atoms: C_1  and  C_15 
REMARK    2  A    between atoms: C_1  and  C_2 
REMARK    3  A    between atoms: C_2  and  C_3 
REMARK    4  A    between atoms: C_3  and  C_23 
REMARK    5  A    between atoms: N_8  and  C_15 
REMARK    6  A    between atoms: C_9  and  C_16 
REMARK    7  A    between atoms: N_11  and  C_16 
REMARK       I    between atoms: N_11  and  C_14 
REMARK    8  A    between atoms: C_13  and  C_25 
REMARK    9  A    between atoms: C_14  and  C_15 
REMARK   10  A    between atoms: C_16  and  C_25 
REMARK   11  A    between atoms: N_17  and  C_23 
ROOT
HETATM    1  N           1     -20.871  -7.978  -5.705  0.00  0.00    -0.344 N 
HETATM    2  H           1     -21.591  -8.520  -6.165  0.00  0.00     0.163 HD
HETATM    3  C           1     -20.510  -6.756  -6.206  0.00  0.00     0.249 C 
HETATM    4  O           1     -19.624  -6.675  -7.023  0.00  0.00    -0.271 OA
ENDROOT
BRANCH   3   5
HETATM    5  C           1     -21.219  -5.509  -5.736  0.00  0.00     0.274 C 
BRANCH   5   6
HETATM    6  C           1     -22.160  -5.018  -6.828  0.00  0.00     0.042 C 
BRANCH   6   7
HETATM    7  C           1     -21.570  -3.778  -7.488  0.00  0.00     0.004 C 
BRANCH   7   8
HETATM    8  C           1     -22.171  -3.608  -8.878  0.00  0.00     0.027 C 
BRANCH   8   9
HETATM    9  C           1     -23.540  -4.274  -8.925  0.00  0.00     0.229 C 
BRANCH   9  10
HETATM   10  N           1     -24.603  -3.224  -9.056  0.00  0.00    -0.079 N 
HETATM   11  H           1     -24.728  -2.737  -8.141  0.00  0.00     0.274 HD
HETATM   12  H           1     -25.504  -3.675  -9.337  0.00  0.00     0.274 HD
HETATM   13  H           1     -24.320  -2.530  -9.785  0.00  0.00     0.274 HD
ENDBRANCH   9  10
ENDBRANCH   8   9
ENDBRANCH   7   8
ENDBRANCH   6   7
ENDBRANCH   5   6
BRANCH   5  14
HETATM   14  N           1     -20.208  -4.443  -5.432  0.00  0.00    -0.067 N 
HETATM   15  H           1     -20.476  -3.560  -5.923  0.00  0.00     0.275 HD
HETATM   16  H           1     -19.265  -4.752  -5.763  0.00  0.00     0.275 HD
HETATM   17  H           1     -20.178  -4.274  -4.401  0.00  0.00     0.275 HD
ENDBRANCH   5  14
ENDBRANCH   3   5
BRANCH   1  18
HETATM   18  C           1     -20.222  -8.496  -4.516  0.00  0.00     0.189 C 
BRANCH  18  19
HETATM   19  C           1     -19.007  -9.296  -4.916  0.00  0.00     0.197 C 
HETATM   20  O           1     -19.007  -9.939  -5.988  0.00  0.00    -0.646 OA
HETATM   21  O           1     -18.001  -9.315  -4.175  0.00  0.00    -0.646 OA
ENDBRANCH  18  19
BRANCH  18  22
HETATM   22  C           1     -21.193  -9.390  -3.757  0.00  0.00     0.074 C 
BRANCH  22  23
HETATM   23  C           1     -21.653  -8.689  -2.517  0.00  0.00    -0.056 A 
HETATM   24  C           1     -21.706  -7.296  -2.482  0.00  0.00     0.007 A 
HETATM   25  C           1     -22.133  -6.642  -1.326  0.00  0.00     0.001 A 
HETATM   26  C           1     -22.510  -7.383  -0.206  0.00  0.00     0.000 A 
HETATM   27  C           1     -22.458  -8.777  -0.241  0.00  0.00     0.001 A 
HETATM   28  C           1     -22.030  -9.430  -1.397  0.00  0.00     0.007 A 
ENDBRANCH  22  23
ENDBRANCH  18  22
ENDBRANCH   1  18
TORSDOF 11
ENDMDL
MODEL 4
REMARK VINA RESULT:      -6.5      5.562      7.448
REMARK  11 active torsions:
REMARK  status: ('A' for Active; 'I' for Inactive)
REMARK    1  A    between atoms: C_1  and  C_15 
REMARK    2  A    between atoms: C_1  and  C_2 
REMARK    3  A    between atoms: C_2  and  C_3 
REMARK    4  A    between atoms: C_3  and  C_23 
REMARK    5  A    between atoms: N_8  and  C_15 
REMARK    6  A    between atoms: C_9  and  C_16 
REMARK    7  A    between atoms: N_11  and  C_16 
REMARK       I    between atoms: N_11  and  C_14 
REMARK    8  A    between atoms: C_13  and  C_25 
REMARK    9  A    between atoms: C_14  and  C_15 
REMARK   10  A    between atoms: C_16  and  C_25 
REMARK   11  A    between atoms: N_17  and  C_23 
ROOT
HETATM    1  N           1     -33.840  -4.541 -15.667  0.00  0.00    -0.344 N 
HETATM    2  H           1     -34.560  -5.065 -16.147  0.00  0.00     0.163 HD
HETATM    3  C           1     -34.096  -3.994 -14.438  0.00  0.00     0.249 C 
HETATM    4  O           1     -34.540  -2.874 -14.356  0.00  0.00    -0.271 OA
ENDROOT
BRANCH   3   5
HETATM    5  C           1     -33.822  -4.791 -13.186  0.00  0.00     0.274 C 
BRANCH   5   6
HETATM    6  C           1     -34.787  -4.360 -12.089  0.00  0.00     0.042 C 
BRANCH   6   7
HETATM    7  C           1     -34.141  -4.585 -10.727  0.00  0.00     0.004 C 
BRANCH   7   8
HETATM    8  C           1     -34.877  -5.701  -9.995  0.00  0.00     0.027 C 
BRANCH   8   9
HETATM    9  C           1     -34.408  -7.050 -10.522  0.00  0.00     0.229 C 
BRANCH   9  10
HETATM   10  N           1     -34.783  -8.126  -9.546  0.00  0.00    -0.079 N 
HETATM   11  H           1     -33.928  -8.659  -9.269  0.00  0.00     0.274 HD
HETATM   12  H           1     -35.469  -8.777  -9.992  0.00  0.00     0.274 HD
HETATM   13  H           1     -35.214  -7.693  -8.698  0.00  0.00     0.274 HD
ENDBRANCH   9  10
ENDBRANCH   8   9
ENDBRANCH   7   8
ENDBRANCH   6   7
ENDBRANCH   5   6
BRANCH   5  14
HETATM   14  N           1     -32.413  -4.545 -12.736  0.00  0.00    -0.067 N 
HETATM   15  H           1     -32.326  -4.781 -11.721  0.00  0.00     0.275 HD
HETATM   16  H           1     -32.170  -3.539 -12.880  0.00  0.00     0.275 HD
HETATM   17  H           1     -31.759  -5.144 -13.290  0.00  0.00     0.275 HD
ENDBRANCH   5  14
ENDBRANCH   3   5
BRANCH   1  18
HETATM   18  C           1     -32.537  -4.370 -16.280  0.00  0.00     0.189 C 
BRANCH  18  19
HETATM   19  C           1     -32.615  -3.293 -17.333  0.00  0.00     0.197 C 
HETATM   20  O           1     -33.694  -2.695 -17.536  0.00  0.00    -0.646 OA
HETATM   21  O           1     -31.601  -2.999 -18.002  0.00  0.00    -0.646 OA
ENDBRANCH  18  19
BRANCH  18  22
HETATM   22  C           1     -32.104  -5.681 -16.924  0.00  0.00     0.074 C 
BRANCH  22  23
HETATM   23  C           1     -30.610  -5.773 -16.914  0.00  0.00    -0.056 A 
HETATM   24  C           1     -29.926  -6.151 -18.068  0.00  0.00     0.007 A 
HETATM   25  C           1     -28.534  -6.238 -18.058  0.00  0.00     0.001 A 
HETATM   26  C           1     -27.826  -5.943 -16.893  0.00  0.00     0.000 A 
HETATM   27  C           1     -28.510  -5.564 -15.737  0.00  0.00     0.001 A 
HETATM   28  C           1     -29.902  -5.478 -15.749  0.00  0.00     0.007 A 
ENDBRANCH  22  23
ENDBRANCH  18  22
ENDBRANCH   1  18
TORSDOF 11
ENDMDL
MODEL 5
REMARK VINA RESULT:      -6.4     15.724     18.960
REMARK  11 active torsions:
REMARK  status: ('A' for Active; 'I' for Inactive)
REMARK    1  A    between atoms: C_1  and  C_15 
REMARK    2  A    between atoms: C_1  and  C_2 
REMARK    3  A    between atoms: C_2  and  C_3 
REMARK    4  A    between atoms: C_3  and  C_23 
REMARK    5  A    between atoms: N_8  and  C_15 
REMARK    6  A    between atoms: C_9  and  C_16 
REMARK    7  A    between atoms: N_11  and  C_16 
REMARK       I    between atoms: N_11  and  C_14 
REMARK    8  A    between atoms: C_13  and  C_25 
REMARK    9  A    between atoms: C_14  and  C_15 
REMARK   10  A    between atoms: C_16  and  C_25 
REMARK   11  A    between atoms: N_17  and  C_23 
ROOT
HETATM    1  N           1     -20.620  -7.297  -3.140  0.00  0.00    -0.344 N 
HETATM    2  H           1     -20.228  -6.758  -2.378  0.00  0.00     0.163 HD
HETATM    3  C           1     -21.190  -6.657  -4.208  0.00  0.00     0.249 C 
HETATM    4  O           1     -22.368  -6.388  -4.194  0.00  0.00    -0.271 OA
ENDROOT
BRANCH   3   5
HETATM    5  C           1     -20.346  -6.289  -5.404  0.00  0.00     0.274 C 
BRANCH   5   6
HETATM    6  C           1     -20.352  -4.776  -5.583  0.00  0.00     0.042 C 
BRANCH   6   7
HETATM    7  C           1     -20.291  -4.439  -7.067  0.00  0.00     0.004 C 
BRANCH   7   8
HETATM    8  C           1     -21.406  -3.459  -7.411  0.00  0.00     0.027 C 
BRANCH   8   9
HETATM    9  C           1     -22.348  -4.095  -8.424  0.00  0.00     0.229 C 
BRANCH   9  10
HETATM   10  N           1     -23.745  -4.097  -7.875  0.00  0.00    -0.079 N 
HETATM   11  H           1     -23.809  -4.782  -7.089  0.00  0.00     0.274 HD
HETATM   12  H           1     -24.415  -4.369  -8.630  0.00  0.00     0.274 HD
HETATM   13  H           1     -23.984  -3.141  -7.526  0.00  0.00     0.274 HD
ENDBRANCH   9  10
ENDBRANCH   8   9
ENDBRANCH   7   8
ENDBRANCH   6   7
ENDBRANCH   5   6
BRANCH   5  14
HETATM   14  N           1     -20.910  -6.938  -6.633  0.00  0.00    -0.067 N 
HETATM   15  H           1     -20.494  -6.494  -7.483  0.00  0.00     0.275 HD
HETATM   16  H           1     -21.948  -6.813  -6.649  0.00  0.00     0.275 HD
HETATM   17  H           1     -20.682  -7.958  -6.625  0.00  0.00     0.275 HD
ENDBRANCH   5  14
ENDBRANCH   3   5
BRANCH   1  18
HETATM   18  C           1     -20.579  -8.745  -3.099  0.00  0.00     0.189 C 
BRANCH  18  19
HETATM   19  C           1     -21.726  -9.257  -2.265  0.00  0.00     0.197 C 
HETATM   20  O           1     -22.143  -8.586  -1.296  0.00  0.00    -0.646 OA
HETATM   21  O           1     -22.261 -10.352  -2.543  0.00  0.00    -0.646 OA
ENDBRANCH  18  19
BRANCH  18  22
HETATM   22  C           1     -19.261  -9.197  -2.483  0.00  0.00     0.074 C 
BRANCH  22  23
HETATM   23  C           1     -18.260  -9.441  -3.570  0.00  0.00    -0.056 A 
HETATM   24  C           1     -18.681  -9.558  -4.894  0.00  0.00     0.007 A 
HETATM   25  C           1     -17.749  -9.786  -5.906  0.00  0.00     0.001 A 
HETATM   26  C           1     -16.394  -9.896  -5.593  0.00  0.00     0.000 A 
HETATM   27  C           1     -15.972  -9.780  -4.268  0.00  0.00     0.001 A 
HETATM   28  C           1     -16.905  -9.551  -3.257  0.00  0.00     0.007 A 
ENDBRANCH  22  23
ENDBRANCH  18  22
ENDBRANCH   1  18
TORSDOF 11
ENDMDL
MODEL 6
REMARK VINA RESULT:      -6.3     15.880     18.970
REMARK  11 active torsions:
REMARK  status: ('A' for Active; 'I' for Inactive)
REMARK    1  A    between atoms: C_1  and  C_15 
REMARK    2  A    between atoms: C_1  and  C_2 
REMARK    3  A    between atoms: C_2  and  C_3 
REMARK    4  A    between atoms: C_3  and  C_23 
REMARK    5  A    between atoms: N_8  and  C_15 
REMARK    6  A    between atoms: C_9  and  C_16 
REMARK    7  A    between atoms: N_11  and  C_16 
REMARK       I    between atoms: N_11  and  C_14 
REMARK    8  A    between atoms: C_13  and  C_25 
REMARK    9  A    between atoms: C_14  and  C_15 
REMARK   10  A    between atoms: C_16  and  C_25 
REMARK   11  A    between atoms: N_17  and  C_23 
ROOT
HETATM    1  N           1     -20.958  -7.547  -2.040  0.00  0.00    -0.344 N 
HETATM    2  H           1     -19.955  -7.545  -1.910  0.00  0.00     0.163 HD
HETATM    3  C           1     -21.542  -6.633  -2.877  0.00  0.00     0.249 C 
HETATM    4  O           1     -21.905  -5.564  -2.445  0.00  0.00    -0.271 OA
ENDROOT
BRANCH   3   5
HETATM    5  C           1     -21.732  -6.961  -4.337  0.00  0.00     0.274 C 
BRANCH   5   6
HETATM    6  C           1     -20.473  -6.588  -5.110  0.00  0.00     0.042 C 
BRANCH   6   7
HETATM    7  C           1     -20.525  -5.112  -5.484  0.00  0.00     0.004 C 
BRANCH   7   8
HETATM    8  C           1     -19.828  -4.903  -6.822  0.00  0.00     0.027 C 
BRANCH   8   9
HETATM    9  C           1     -20.857  -4.526  -7.879  0.00  0.00     0.229 C 
BRANCH   9  10
HETATM   10  N           1     -21.800  -3.504  -7.317  0.00  0.00    -0.079 N 
HETATM   11  H           1     -22.144  -3.821  -6.384  0.00  0.00     0.274 HD
HETATM   12  H           1     -22.612  -3.386  -7.966  0.00  0.00     0.274 HD
HETATM   13  H           1     -21.302  -2.590  -7.213  0.00  0.00     0.274 HD
ENDBRANCH   9  10
ENDBRANCH   8   9
ENDBRANCH   7   8
ENDBRANCH   6   7
ENDBRANCH   5   6
BRANCH   5  14
HETATM   14  N           1     -22.896  -6.185  -4.877  0.00  0.00    -0.067 N 
HETATM   15  H           1     -23.228  -6.627  -5.764  0.00  0.00     0.275 HD
HETATM   16  H           1     -22.601  -5.200  -5.068  0.00  0.00     0.275 HD
HETATM   17  H           1     -23.672  -6.186  -4.176  0.00  0.00     0.275 HD
ENDBRANCH   5  14
ENDBRANCH   3   5
BRANCH   1  18
HETATM   18  C           1     -21.777  -8.517  -1.341  0.00  0.00     0.189 C 
BRANCH  18  19
HETATM   19  C           1     -22.215  -7.943  -0.017  0.00  0.00     0.197 C 
HETATM   20  O           1     -21.434  -7.955   0.959  0.00  0.00    -0.646 OA
HETATM   21  O           1     -23.360  -7.455   0.104  0.00  0.00    -0.646 OA
ENDBRANCH  18  19
BRANCH  18  22
HETATM   22  C           1     -20.968  -9.786  -1.103  0.00  0.00     0.074 C 
BRANCH  22  23
HETATM   23  C           1     -21.877 -10.875  -0.625  0.00  0.00    -0.056 A 
HETATM   24  C           1     -23.101 -11.091  -1.258  0.00  0.00     0.007 A 
HETATM   25  C           1     -23.948 -12.106  -0.812  0.00  0.00     0.001 A 
HETATM   26  C           1     -23.570 -12.906   0.266  0.00  0.00     0.000 A 
HETATM   27  C           1     -22.345 -12.691   0.899  0.00  0.00     0.001 A 
HETATM   28  C           1     -21.499 -11.676   0.453  0.00  0.00     0.007 A 
ENDBRANCH  22  23
ENDBRANCH  18  22
ENDBRANCH   1  18
TORSDOF 11
ENDMDL
MODEL 7
REMARK VINA RESULT:      -6.2     14.812     16.989
REMARK  11 active torsions:
REMARK  status: ('A' for Active; 'I' for Inactive)
REMARK    1  A    between atoms: C_1  and  C_15 
REMARK    2  A    between atoms: C_1  and  C_2 
REMARK    3  A    between atoms: C_2  and  C_3 
REMARK    4  A    between atoms: C_3  and  C_23 
REMARK    5  A    between atoms: N_8  and  C_15 
REMARK    6  A    between atoms: C_9  and  C_16 
REMARK    7  A    between atoms: N_11  and  C_16 
REMARK       I    between atoms: N_11  and  C_14 
REMARK    8  A    between atoms: C_13  and  C_25 
REMARK    9  A    between atoms: C_14  and  C_15 
REMARK   10  A    between atoms: C_16  and  C_25 
REMARK   11  A    between atoms: N_17  and  C_23 
ROOT
HETATM    1  N           1     -22.415  -6.404  -4.144  0.00  0.00    -0.344 N 
HETATM    2  H           1     -23.417  -6.267  -4.166  0.00  0.00     0.163 HD
HETATM    3  C           1     -21.746  -6.370  -2.949  0.00  0.00     0.249 C 
HETATM    4  O           1     -21.308  -5.325  -2.531  0.00  0.00    -0.271 OA
ENDROOT
BRANCH   3   5
HETATM    5  C           1     -21.557  -7.640  -2.156  0.00  0.00     0.274 C 
BRANCH   5   6
HETATM    6  C           1     -22.258  -7.507  -0.810  0.00  0.00     0.042 C 
BRANCH   6   7
HETATM    7  C           1     -21.519  -8.335   0.233  0.00  0.00     0.004 C 
BRANCH   7   8
HETATM    8  C           1     -22.022  -9.772   0.190  0.00  0.00     0.027 C 
BRANCH   8   9
HETATM    9  C           1     -23.537  -9.776   0.030  0.00  0.00     0.229 C 
BRANCH   9  10
HETATM   10  N           1     -24.018 -11.187  -0.142  0.00  0.00    -0.079 N 
HETATM   11  H           1     -24.612 -11.251  -0.999  0.00  0.00     0.274 HD
HETATM   12  H           1     -24.581 -11.467   0.694  0.00  0.00     0.274 HD
HETATM   13  H           1     -23.197 -11.826  -0.239  0.00  0.00     0.274 HD
ENDBRANCH   9  10
ENDBRANCH   8   9
ENDBRANCH   7   8
ENDBRANCH   6   7
ENDBRANCH   5   6
BRANCH   5  14
HETATM   14  N           1     -20.092  -7.876  -1.933  0.00  0.00    -0.067 N 
HETATM   15  H           1     -19.914  -8.903  -1.853  0.00  0.00     0.275 HD
HETATM   16  H           1     -19.792  -7.402  -1.051  0.00  0.00     0.275 HD
HETATM   17  H           1     -19.550  -7.490  -2.739  0.00  0.00     0.275 HD
ENDBRANCH   5  14
ENDBRANCH   3   5
BRANCH   1  18
HETATM   18  C           1     -21.687  -6.634  -5.376  0.00  0.00     0.189 C 
BRANCH  18  19
HETATM   19  C           1     -20.860  -7.888  -5.244  0.00  0.00     0.197 C 
HETATM   20  O           1     -19.621  -7.808  -5.100  0.00  0.00    -0.646 OA
HETATM   21  O           1     -21.414  -9.009  -5.278  0.00  0.00    -0.646 OA
ENDBRANCH  18  19
BRANCH  18  22
HETATM   22  C           1     -20.772  -5.448  -5.654  0.00  0.00     0.074 C 
BRANCH  22  23
HETATM   23  C           1     -21.011  -4.949  -7.046  0.00  0.00    -0.056 A 
HETATM   24  C           1     -19.994  -5.020  -7.997  0.00  0.00     0.007 A 
HETATM   25  C           1     -20.216  -4.554  -9.293  0.00  0.00     0.001 A 
HETATM   26  C           1     -21.457  -4.019  -9.638  0.00  0.00     0.000 A 
HETATM   27  C           1     -22.475  -3.948  -8.686  0.00  0.00     0.001 A 
HETATM   28  C           1     -22.252  -4.414  -7.390  0.00  0.00     0.007 A 
ENDBRANCH  22  23
ENDBRANCH  18  22
ENDBRANCH   1  18
TORSDOF 11
ENDMDL
MODEL 8
REMARK VINA RESULT:      -6.2     17.418     19.651
REMARK  11 active torsions:
REMARK  status: ('A' for Active; 'I' for Inactive)
REMARK    1  A    between atoms: C_1  and  C_15 
REMARK    2  A    between atoms: C_1  and  C_2 
REMARK    3  A    between atoms: C_2  and  C_3 
REMARK    4  A    between atoms: C_3  and  C_23 
REMARK    5  A    between atoms: N_8  and  C_15 
REMARK    6  A    between atoms: C_9  and  C_16 
REMARK    7  A    between atoms: N_11  and  C_16 
REMARK       I    between atoms: N_11  and  C_14 
REMARK    8  A    between atoms: C_13  and  C_25 
REMARK    9  A    between atoms: C_14  and  C_15 
REMARK   10  A    between atoms: C_16  and  C_25 
REMARK   11  A    between atoms: N_17  and  C_23 
ROOT
HETATM    1  N           1     -22.587 -11.700  -2.887  0.00  0.00    -0.344 N 
HETATM    2  H           1     -23.363 -11.399  -3.462  0.00  0.00     0.163 HD
HETATM    3  C           1     -21.304 -11.585  -3.354  0.00  0.00     0.249 C 
HETATM    4  O           1     -20.803 -12.493  -3.973  0.00  0.00    -0.271 OA
ENDROOT
BRANCH   3   5
HETATM    5  C           1     -20.518 -10.324  -3.092  0.00  0.00     0.274 C 
BRANCH   5   6
HETATM    6  C           1     -21.444  -9.119  -3.190  0.00  0.00     0.042 C 
BRANCH   6   7
HETATM    7  C           1     -20.826  -7.942  -2.445  0.00  0.00     0.004 C 
BRANCH   7   8
HETATM    8  C           1     -21.676  -6.697  -2.669  0.00  0.00     0.027 C 
BRANCH   8   9
HETATM    9  C           1     -21.361  -6.105  -4.036  0.00  0.00     0.229 C 
BRANCH   9  10
HETATM   10  N           1     -22.581  -6.178  -4.907  0.00  0.00    -0.079 N 
HETATM   11  H           1     -22.597  -5.359  -5.554  0.00  0.00     0.274 HD
HETATM   12  H           1     -23.437  -6.166  -4.307  0.00  0.00     0.274 HD
HETATM   13  H           1     -22.559  -7.063  -5.464  0.00  0.00     0.274 HD
ENDBRANCH   9  10
ENDBRANCH   8   9
ENDBRANCH   7   8
ENDBRANCH   6   7
ENDBRANCH   5   6
BRANCH   5  14
HETATM   14  N           1     -19.424 -10.197  -4.110  0.00  0.00    -0.067 N 
HETATM   15  H           1     -18.589 -10.742  -3.794  0.00  0.00     0.275 HD
HETATM   16  H           1     -19.162  -9.191  -4.217  0.00  0.00     0.275 HD
HETATM   17  H           1     -19.756 -10.571  -5.028  0.00  0.00     0.275 HD
ENDBRANCH   5  14
ENDBRANCH   3   5
BRANCH   1  18
HETATM   18  C           1     -22.833 -12.254  -1.570  0.00  0.00     0.189 C 
BRANCH  18  19
HETATM   19  C           1     -23.493 -13.604  -1.708  0.00  0.00     0.197 C 
HETATM   20  O           1     -23.042 -14.439  -2.521  0.00  0.00    -0.646 OA
HETATM   21  O           1     -24.490 -13.886  -1.008  0.00  0.00    -0.646 OA
ENDBRANCH  18  19
BRANCH  18  22
HETATM   22  C           1     -23.747 -11.318  -0.789  0.00  0.00     0.074 C 
BRANCH  22  23
HETATM   23  C           1     -22.921 -10.289  -0.082  0.00  0.00    -0.056 A 
HETATM   24  C           1     -23.426  -9.005   0.117  0.00  0.00     0.007 A 
HETATM   25  C           1     -22.656  -8.046   0.775  0.00  0.00     0.001 A 
HETATM   26  C           1     -21.381  -8.372   1.236  0.00  0.00     0.000 A 
HETATM   27  C           1     -20.874  -9.657   1.036  0.00  0.00     0.001 A 
HETATM   28  C           1     -21.645 -10.616   0.378  0.00  0.00     0.007 A 
ENDBRANCH  22  23
ENDBRANCH  18  22
ENDBRANCH   1  18
TORSDOF 11
ENDMDL
MODEL 9
REMARK VINA RESULT:      -6.2     16.902     19.893
REMARK  11 active torsions:
REMARK  status: ('A' for Active; 'I' for Inactive)
REMARK    1  A    between atoms: C_1  and  C_15 
REMARK    2  A    between atoms: C_1  and  C_2 
REMARK    3  A    between atoms: C_2  and  C_3 
REMARK    4  A    between atoms: C_3  and  C_23 
REMARK    5  A    between atoms: N_8  and  C_15 
REMARK    6  A    between atoms: C_9  and  C_16 
REMARK    7  A    between atoms: N_11  and  C_16 
REMARK       I    between atoms: N_11  and  C_14 
REMARK    8  A    between atoms: C_13  and  C_25 
REMARK    9  A    between atoms: C_14  and  C_15 
REMARK   10  A    between atoms: C_16  and  C_25 
REMARK   11  A    between atoms: N_17  and  C_23 
ROOT
HETATM    1  N           1     -19.574  -8.214  -4.386  0.00  0.00    -0.344 N 
HETATM    2  H           1     -19.071  -7.518  -4.922  0.00  0.00     0.163 HD
HETATM    3  C           1     -18.956  -9.384  -4.034  0.00  0.00     0.249 C 
HETATM    4  O           1     -19.016 -10.343  -4.765  0.00  0.00    -0.271 OA
ENDROOT
BRANCH   3   5
HETATM    5  C           1     -18.203  -9.474  -2.729  0.00  0.00     0.274 C 
BRANCH   5   6
HETATM    6  C           1     -16.705  -9.469  -3.007  0.00  0.00     0.042 C 
BRANCH   6   7
HETATM    7  C           1     -16.054 -10.655  -2.307  0.00  0.00     0.004 C 
BRANCH   7   8
HETATM    8  C           1     -15.245 -11.460  -3.318  0.00  0.00     0.027 C 
BRANCH   8   9
HETATM    9  C           1     -15.541 -10.955  -4.723  0.00  0.00     0.229 C 
BRANCH   9  10
HETATM   10  N           1     -16.420 -11.942  -5.435  0.00  0.00    -0.079 N 
HETATM   11  H           1     -17.041 -11.436  -6.104  0.00  0.00     0.274 HD
HETATM   12  H           1     -17.004 -12.454  -4.735  0.00  0.00     0.274 HD
HETATM   13  H           1     -15.825 -12.624  -5.958  0.00  0.00     0.274 HD
ENDBRANCH   9  10
ENDBRANCH   8   9
ENDBRANCH   7   8
ENDBRANCH   6   7
ENDBRANCH   5   6
BRANCH   5  14
HETATM   14  N           1     -18.575 -10.745  -2.025  0.00  0.00    -0.067 N 
HETATM   15  H           1     -19.612 -10.872  -2.061  0.00  0.00     0.275 HD
HETATM   16  H           1     -18.266 -10.695  -1.027  0.00  0.00     0.275 HD
HETATM   17  H           1     -18.108 -11.554  -2.494  0.00  0.00     0.275 HD
ENDBRANCH   5  14
ENDBRANCH   3   5
BRANCH   1  18
HETATM   18  C           1     -20.949  -7.972  -3.995  0.00  0.00     0.189 C 
BRANCH  18  19
HETATM   19  C           1     -21.651  -7.194  -5.079  0.00  0.00     0.197 C 
HETATM   20  O           1     -21.326  -7.356  -6.275  0.00  0.00    -0.646 OA
HETATM   21  O           1     -22.558  -6.386  -4.782  0.00  0.00    -0.646 OA
ENDBRANCH  18  19
BRANCH  18  22
HETATM   22  C           1     -20.974  -7.173  -2.698  0.00  0.00     0.074 C 
BRANCH  22  23
HETATM   23  C           1     -21.761  -7.920  -1.667  0.00  0.00    -0.056 A 
HETATM   24  C           1     -21.924  -9.300  -1.776  0.00  0.00     0.007 A 
HETATM   25  C           1     -22.659  -9.995  -0.816  0.00  0.00     0.001 A 
HETATM   26  C           1     -23.229  -9.309   0.256  0.00  0.00     0.000 A 
HETATM   27  C           1     -23.067  -7.928   0.367  0.00  0.00     0.001 A 
HETATM   28  C           1     -22.332  -7.234  -0.595  0.00  0.00     0.007 A 
ENDBRANCH  22  23
ENDBRANCH  18  22
ENDBRANCH   1  18
TORSDOF 11
ENDMDL
