MODEL 1
REMARK VINA RESULT:      -7.0      0.000      0.000
REMARK  6 active torsions:
REMARK  status: ('A' for Active; 'I' for Inactive)
REMARK    1  A    between atoms: O_3  and  C_14 
REMARK    2  A    between atoms: C_5  and  C_18 
REMARK    3  A    between atoms: C_5  and  C_9 
REMARK    4  A    between atoms: C_5  and  N_22 
REMARK    5  A    between atoms: C_9  and  C_15 
REMARK       I    between atoms: C_18  and  N_19 
REMARK    6  A    between atoms: C_21  and  C_23 
ROOT
HETATM    1  C           1     -20.573  -5.371  -6.449  0.00  0.00     0.279 C 
ENDROOT
BRANCH   1   2
HETATM    2  C           1     -19.907  -6.716  -6.295  0.00  0.00     0.251 C 
HETATM    3  O           1     -19.034  -7.050  -7.061  0.00  0.00    -0.271 OA
HETATM    4  N           1     -20.294  -7.561  -5.289  0.00  0.00    -0.336 N 
HETATM    5  C           1     -19.471  -8.538  -4.582  0.00  0.00     0.127 C 
HETATM    6  C           1     -21.619  -7.679  -4.687  0.00  0.00     0.188 C 
HETATM    7  C           1     -20.386  -9.740  -4.428  0.00  0.00     0.022 C 
HETATM    8  C           1     -21.800  -9.176  -4.502  0.00  0.00     0.038 C 
BRANCH   6   9
HETATM    9  C           1     -21.672  -6.963  -3.359  0.00  0.00     0.196 C 
HETATM   10  O           1     -21.773  -7.618  -2.299  0.00  0.00    -0.646 OA
HETATM   11  O           1     -21.616  -5.715  -3.321  0.00  0.00    -0.646 OA
ENDBRANCH   6   9
ENDBRANCH   1   2
BRANCH   1  12
HETATM   12  C           1     -20.167  -4.752  -7.781  0.00  0.00     0.081 C 
BRANCH  12  13
HETATM   13  C           1     -21.393  -4.370  -8.548  0.00  0.00    -0.056 A 
HETATM   14  C           1     -22.633  -4.332  -7.909  0.00  0.00     0.010 A 
HETATM   15  C           1     -23.777  -3.976  -8.625  0.00  0.00     0.037 A 
HETATM   16  C           1     -23.680  -3.658  -9.980  0.00  0.00     0.065 A 
HETATM   17  C           1     -22.441  -3.698 -10.619  0.00  0.00     0.037 A 
HETATM   18  C           1     -21.297  -4.053  -9.903  0.00  0.00     0.010 A 
BRANCH  16  19
HETATM   19  O           1     -24.791  -3.313 -10.674  0.00  0.00    -0.361 OA
HETATM   20  H           1     -25.565  -3.533 -10.131  0.00  0.00     0.217 HD
ENDBRANCH  16  19
ENDBRANCH  12  13
ENDBRANCH   1  12
BRANCH   1  21
HETATM   21  N           1     -20.144  -4.471  -5.329  0.00  0.00    -0.066 N 
HETATM   22  H           1     -19.236  -4.810  -4.938  0.00  0.00     0.275 HD
HETATM   23  H           1     -20.871  -4.478  -4.578  0.00  0.00     0.275 HD
HETATM   24  H           1     -20.027  -3.497  -5.690  0.00  0.00     0.275 HD
ENDBRANCH   1  21
TORSDOF 6
ENDMDL
MODEL 2
REMARK VINA RESULT:      -6.7      1.784      2.781
REMARK  6 active torsions:
REMARK  status: ('A' for Active; 'I' for Inactive)
REMARK    1  A    between atoms: O_3  and  C_14 
REMARK    2  A    between atoms: C_5  and  C_18 
REMARK    3  A    between atoms: C_5  and  C_9 
REMARK    4  A    between atoms: C_5  and  N_22 
REMARK    5  A    between atoms: C_9  and  C_15 
REMARK       I    between atoms: C_18  and  N_19 
REMARK    6  A    between atoms: C_21  and  C_23 
ROOT
HETATM    1  C           1     -20.362  -6.267  -5.788  0.00  0.00     0.279 C 
ENDROOT
BRANCH   1   2
HETATM    2  C           1     -20.880  -6.614  -4.414  0.00  0.00     0.251 C 
HETATM    3  O           1     -21.538  -5.811  -3.796  0.00  0.00    -0.271 OA
HETATM    4  N           1     -20.603  -7.838  -3.866  0.00  0.00    -0.336 N 
HETATM    5  C           1     -21.428  -8.603  -2.936  0.00  0.00     0.127 C 
HETATM    6  C           1     -19.419  -8.664  -4.087  0.00  0.00     0.188 C 
HETATM    7  C           1     -20.425  -9.182  -1.952  0.00  0.00     0.022 C 
HETATM    8  C           1     -19.102  -9.217  -2.708  0.00  0.00     0.038 C 
BRANCH   6   9
HETATM    9  C           1     -19.715  -9.780  -5.058  0.00  0.00     0.196 C 
HETATM   10  O           1     -19.040 -10.832  -5.027  0.00  0.00    -0.646 OA
HETATM   11  O           1     -20.636  -9.652  -5.894  0.00  0.00    -0.646 OA
ENDBRANCH   6   9
ENDBRANCH   1   2
BRANCH   1  12
HETATM   12  C           1     -20.397  -4.756  -5.979  0.00  0.00     0.081 C 
BRANCH  12  13
HETATM   13  C           1     -20.881  -4.438  -7.358  0.00  0.00    -0.056 A 
HETATM   14  C           1     -22.216  -4.093  -7.567  0.00  0.00     0.010 A 
HETATM   15  C           1     -22.668  -3.797  -8.853  0.00  0.00     0.037 A 
HETATM   16  C           1     -21.783  -3.844  -9.931  0.00  0.00     0.065 A 
HETATM   17  C           1     -20.448  -4.190  -9.722  0.00  0.00     0.037 A 
HETATM   18  C           1     -19.996  -4.487  -8.436  0.00  0.00     0.010 A 
BRANCH  16  19
HETATM   19  O           1     -22.222  -3.557 -11.179  0.00  0.00    -0.361 OA
HETATM   20  H           1     -21.447  -3.475 -11.759  0.00  0.00     0.217 HD
ENDBRANCH  16  19
ENDBRANCH  12  13
ENDBRANCH   1  12
BRANCH   1  21
HETATM   21  N           1     -21.223  -6.921  -6.826  0.00  0.00    -0.066 N 
HETATM   22  H           1     -22.021  -7.409  -6.360  0.00  0.00     0.275 HD
HETATM   23  H           1     -20.656  -7.617  -7.363  0.00  0.00     0.275 HD
HETATM   24  H           1     -21.592  -6.195  -7.481  0.00  0.00     0.275 HD
ENDBRANCH   1  21
TORSDOF 6
ENDMDL
MODEL 3
REMARK VINA RESULT:      -6.7      2.786      6.697
REMARK  6 active torsions:
REMARK  status: ('A' for Active; 'I' for Inactive)
REMARK    1  A    between atoms: O_3  and  C_14 
REMARK    2  A    between atoms: C_5  and  C_18 
REMARK    3  A    between atoms: C_5  and  C_9 
REMARK    4  A    between atoms: C_5  and  N_22 
REMARK    5  A    between atoms: C_9  and  C_15 
REMARK       I    between atoms: C_18  and  N_19 
REMARK    6  A    between atoms: C_21  and  C_23 
ROOT
HETATM    1  C           1     -20.703  -8.777  -4.442  0.00  0.00     0.279 C 
ENDROOT
BRANCH   1   2
HETATM    2  C           1     -19.834  -8.091  -5.467  0.00  0.00     0.251 C 
HETATM    3  O           1     -18.857  -8.650  -5.904  0.00  0.00    -0.271 OA
HETATM    4  N           1     -20.153  -6.832  -5.902  0.00  0.00    -0.336 N 
HETATM    5  C           1     -19.893  -6.253  -7.217  0.00  0.00     0.127 C 
HETATM    6  C           1     -20.829  -5.776  -5.153  0.00  0.00     0.188 C 
HETATM    7  C           1     -19.468  -4.827  -6.909  0.00  0.00     0.022 C 
HETATM    8  C           1     -20.079  -4.516  -5.549  0.00  0.00     0.038 C 
BRANCH   6   9
HETATM    9  C           1     -22.283  -5.683  -5.547  0.00  0.00     0.196 C 
HETATM   10  O           1     -23.129  -6.419  -4.994  0.00  0.00    -0.646 OA
HETATM   11  O           1     -22.640  -4.870  -6.427  0.00  0.00    -0.646 OA
ENDBRANCH   6   9
ENDBRANCH   1   2
BRANCH   1  12
HETATM   12  C           1     -19.978  -8.813  -3.103  0.00  0.00     0.081 C 
BRANCH  12  13
HETATM   13  C           1     -20.950  -8.532  -2.001  0.00  0.00    -0.056 A 
HETATM   14  C           1     -21.296  -9.541  -1.102  0.00  0.00     0.010 A 
HETATM   15  C           1     -22.203  -9.281  -0.075  0.00  0.00     0.037 A 
HETATM   16  C           1     -22.765  -8.010   0.054  0.00  0.00     0.065 A 
HETATM   17  C           1     -22.419  -7.001  -0.845  0.00  0.00     0.037 A 
HETATM   18  C           1     -21.512  -7.262  -1.873  0.00  0.00     0.010 A 
BRANCH  16  19
HETATM   19  O           1     -23.645  -7.757   1.051  0.00  0.00    -0.361 OA
HETATM   20  H           1     -23.835  -8.595   1.505  0.00  0.00     0.217 HD
ENDBRANCH  16  19
ENDBRANCH  12  13
ENDBRANCH   1  12
BRANCH   1  21
HETATM   21  N           1     -20.992 -10.178  -4.890  0.00  0.00    -0.066 N 
HETATM   22  H           1     -20.250 -10.820  -4.529  0.00  0.00     0.275 HD
HETATM   23  H           1     -21.006 -10.215  -5.935  0.00  0.00     0.275 HD
HETATM   24  H           1     -21.922 -10.478  -4.520  0.00  0.00     0.275 HD
ENDBRANCH   1  21
TORSDOF 6
ENDMDL
MODEL 4
REMARK VINA RESULT:      -6.2      6.120      7.948
REMARK  6 active torsions:
REMARK  status: ('A' for Active; 'I' for Inactive)
REMARK    1  A    between atoms: O_3  and  C_14 
REMARK    2  A    between atoms: C_5  and  C_18 
REMARK    3  A    between atoms: C_5  and  C_9 
REMARK    4  A    between atoms: C_5  and  N_22 
REMARK    5  A    between atoms: C_9  and  C_15 
REMARK       I    between atoms: C_18  and  N_19 
REMARK    6  A    between atoms: C_21  and  C_23 
ROOT
HETATM    1  C           1     -20.097 -11.420  -0.868  0.00  0.00     0.279 C 
ENDROOT
BRANCH   1   2
HETATM    2  C           1     -18.617 -11.633  -0.669  0.00  0.00     0.251 C 
HETATM    3  O           1     -18.205 -12.075   0.377  0.00  0.00    -0.271 OA
HETATM    4  N           1     -17.740 -11.325  -1.674  0.00  0.00    -0.336 N 
HETATM    5  C           1     -16.461 -11.967  -1.967  0.00  0.00     0.127 C 
HETATM    6  C           1     -17.879 -10.284  -2.688  0.00  0.00     0.188 C 
HETATM    7  C           1     -15.548 -10.809  -2.332  0.00  0.00     0.022 C 
HETATM    8  C           1     -16.481  -9.700  -2.801  0.00  0.00     0.038 C 
BRANCH   6   9
HETATM    9  C           1     -18.324 -10.872  -4.005  0.00  0.00     0.196 C 
HETATM   10  O           1     -17.714 -10.582  -5.057  0.00  0.00    -0.646 OA
HETATM   11  O           1     -19.302 -11.649  -4.043  0.00  0.00    -0.646 OA
ENDBRANCH   6   9
ENDBRANCH   1   2
BRANCH   1  12
HETATM   12  C           1     -20.642 -10.552   0.260  0.00  0.00     0.081 C 
BRANCH  12  13
HETATM   13  C           1     -21.158  -9.266  -0.305  0.00  0.00    -0.056 A 
HETATM   14  C           1     -22.193  -8.587   0.338  0.00  0.00     0.010 A 
HETATM   15  C           1     -22.675  -7.388  -0.188  0.00  0.00     0.037 A 
HETATM   16  C           1     -22.120  -6.868  -1.358  0.00  0.00     0.065 A 
HETATM   17  C           1     -21.086  -7.547  -2.001  0.00  0.00     0.037 A 
HETATM   18  C           1     -20.604  -8.746  -1.475  0.00  0.00     0.010 A 
BRANCH  16  19
HETATM   19  O           1     -22.588  -5.704  -1.869  0.00  0.00    -0.361 OA
HETATM   20  H           1     -22.120  -5.532  -2.702  0.00  0.00     0.217 HD
ENDBRANCH  16  19
ENDBRANCH  12  13
ENDBRANCH   1  12
BRANCH   1  21
HETATM   21  N           1     -20.798 -12.745  -0.861  0.00  0.00    -0.066 N 
HETATM   22  H           1     -21.779 -12.619  -0.522  0.00  0.00     0.275 HD
HETATM   23  H           1     -20.294 -13.404  -0.226  0.00  0.00     0.275 HD
HETATM   24  H           1     -20.812 -13.137  -1.829  0.00  0.00     0.275 HD
ENDBRANCH   1  21
TORSDOF 6
ENDMDL
MODEL 5
REMARK VINA RESULT:      -6.2      4.304      8.319
REMARK  6 active torsions:
REMARK  status: ('A' for Active; 'I' for Inactive)
REMARK    1  A    between atoms: O_3  and  C_14 
REMARK    2  A    between atoms: C_5  and  C_18 
REMARK    3  A    between atoms: C_5  and  C_9 
REMARK    4  A    between atoms: C_5  and  N_22 
REMARK    5  A    between atoms: C_9  and  C_15 
REMARK       I    between atoms: C_18  and  N_19 
REMARK    6  A    between atoms: C_21  and  C_23 
ROOT
HETATM    1  C           1     -21.902  -8.883  -0.436  0.00  0.00     0.279 C 
ENDROOT
BRANCH   1   2
HETATM    2  C           1     -22.150  -7.593  -1.177  0.00  0.00     0.251 C 
HETATM    3  O           1     -22.834  -6.731  -0.678  0.00  0.00    -0.271 OA
HETATM    4  N           1     -21.602  -7.399  -2.417  0.00  0.00    -0.336 N 
HETATM    5  C           1     -21.183  -6.135  -3.016  0.00  0.00     0.127 C 
HETATM    6  C           1     -21.307  -8.411  -3.428  0.00  0.00     0.188 C 
HETATM    7  C           1     -21.631  -6.252  -4.463  0.00  0.00     0.022 C 
HETATM    8  C           1     -21.719  -7.749  -4.732  0.00  0.00     0.038 C 
BRANCH   6   9
HETATM    9  C           1     -19.837  -8.749  -3.437  0.00  0.00     0.196 C 
HETATM   10  O           1     -19.262  -9.071  -2.374  0.00  0.00    -0.646 OA
HETATM   11  O           1     -19.193  -8.706  -4.508  0.00  0.00    -0.646 OA
ENDBRANCH   6   9
ENDBRANCH   1   2
BRANCH   1  12
HETATM   12  C           1     -23.235  -9.527  -0.076  0.00  0.00     0.081 C 
BRANCH  12  13
HETATM   13  C           1     -23.275 -10.925  -0.607  0.00  0.00    -0.056 A 
HETATM   14  C           1     -23.640 -11.979   0.230  0.00  0.00     0.010 A 
HETATM   15  C           1     -23.677 -13.283  -0.265  0.00  0.00     0.037 A 
HETATM   16  C           1     -23.347 -13.533  -1.597  0.00  0.00     0.065 A 
HETATM   17  C           1     -22.980 -12.479  -2.434  0.00  0.00     0.037 A 
HETATM   18  C           1     -22.944 -11.175  -1.939  0.00  0.00     0.010 A 
BRANCH  16  19
HETATM   19  O           1     -23.382 -14.799  -2.078  0.00  0.00    -0.361 OA
HETATM   20  H           1     -22.507 -15.006  -2.443  0.00  0.00     0.217 HD
ENDBRANCH  16  19
ENDBRANCH  12  13
ENDBRANCH   1  12
BRANCH   1  21
HETATM   21  N           1     -21.130  -8.599   0.817  0.00  0.00    -0.066 N 
HETATM   22  H           1     -21.654  -8.971   1.641  0.00  0.00     0.275 HD
HETATM   23  H           1     -21.002  -7.567   0.922  0.00  0.00     0.275 HD
HETATM   24  H           1     -20.194  -9.061   0.762  0.00  0.00     0.275 HD
ENDBRANCH   1  21
TORSDOF 6
ENDMDL
MODEL 6
REMARK VINA RESULT:      -6.1      2.284      3.842
REMARK  6 active torsions:
REMARK  status: ('A' for Active; 'I' for Inactive)
REMARK    1  A    between atoms: O_3  and  C_14 
REMARK    2  A    between atoms: C_5  and  C_18 
REMARK    3  A    between atoms: C_5  and  C_9 
REMARK    4  A    between atoms: C_5  and  N_22 
REMARK    5  A    between atoms: C_9  and  C_15 
REMARK       I    between atoms: C_18  and  N_19 
REMARK    6  A    between atoms: C_21  and  C_23 
ROOT
HETATM    1  C           1     -20.283  -7.550  -5.222  0.00  0.00     0.279 C 
ENDROOT
BRANCH   1   2
HETATM    2  C           1     -20.057  -8.172  -3.866  0.00  0.00     0.251 C 
HETATM    3  O           1     -20.657  -7.757  -2.903  0.00  0.00    -0.271 OA
HETATM    4  N           1     -19.170  -9.205  -3.725  0.00  0.00    -0.336 N 
HETATM    5  C           1     -19.229 -10.304  -2.765  0.00  0.00     0.127 C 
HETATM    6  C           1     -17.959  -9.451  -4.504  0.00  0.00     0.188 C 
HETATM    7  C           1     -17.786 -10.481  -2.325  0.00  0.00     0.022 C 
HETATM    8  C           1     -16.950  -9.915  -3.467  0.00  0.00     0.038 C 
BRANCH   6   9
HETATM    9  C           1     -18.195 -10.522  -5.541  0.00  0.00     0.196 C 
HETATM   10  O           1     -17.381 -11.462  -5.664  0.00  0.00    -0.646 OA
HETATM   11  O           1     -19.204 -10.467  -6.276  0.00  0.00    -0.646 OA
ENDBRANCH   6   9
ENDBRANCH   1   2
BRANCH   1  12
HETATM   12  C           1     -20.805  -6.130  -5.050  0.00  0.00     0.081 C 
BRANCH  12  13
HETATM   13  C           1     -20.916  -5.473  -6.390  0.00  0.00    -0.056 A 
HETATM   14  C           1     -22.130  -4.920  -6.797  0.00  0.00     0.010 A 
HETATM   15  C           1     -22.234  -4.308  -8.046  0.00  0.00     0.037 A 
HETATM   16  C           1     -21.124  -4.249  -8.888  0.00  0.00     0.065 A 
HETATM   17  C           1     -19.910  -4.802  -8.482  0.00  0.00     0.037 A 
HETATM   18  C           1     -19.805  -5.414  -7.232  0.00  0.00     0.010 A 
BRANCH  16  19
HETATM   19  O           1     -21.225  -3.655 -10.102  0.00  0.00    -0.361 OA
HETATM   20  H           1     -21.971  -3.033 -10.071  0.00  0.00     0.217 HD
ENDBRANCH  16  19
ENDBRANCH  12  13
ENDBRANCH   1  12
BRANCH   1  21
HETATM   21  N           1     -21.287  -8.363  -5.982  0.00  0.00    -0.066 N 
HETATM   22  H           1     -22.252  -8.054  -5.724  0.00  0.00     0.275 HD
HETATM   23  H           1     -21.170  -9.374  -5.745  0.00  0.00     0.275 HD
HETATM   24  H           1     -21.141  -8.227  -7.008  0.00  0.00     0.275 HD
ENDBRANCH   1  21
TORSDOF 6
ENDMDL
MODEL 7
REMARK VINA RESULT:      -6.0      3.023      4.219
REMARK  6 active torsions:
REMARK  status: ('A' for Active; 'I' for Inactive)
REMARK    1  A    between atoms: O_3  and  C_14 
REMARK    2  A    between atoms: C_5  and  C_18 
REMARK    3  A    between atoms: C_5  and  C_9 
REMARK    4  A    between atoms: C_5  and  N_22 
REMARK    5  A    between atoms: C_9  and  C_15 
REMARK       I    between atoms: C_18  and  N_19 
REMARK    6  A    between atoms: C_21  and  C_23 
ROOT
HETATM    1  C           1     -21.236  -7.966  -3.340  0.00  0.00     0.279 C 
ENDROOT
BRANCH   1   2
HETATM    2  C           1     -20.697  -9.115  -2.524  0.00  0.00     0.251 C 
HETATM    3  O           1     -19.758  -9.757  -2.930  0.00  0.00    -0.271 OA
HETATM    4  N           1     -21.274  -9.431  -1.323  0.00  0.00    -0.336 N 
HETATM    5  C           1     -20.625 -10.009  -0.149  0.00  0.00     0.127 C 
HETATM    6  C           1     -22.671  -9.263  -0.935  0.00  0.00     0.188 C 
HETATM    7  C           1     -21.638 -11.015   0.369  0.00  0.00     0.022 C 
HETATM    8  C           1     -22.984 -10.527  -0.153  0.00  0.00     0.038 C 
BRANCH   6   9
HETATM    9  C           1     -22.846  -8.039  -0.070  0.00  0.00     0.196 C 
HETATM   10  O           1     -22.447  -6.925  -0.475  0.00  0.00    -0.646 OA
HETATM   11  O           1     -23.389  -8.140   1.051  0.00  0.00    -0.646 OA
ENDBRANCH   6   9
ENDBRANCH   1   2
BRANCH   1  12
HETATM   12  C           1     -20.697  -8.056  -4.762  0.00  0.00     0.081 C 
BRANCH  12  13
HETATM   13  C           1     -21.030  -6.799  -5.503  0.00  0.00    -0.056 A 
HETATM   14  C           1     -22.359  -6.400  -5.639  0.00  0.00     0.010 A 
HETATM   15  C           1     -22.670  -5.229  -6.330  0.00  0.00     0.037 A 
HETATM   16  C           1     -21.649  -4.456  -6.885  0.00  0.00     0.065 A 
HETATM   17  C           1     -20.320  -4.855  -6.750  0.00  0.00     0.037 A 
HETATM   18  C           1     -20.009  -6.027  -6.059  0.00  0.00     0.010 A 
BRANCH  16  19
HETATM   19  O           1     -21.950  -3.319  -7.556  0.00  0.00    -0.361 OA
HETATM   20  H           1     -22.357  -3.568  -8.402  0.00  0.00     0.217 HD
ENDBRANCH  16  19
ENDBRANCH  12  13
ENDBRANCH   1  12
BRANCH   1  21
HETATM   21  N           1     -20.804  -6.670  -2.724  0.00  0.00    -0.066 N 
HETATM   22  H           1     -19.772  -6.554  -2.843  0.00  0.00     0.275 HD
HETATM   23  H           1     -21.039  -6.672  -1.705  0.00  0.00     0.275 HD
HETATM   24  H           1     -21.300  -5.879  -3.193  0.00  0.00     0.275 HD
ENDBRANCH   1  21
TORSDOF 6
ENDMDL
MODEL 8
REMARK VINA RESULT:      -6.0      4.564      6.836
REMARK  6 active torsions:
REMARK  status: ('A' for Active; 'I' for Inactive)
REMARK    1  A    between atoms: O_3  and  C_14 
REMARK    2  A    between atoms: C_5  and  C_18 
REMARK    3  A    between atoms: C_5  and  C_9 
REMARK    4  A    between atoms: C_5  and  N_22 
REMARK    5  A    between atoms: C_9  and  C_15 
REMARK       I    between atoms: C_18  and  N_19 
REMARK    6  A    between atoms: C_21  and  C_23 
ROOT
HETATM    1  C           1     -22.439  -8.657  -0.325  0.00  0.00     0.279 C 
ENDROOT
BRANCH   1   2
HETATM    2  C           1     -21.605  -9.670   0.420  0.00  0.00     0.251 C 
HETATM    3  O           1     -20.950  -9.328   1.376  0.00  0.00    -0.271 OA
HETATM    4  N           1     -21.588 -10.977   0.010  0.00  0.00    -0.336 N 
HETATM    5  C           1     -21.408 -12.166   0.839  0.00  0.00     0.127 C 
HETATM    6  C           1     -21.749 -11.485  -1.349  0.00  0.00     0.188 C 
HETATM    7  C           1     -20.509 -13.059   0.002  0.00  0.00     0.022 C 
HETATM    8  C           1     -20.729 -12.608  -1.437  0.00  0.00     0.038 C 
BRANCH   6   9
HETATM    9  C           1     -23.146 -12.011  -1.565  0.00  0.00     0.196 C 
HETATM   10  O           1     -24.133 -11.295  -1.289  0.00  0.00    -0.646 OA
HETATM   11  O           1     -23.316 -13.164  -2.018  0.00  0.00    -0.646 OA
ENDBRANCH   6   9
ENDBRANCH   1   2
BRANCH   1  12
HETATM   12  C           1     -21.582  -7.445  -0.668  0.00  0.00     0.081 C 
BRANCH  12  13
HETATM   13  C           1     -21.332  -7.412  -2.142  0.00  0.00    -0.056 A 
HETATM   14  C           1     -21.960  -6.452  -2.935  0.00  0.00     0.010 A 
HETATM   15  C           1     -21.728  -6.420  -4.311  0.00  0.00     0.037 A 
HETATM   16  C           1     -20.865  -7.350  -4.893  0.00  0.00     0.065 A 
HETATM   17  C           1     -20.238  -8.310  -4.100  0.00  0.00     0.037 A 
HETATM   18  C           1     -20.470  -8.342  -2.725  0.00  0.00     0.010 A 
BRANCH  16  19
HETATM   19  O           1     -20.640  -7.320  -6.228  0.00  0.00    -0.361 OA
HETATM   20  H           1     -20.328  -8.199  -6.500  0.00  0.00     0.217 HD
ENDBRANCH  16  19
ENDBRANCH  12  13
ENDBRANCH   1  12
BRANCH   1  21
HETATM   21  N           1     -23.589  -8.227   0.536  0.00  0.00    -0.066 N 
HETATM   22  H           1     -23.378  -8.450   1.535  0.00  0.00     0.275 HD
HETATM   23  H           1     -24.454  -8.734   0.242  0.00  0.00     0.275 HD
HETATM   24  H           1     -23.737  -7.198   0.432  0.00  0.00     0.275 HD
ENDBRANCH   1  21
TORSDOF 6
ENDMDL
MODEL 9
REMARK VINA RESULT:      -5.9      5.179      7.371
REMARK  6 active torsions:
REMARK  status: ('A' for Active; 'I' for Inactive)
REMARK    1  A    between atoms: O_3  and  C_14 
REMARK    2  A    between atoms: C_5  and  C_18 
REMARK    3  A    between atoms: C_5  and  C_9 
REMARK    4  A    between atoms: C_5  and  N_22 
REMARK    5  A    between atoms: C_9  and  C_15 
REMARK       I    between atoms: C_18  and  N_19 
REMARK    6  A    between atoms: C_21  and  C_23 
ROOT
HETATM    1  C           1     -20.642  -9.150  -3.349  0.00  0.00     0.279 C 
ENDROOT
BRANCH   1   2
HETATM    2  C           1     -21.075  -8.100  -2.356  0.00  0.00     0.251 C 
HETATM    3  O           1     -20.988  -6.929  -2.640  0.00  0.00    -0.271 OA
HETATM    4  N           1     -21.564  -8.474  -1.133  0.00  0.00    -0.336 N 
HETATM    5  C           1     -22.554  -7.774  -0.320  0.00  0.00     0.127 C 
HETATM    6  C           1     -21.211  -9.660  -0.359  0.00  0.00     0.188 C 
HETATM    7  C           1     -22.023  -7.912   1.097  0.00  0.00     0.022 C 
HETATM    8  C           1     -21.135  -9.149   1.070  0.00  0.00     0.038 C 
BRANCH   6   9
HETATM    9  C           1     -22.271 -10.725  -0.493  0.00  0.00     0.196 C 
HETATM   10  O           1     -23.024 -10.735  -1.491  0.00  0.00    -0.646 OA
HETATM   11  O           1     -22.396 -11.597   0.394  0.00  0.00    -0.646 OA
ENDBRANCH   6   9
ENDBRANCH   1   2
BRANCH   1  12
HETATM   12  C           1     -19.792  -8.505  -4.435  0.00  0.00     0.081 C 
BRANCH  12  13
HETATM   13  C           1     -18.482  -9.221  -4.537  0.00  0.00    -0.056 A 
HETATM   14  C           1     -18.019  -9.657  -5.778  0.00  0.00     0.010 A 
HETATM   15  C           1     -16.799 -10.325  -5.873  0.00  0.00     0.037 A 
HETATM   16  C           1     -16.040 -10.557  -4.725  0.00  0.00     0.065 A 
HETATM   17  C           1     -16.503 -10.122  -3.484  0.00  0.00     0.037 A 
HETATM   18  C           1     -17.724  -9.453  -3.389  0.00  0.00     0.010 A 
BRANCH  16  19
HETATM   19  O           1     -14.854 -11.206  -4.817  0.00  0.00    -0.361 OA
HETATM   20  H           1     -14.193 -10.696  -4.321  0.00  0.00     0.217 HD
ENDBRANCH  16  19
ENDBRANCH  12  13
ENDBRANCH   1  12
BRANCH   1  21
HETATM   21  N           1     -21.853  -9.779  -3.971  0.00  0.00    -0.066 N 
HETATM   22  H           1     -22.678  -9.642  -3.344  0.00  0.00     0.275 HD
HETATM   23  H           1     -21.685 -10.802  -4.106  0.00  0.00     0.275 HD
HETATM   24  H           1     -22.041  -9.332  -4.897  0.00  0.00     0.275 HD
ENDBRANCH   1  21
TORSDOF 6
ENDMDL
