MODEL 1
REMARK VINA RESULT:      -6.3      0.000      0.000
REMARK  13 active torsions:
REMARK  status: ('A' for Active; 'I' for Inactive)
REMARK    1  A    between atoms: C_1  and  N_23 
REMARK    2  A    between atoms: C_1  and  C_28 
REMARK    3  A    between atoms: C_2  and  C_20 
REMARK    4  A    between atoms: C_2  and  C_3 
REMARK    5  A    between atoms: C_3  and  C_26 
REMARK    6  A    between atoms: C_3  and  N_12 
REMARK    7  A    between atoms: C_6  and  C_15 
REMARK    8  A    between atoms: C_6  and  C_22 
REMARK    9  A    between atoms: C_6  and  N_17 
REMARK       I    between atoms: N_12  and  C_15 
REMARK   10  A    between atoms: C_13  and  C_24 
REMARK   11  A    between atoms: C_13  and  N_16 
REMARK   12  A    between atoms: C_20  and  C_28 
REMARK   13  A    between atoms: C_22  and  C_24 
ROOT
HETATM    1  H           1     -27.394  -7.002 -18.621  0.00  0.00     0.163 HD
HETATM    2  N           1     -26.512  -6.658 -18.262  0.00  0.00    -0.345 N 
HETATM    3  C           1     -25.356  -6.878 -18.961  0.00  0.00     0.249 C 
HETATM    4  O           1     -24.304  -6.468 -18.533  0.00  0.00    -0.271 OA
ENDROOT
BRANCH   2   5
HETATM    5  C           1     -26.474  -5.931 -17.008  0.00  0.00     0.185 C 
BRANCH   5   6
HETATM    6  C           1     -27.728  -5.077 -16.878  0.00  0.00     0.036 C 
BRANCH   6   7
HETATM    7  C           1     -28.635  -5.322 -18.077  0.00  0.00     0.004 C 
BRANCH   7   8
HETATM    8  C           1     -29.946  -5.939 -17.604  0.00  0.00     0.027 C 
BRANCH   8   9
HETATM    9  C           1     -30.111  -7.320 -18.225  0.00  0.00     0.229 C 
BRANCH   9  10
HETATM   10  N           1     -29.428  -8.341 -17.364  0.00  0.00    -0.079 N 
HETATM   11  H           1     -28.397  -8.305 -17.531  0.00  0.00     0.274 HD
HETATM   12  H           1     -29.624  -8.136 -16.359  0.00  0.00     0.274 HD
HETATM   13  H           1     -29.786  -9.294 -17.602  0.00  0.00     0.274 HD
ENDBRANCH   9  10
ENDBRANCH   8   9
ENDBRANCH   7   8
ENDBRANCH   6   7
ENDBRANCH   5   6
BRANCH   5  14
HETATM   14  C           1     -26.410  -6.911 -15.862  0.00  0.00     0.196 C 
HETATM   15  O           1     -25.303  -7.269 -15.405  0.00  0.00    -0.646 OA
HETATM   16  O           1     -27.466  -7.365 -15.369  0.00  0.00    -0.646 OA
ENDBRANCH   5  14
ENDBRANCH   2   5
BRANCH   3  17
HETATM   17  C           1     -25.396  -7.635 -20.266  0.00  0.00     0.274 C 
BRANCH  17  18
HETATM   18  C           1     -24.589  -6.881 -21.316  0.00  0.00     0.044 C 
BRANCH  18  19
HETATM   19  C           1     -24.233  -7.824 -22.457  0.00  0.00     0.030 C 
BRANCH  19  20
HETATM   20  C           1     -22.778  -8.253 -22.326  0.00  0.00     0.230 C 
BRANCH  20  21
HETATM   21  N           1     -22.649  -9.259 -21.221  0.00  0.00    -0.079 N 
HETATM   22  H           1     -21.648  -9.542 -21.123  0.00  0.00     0.274 HD
HETATM   23  H           1     -23.229 -10.099 -21.445  0.00  0.00     0.274 HD
HETATM   24  H           1     -22.979  -8.837 -20.324  0.00  0.00     0.274 HD
ENDBRANCH  20  21
ENDBRANCH  19  20
ENDBRANCH  18  19
ENDBRANCH  17  18
BRANCH  17  25
HETATM   25  N           1     -26.817  -7.763 -20.726  0.00  0.00    -0.067 N 
HETATM   26  H           1     -26.855  -8.357 -21.585  0.00  0.00     0.275 HD
HETATM   27  H           1     -27.388  -8.206 -19.971  0.00  0.00     0.275 HD
HETATM   28  H           1     -27.200  -6.814 -20.942  0.00  0.00     0.275 HD
ENDBRANCH  17  25
ENDBRANCH   3  17
TORSDOF 13
ENDMDL
MODEL 2
REMARK VINA RESULT:      -6.2     10.687     12.603
REMARK  13 active torsions:
REMARK  status: ('A' for Active; 'I' for Inactive)
REMARK    1  A    between atoms: C_1  and  N_23 
REMARK    2  A    between atoms: C_1  and  C_28 
REMARK    3  A    between atoms: C_2  and  C_20 
REMARK    4  A    between atoms: C_2  and  C_3 
REMARK    5  A    between atoms: C_3  and  C_26 
REMARK    6  A    between atoms: C_3  and  N_12 
REMARK    7  A    between atoms: C_6  and  C_15 
REMARK    8  A    between atoms: C_6  and  C_22 
REMARK    9  A    between atoms: C_6  and  N_17 
REMARK       I    between atoms: N_12  and  C_15 
REMARK   10  A    between atoms: C_13  and  C_24 
REMARK   11  A    between atoms: C_13  and  N_16 
REMARK   12  A    between atoms: C_20  and  C_28 
REMARK   13  A    between atoms: C_22  and  C_24 
ROOT
HETATM    1  H           1     -35.819  -3.144 -12.513  0.00  0.00     0.163 HD
HETATM    2  N           1     -35.128  -2.580 -12.036  0.00  0.00    -0.345 N 
HETATM    3  C           1     -33.961  -3.150 -11.600  0.00  0.00     0.249 C 
HETATM    4  O           1     -33.136  -2.477 -11.031  0.00  0.00    -0.271 OA
ENDROOT
BRANCH   2   5
HETATM    5  C           1     -35.372  -1.168 -11.814  0.00  0.00     0.185 C 
BRANCH   5   6
HETATM    6  C           1     -35.849  -0.526 -13.109  0.00  0.00     0.036 C 
BRANCH   6   7
HETATM    7  C           1     -34.936   0.639 -13.465  0.00  0.00     0.004 C 
BRANCH   7   8
HETATM    8  C           1     -35.183   1.055 -14.910  0.00  0.00     0.027 C 
BRANCH   8   9
HETATM    9  C           1     -36.407   0.323 -15.447  0.00  0.00     0.229 C 
BRANCH   9  10
HETATM   10  N           1     -37.433   1.324 -15.891  0.00  0.00    -0.079 N 
HETATM   11  H           1     -37.648   1.178 -16.903  0.00  0.00     0.274 HD
HETATM   12  H           1     -38.305   1.200 -15.328  0.00  0.00     0.274 HD
HETATM   13  H           1     -37.061   2.290 -15.750  0.00  0.00     0.274 HD
ENDBRANCH   9  10
ENDBRANCH   8   9
ENDBRANCH   7   8
ENDBRANCH   6   7
ENDBRANCH   5   6
BRANCH   5  14
HETATM   14  C           1     -36.428  -1.003 -10.749  0.00  0.00     0.196 C 
HETATM   15  O           1     -36.108  -0.622  -9.602  0.00  0.00    -0.646 OA
HETATM   16  O           1     -37.626  -1.248 -11.014  0.00  0.00    -0.646 OA
ENDBRANCH   5  14
ENDBRANCH   2   5
BRANCH   3  17
HETATM   17  C           1     -33.707  -4.619 -11.832  0.00  0.00     0.274 C 
BRANCH  17  18
HETATM   18  C           1     -34.040  -5.399 -10.566  0.00  0.00     0.044 C 
BRANCH  18  19
HETATM   19  C           1     -34.694  -6.722 -10.941  0.00  0.00     0.030 C 
BRANCH  19  20
HETATM   20  C           1     -34.516  -7.717  -9.803  0.00  0.00     0.230 C 
BRANCH  20  21
HETATM   21  N           1     -33.581  -8.809 -10.233  0.00  0.00    -0.079 N 
HETATM   22  H           1     -33.040  -8.493 -11.070  0.00  0.00     0.274 HD
HETATM   23  H           1     -34.132  -9.663 -10.476  0.00  0.00     0.274 HD
HETATM   24  H           1     -32.920  -9.029  -9.455  0.00  0.00     0.274 HD
ENDBRANCH  20  21
ENDBRANCH  19  20
ENDBRANCH  18  19
ENDBRANCH  17  18
BRANCH  17  25
HETATM   25  N           1     -32.264  -4.828 -12.182  0.00  0.00    -0.067 N 
HETATM   26  H           1     -31.903  -3.991 -12.693  0.00  0.00     0.275 HD
HETATM   27  H           1     -31.711  -4.966 -11.306  0.00  0.00     0.275 HD
HETATM   28  H           1     -32.172  -5.674 -12.789  0.00  0.00     0.275 HD
ENDBRANCH  17  25
ENDBRANCH   3  17
TORSDOF 13
ENDMDL
MODEL 3
REMARK VINA RESULT:      -5.9      6.804      9.272
REMARK  13 active torsions:
REMARK  status: ('A' for Active; 'I' for Inactive)
REMARK    1  A    between atoms: C_1  and  N_23 
REMARK    2  A    between atoms: C_1  and  C_28 
REMARK    3  A    between atoms: C_2  and  C_20 
REMARK    4  A    between atoms: C_2  and  C_3 
REMARK    5  A    between atoms: C_3  and  C_26 
REMARK    6  A    between atoms: C_3  and  N_12 
REMARK    7  A    between atoms: C_6  and  C_15 
REMARK    8  A    between atoms: C_6  and  C_22 
REMARK    9  A    between atoms: C_6  and  N_17 
REMARK       I    between atoms: N_12  and  C_15 
REMARK   10  A    between atoms: C_13  and  C_24 
REMARK   11  A    between atoms: C_13  and  N_16 
REMARK   12  A    between atoms: C_20  and  C_28 
REMARK   13  A    between atoms: C_22  and  C_24 
ROOT
HETATM    1  H           1     -32.315  -3.670 -14.187  0.00  0.00     0.163 HD
HETATM    2  N           1     -33.266  -4.016 -14.189  0.00  0.00    -0.345 N 
HETATM    3  C           1     -33.819  -4.494 -15.348  0.00  0.00     0.249 C 
HETATM    4  O           1     -34.954  -4.906 -15.350  0.00  0.00    -0.271 OA
ENDROOT
BRANCH   2   5
HETATM    5  C           1     -34.044  -4.007 -12.966  0.00  0.00     0.185 C 
BRANCH   5   6
HETATM    6  C           1     -33.140  -4.341 -11.787  0.00  0.00     0.036 C 
BRANCH   6   7
HETATM    7  C           1     -33.452  -5.746 -11.290  0.00  0.00     0.004 C 
BRANCH   7   8
HETATM    8  C           1     -34.573  -5.682 -10.260  0.00  0.00     0.027 C 
BRANCH   8   9
HETATM    9  C           1     -34.886  -7.087  -9.762  0.00  0.00     0.229 C 
BRANCH   9  10
HETATM   10  N           1     -34.775  -8.058 -10.900  0.00  0.00    -0.079 N 
HETATM   11  H           1     -35.647  -8.022 -11.475  0.00  0.00     0.274 HD
HETATM   12  H           1     -33.955  -7.804 -11.495  0.00  0.00     0.274 HD
HETATM   13  H           1     -34.647  -9.024 -10.523  0.00  0.00     0.274 HD
ENDBRANCH   9  10
ENDBRANCH   8   9
ENDBRANCH   7   8
ENDBRANCH   6   7
ENDBRANCH   5   6
BRANCH   5  14
HETATM   14  C           1     -34.648  -2.638 -12.766  0.00  0.00     0.196 C 
HETATM   15  O           1     -34.997  -1.957 -13.754  0.00  0.00    -0.646 OA
HETATM   16  O           1     -34.800  -2.185 -11.610  0.00  0.00    -0.646 OA
ENDBRANCH   5  14
ENDBRANCH   2   5
BRANCH   3  17
HETATM   17  C           1     -33.009  -4.504 -16.621  0.00  0.00     0.274 C 
BRANCH  17  18
HETATM   18  C           1     -31.531  -4.648 -16.283  0.00  0.00     0.044 C 
BRANCH  18  19
HETATM   19  C           1     -30.731  -4.829 -17.566  0.00  0.00     0.030 C 
BRANCH  19  20
HETATM   20  C           1     -29.457  -3.999 -17.492  0.00  0.00     0.230 C 
BRANCH  20  21
HETATM   21  N           1     -29.803  -2.541 -17.558  0.00  0.00    -0.079 N 
HETATM   22  H           1     -30.503  -2.316 -16.815  0.00  0.00     0.274 HD
HETATM   23  H           1     -30.207  -2.322 -18.497  0.00  0.00     0.274 HD
HETATM   24  H           1     -28.942  -1.971 -17.408  0.00  0.00     0.274 HD
ENDBRANCH  20  21
ENDBRANCH  19  20
ENDBRANCH  18  19
ENDBRANCH  17  18
BRANCH  17  25
HETATM   25  N           1     -33.227  -3.218 -17.362  0.00  0.00    -0.067 N 
HETATM   26  H           1     -32.773  -3.275 -18.302  0.00  0.00     0.275 HD
HETATM   27  H           1     -34.253  -3.055 -17.481  0.00  0.00     0.275 HD
HETATM   28  H           1     -32.809  -2.428 -16.820  0.00  0.00     0.275 HD
ENDBRANCH  17  25
ENDBRANCH   3  17
TORSDOF 13
ENDMDL
MODEL 4
REMARK VINA RESULT:      -5.9     10.957     13.211
REMARK  13 active torsions:
REMARK  status: ('A' for Active; 'I' for Inactive)
REMARK    1  A    between atoms: C_1  and  N_23 
REMARK    2  A    between atoms: C_1  and  C_28 
REMARK    3  A    between atoms: C_2  and  C_20 
REMARK    4  A    between atoms: C_2  and  C_3 
REMARK    5  A    between atoms: C_3  and  C_26 
REMARK    6  A    between atoms: C_3  and  N_12 
REMARK    7  A    between atoms: C_6  and  C_15 
REMARK    8  A    between atoms: C_6  and  C_22 
REMARK    9  A    between atoms: C_6  and  N_17 
REMARK       I    between atoms: N_12  and  C_15 
REMARK   10  A    between atoms: C_13  and  C_24 
REMARK   11  A    between atoms: C_13  and  N_16 
REMARK   12  A    between atoms: C_20  and  C_28 
REMARK   13  A    between atoms: C_22  and  C_24 
ROOT
HETATM    1  H           1     -34.537  -0.276 -11.814  0.00  0.00     0.163 HD
HETATM    2  N           1     -34.941  -0.971 -12.428  0.00  0.00    -0.345 N 
HETATM    3  C           1     -34.469  -2.255 -12.414  0.00  0.00     0.249 C 
HETATM    4  O           1     -34.952  -3.085 -13.147  0.00  0.00    -0.271 OA
ENDROOT
BRANCH   2   5
HETATM    5  C           1     -36.022  -0.606 -13.323  0.00  0.00     0.185 C 
BRANCH   5   6
HETATM    6  C           1     -37.227  -0.158 -12.507  0.00  0.00     0.036 C 
BRANCH   6   7
HETATM    7  C           1     -36.770   0.269 -11.118  0.00  0.00     0.004 C 
BRANCH   7   8
HETATM    8  C           1     -37.564  -0.494 -10.065  0.00  0.00     0.027 C 
BRANCH   8   9
HETATM    9  C           1     -37.414   0.196  -8.716  0.00  0.00     0.229 C 
BRANCH   9  10
HETATM   10  N           1     -36.493   1.372  -8.855  0.00  0.00    -0.079 N 
HETATM   11  H           1     -36.468   1.905  -7.956  0.00  0.00     0.274 HD
HETATM   12  H           1     -35.531   1.035  -9.085  0.00  0.00     0.274 HD
HETATM   13  H           1     -36.836   1.996  -9.620  0.00  0.00     0.274 HD
ENDBRANCH   9  10
ENDBRANCH   8   9
ENDBRANCH   7   8
ENDBRANCH   6   7
ENDBRANCH   5   6
BRANCH   5  14
HETATM   14  C           1     -35.573   0.522 -14.219  0.00  0.00     0.196 C 
HETATM   15  O           1     -34.648   1.280 -13.856  0.00  0.00    -0.646 OA
HETATM   16  O           1     -36.127   0.699 -15.326  0.00  0.00    -0.646 OA
ENDBRANCH   5  14
ENDBRANCH   2   5
BRANCH   3  17
HETATM   17  C           1     -33.344  -2.635 -11.483  0.00  0.00     0.274 C 
BRANCH  17  18
HETATM   18  C           1     -33.112  -4.139 -11.551  0.00  0.00     0.044 C 
BRANCH  18  19
HETATM   19  C           1     -33.914  -4.827 -10.454  0.00  0.00     0.030 C 
BRANCH  19  20
HETATM   20  C           1     -34.499  -6.126 -10.990  0.00  0.00     0.230 C 
BRANCH  20  21
HETATM   21  N           1     -34.787  -5.979 -12.455  0.00  0.00    -0.079 N 
HETATM   22  H           1     -34.850  -4.964 -12.697  0.00  0.00     0.274 HD
HETATM   23  H           1     -35.693  -6.448 -12.681  0.00  0.00     0.274 HD
HETATM   24  H           1     -34.019  -6.420 -13.008  0.00  0.00     0.274 HD
ENDBRANCH  20  21
ENDBRANCH  19  20
ENDBRANCH  18  19
ENDBRANCH  17  18
BRANCH  17  25
HETATM   25  N           1     -33.705  -2.249 -10.079  0.00  0.00    -0.067 N 
HETATM   26  H           1     -34.113  -3.073  -9.584  0.00  0.00     0.275 HD
HETATM   27  H           1     -32.847  -1.930  -9.575  0.00  0.00     0.275 HD
HETATM   28  H           1     -34.405  -1.473 -10.101  0.00  0.00     0.275 HD
ENDBRANCH  17  25
ENDBRANCH   3  17
TORSDOF 13
ENDMDL
MODEL 5
REMARK VINA RESULT:      -5.7     10.336     12.542
REMARK  13 active torsions:
REMARK  status: ('A' for Active; 'I' for Inactive)
REMARK    1  A    between atoms: C_1  and  N_23 
REMARK    2  A    between atoms: C_1  and  C_28 
REMARK    3  A    between atoms: C_2  and  C_20 
REMARK    4  A    between atoms: C_2  and  C_3 
REMARK    5  A    between atoms: C_3  and  C_26 
REMARK    6  A    between atoms: C_3  and  N_12 
REMARK    7  A    between atoms: C_6  and  C_15 
REMARK    8  A    between atoms: C_6  and  C_22 
REMARK    9  A    between atoms: C_6  and  N_17 
REMARK       I    between atoms: N_12  and  C_15 
REMARK   10  A    between atoms: C_13  and  C_24 
REMARK   11  A    between atoms: C_13  and  N_16 
REMARK   12  A    between atoms: C_20  and  C_28 
REMARK   13  A    between atoms: C_22  and  C_24 
ROOT
HETATM    1  H           1     -35.957  -3.127 -12.322  0.00  0.00     0.163 HD
HETATM    2  N           1     -35.151  -2.924 -11.745  0.00  0.00    -0.345 N 
HETATM    3  C           1     -34.926  -1.646 -11.308  0.00  0.00     0.249 C 
HETATM    4  O           1     -33.964  -1.404 -10.619  0.00  0.00    -0.271 OA
ENDROOT
BRANCH   2   5
HETATM    5  C           1     -34.234  -3.987 -11.381  0.00  0.00     0.185 C 
BRANCH   5   6
HETATM    6  C           1     -35.008  -5.286 -11.205  0.00  0.00     0.036 C 
BRANCH   6   7
HETATM    7  C           1     -34.147  -6.292 -10.452  0.00  0.00     0.004 C 
BRANCH   7   8
HETATM    8  C           1     -34.955  -7.557 -10.191  0.00  0.00     0.027 C 
BRANCH   8   9
HETATM    9  C           1     -34.086  -8.575  -9.464  0.00  0.00     0.229 C 
BRANCH   9  10
HETATM   10  N           1     -33.411  -9.463 -10.466  0.00  0.00    -0.079 N 
HETATM   11  H           1     -32.709 -10.067  -9.981  0.00  0.00     0.274 HD
HETATM   12  H           1     -34.126 -10.068 -10.932  0.00  0.00     0.274 HD
HETATM   13  H           1     -32.929  -8.876 -11.184  0.00  0.00     0.274 HD
ENDBRANCH   9  10
ENDBRANCH   8   9
ENDBRANCH   7   8
ENDBRANCH   6   7
ENDBRANCH   5   6
BRANCH   5  14
HETATM   14  C           1     -33.204  -4.156 -12.471  0.00  0.00     0.196 C 
HETATM   15  O           1     -33.519  -3.966 -13.665  0.00  0.00    -0.646 OA
HETATM   16  O           1     -32.034  -4.487 -12.178  0.00  0.00    -0.646 OA
ENDBRANCH   5  14
ENDBRANCH   2   5
BRANCH   3  17
HETATM   17  C           1     -35.881  -0.541 -11.687  0.00  0.00     0.274 C 
BRANCH  17  18
HETATM   18  C           1     -35.236   0.349 -12.742  0.00  0.00     0.044 C 
BRANCH  18  19
HETATM   19  C           1     -36.005   0.225 -14.051  0.00  0.00     0.030 C 
BRANCH  19  20
HETATM   20  C           1     -35.425   1.192 -15.074  0.00  0.00     0.230 C 
BRANCH  20  21
HETATM   21  N           1     -36.497   1.601 -16.041  0.00  0.00    -0.079 N 
HETATM   22  H           1     -37.302   2.010 -15.514  0.00  0.00     0.274 HD
HETATM   23  H           1     -36.819   0.765 -16.577  0.00  0.00     0.274 HD
HETATM   24  H           1     -36.117   2.315 -16.702  0.00  0.00     0.274 HD
ENDBRANCH  20  21
ENDBRANCH  19  20
ENDBRANCH  18  19
ENDBRANCH  17  18
BRANCH  17  25
HETATM   25  N           1     -36.204   0.279 -10.474  0.00  0.00    -0.067 N 
HETATM   26  H           1     -35.392   0.265  -9.816  0.00  0.00     0.275 HD
HETATM   27  H           1     -36.402   1.263 -10.762  0.00  0.00     0.275 HD
HETATM   28  H           1     -37.045  -0.120  -9.998  0.00  0.00     0.275 HD
ENDBRANCH  17  25
ENDBRANCH   3  17
TORSDOF 13
ENDMDL
MODEL 6
REMARK VINA RESULT:      -5.6     10.836     12.663
REMARK  13 active torsions:
REMARK  status: ('A' for Active; 'I' for Inactive)
REMARK    1  A    between atoms: C_1  and  N_23 
REMARK    2  A    between atoms: C_1  and  C_28 
REMARK    3  A    between atoms: C_2  and  C_20 
REMARK    4  A    between atoms: C_2  and  C_3 
REMARK    5  A    between atoms: C_3  and  C_26 
REMARK    6  A    between atoms: C_3  and  N_12 
REMARK    7  A    between atoms: C_6  and  C_15 
REMARK    8  A    between atoms: C_6  and  C_22 
REMARK    9  A    between atoms: C_6  and  N_17 
REMARK       I    between atoms: N_12  and  C_15 
REMARK   10  A    between atoms: C_13  and  C_24 
REMARK   11  A    between atoms: C_13  and  N_16 
REMARK   12  A    between atoms: C_20  and  C_28 
REMARK   13  A    between atoms: C_22  and  C_24 
ROOT
HETATM    1  H           1     -36.007  -0.116 -13.019  0.00  0.00     0.163 HD
HETATM    2  N           1     -35.623  -1.052 -13.017  0.00  0.00    -0.345 N 
HETATM    3  C           1     -35.239  -1.637 -14.194  0.00  0.00     0.249 C 
HETATM    4  O           1     -34.779  -2.754 -14.191  0.00  0.00    -0.271 OA
ENDROOT
BRANCH   2   5
HETATM    5  C           1     -35.478  -1.773 -11.768  0.00  0.00     0.185 C 
BRANCH   5   6
HETATM    6  C           1     -34.049  -1.627 -11.260  0.00  0.00     0.036 C 
BRANCH   6   7
HETATM    7  C           1     -33.635  -2.899 -10.533  0.00  0.00     0.004 C 
BRANCH   7   8
HETATM    8  C           1     -33.032  -3.880 -11.531  0.00  0.00     0.027 C 
BRANCH   8   9
HETATM    9  C           1     -33.767  -5.212 -11.443  0.00  0.00     0.229 C 
BRANCH   9  10
HETATM   10  N           1     -34.657  -5.372 -12.639  0.00  0.00    -0.079 N 
HETATM   11  H           1     -34.211  -4.919 -13.469  0.00  0.00     0.274 HD
HETATM   12  H           1     -34.799  -6.389 -12.833  0.00  0.00     0.274 HD
HETATM   13  H           1     -35.580  -4.921 -12.451  0.00  0.00     0.274 HD
ENDBRANCH   9  10
ENDBRANCH   8   9
ENDBRANCH   7   8
ENDBRANCH   6   7
ENDBRANCH   5   6
BRANCH   5  14
HETATM   14  C           1     -36.436  -1.209 -10.748  0.00  0.00     0.196 C 
HETATM   15  O           1     -37.668  -1.259 -10.951  0.00  0.00    -0.646 OA
HETATM   16  O           1     -35.996  -0.691  -9.698  0.00  0.00    -0.646 OA
ENDBRANCH   5  14
ENDBRANCH   2   5
BRANCH   3  17
HETATM   17  C           1     -35.389  -0.886 -15.494  0.00  0.00     0.274 C 
BRANCH  17  18
HETATM   18  C           1     -36.869  -0.689 -15.799  0.00  0.00     0.044 C 
BRANCH  18  19
HETATM   19  C           1     -37.242   0.772 -15.587  0.00  0.00     0.030 C 
BRANCH  19  20
HETATM   20  C           1     -35.994   1.636 -15.696  0.00  0.00     0.230 C 
BRANCH  20  21
HETATM   21  N           1     -36.296   2.850 -16.524  0.00  0.00    -0.079 N 
HETATM   22  H           1     -37.325   3.038 -16.504  0.00  0.00     0.274 HD
HETATM   23  H           1     -35.991   2.685 -17.510  0.00  0.00     0.274 HD
HETATM   24  H           1     -35.786   3.674 -16.135  0.00  0.00     0.274 HD
ENDBRANCH  20  21
ENDBRANCH  19  20
ENDBRANCH  18  19
ENDBRANCH  17  18
BRANCH  17  25
HETATM   25  N           1     -34.751  -1.670 -16.601  0.00  0.00    -0.067 N 
HETATM   26  H           1     -34.515  -1.029 -17.392  0.00  0.00     0.275 HD
HETATM   27  H           1     -33.879  -2.124 -16.248  0.00  0.00     0.275 HD
HETATM   28  H           1     -35.415  -2.405 -16.935  0.00  0.00     0.275 HD
ENDBRANCH  17  25
ENDBRANCH   3  17
TORSDOF 13
ENDMDL
MODEL 7
REMARK VINA RESULT:      -5.5     12.330     14.619
REMARK  13 active torsions:
REMARK  status: ('A' for Active; 'I' for Inactive)
REMARK    1  A    between atoms: C_1  and  N_23 
REMARK    2  A    between atoms: C_1  and  C_28 
REMARK    3  A    between atoms: C_2  and  C_20 
REMARK    4  A    between atoms: C_2  and  C_3 
REMARK    5  A    between atoms: C_3  and  C_26 
REMARK    6  A    between atoms: C_3  and  N_12 
REMARK    7  A    between atoms: C_6  and  C_15 
REMARK    8  A    between atoms: C_6  and  C_22 
REMARK    9  A    between atoms: C_6  and  N_17 
REMARK       I    between atoms: N_12  and  C_15 
REMARK   10  A    between atoms: C_13  and  C_24 
REMARK   11  A    between atoms: C_13  and  N_16 
REMARK   12  A    between atoms: C_20  and  C_28 
REMARK   13  A    between atoms: C_22  and  C_24 
ROOT
HETATM    1  H           1     -22.451  -5.567  -6.019  0.00  0.00     0.163 HD
HETATM    2  N           1     -21.470  -5.518  -5.779  0.00  0.00    -0.345 N 
HETATM    3  C           1     -20.637  -4.681  -6.471  0.00  0.00     0.249 C 
HETATM    4  O           1     -19.465  -4.622  -6.185  0.00  0.00    -0.271 OA
ENDROOT
BRANCH   2   5
HETATM    5  C           1     -20.945  -6.333  -4.701  0.00  0.00     0.185 C 
BRANCH   5   6
HETATM    6  C           1     -22.006  -6.489  -3.620  0.00  0.00     0.036 C 
BRANCH   6   7
HETATM    7  C           1     -21.337  -6.845  -2.299  0.00  0.00     0.004 C 
BRANCH   7   8
HETATM    8  C           1     -22.348  -6.716  -1.167  0.00  0.00     0.027 C 
BRANCH   8   9
HETATM    9  C           1     -22.356  -7.998  -0.343  0.00  0.00     0.229 C 
BRANCH   9  10
HETATM   10  N           1     -23.509  -7.970   0.615  0.00  0.00    -0.079 N 
HETATM   11  H           1     -24.305  -8.518   0.219  0.00  0.00     0.274 HD
HETATM   12  H           1     -23.215  -8.391   1.526  0.00  0.00     0.274 HD
HETATM   13  H           1     -23.811  -6.981   0.770  0.00  0.00     0.274 HD
ENDBRANCH   9  10
ENDBRANCH   8   9
ENDBRANCH   7   8
ENDBRANCH   6   7
ENDBRANCH   5   6
BRANCH   5  14
HETATM   14  C           1     -20.568  -7.692  -5.238  0.00  0.00     0.196 C 
HETATM   15  O           1     -19.481  -8.215  -4.911  0.00  0.00    -0.646 OA
HETATM   16  O           1     -21.345  -8.296  -6.010  0.00  0.00    -0.646 OA
ENDBRANCH   5  14
ENDBRANCH   2   5
BRANCH   3  17
HETATM   17  C           1     -21.183  -3.832  -7.593  0.00  0.00     0.274 C 
BRANCH  17  18
HETATM   18  C           1     -22.607  -4.268  -7.914  0.00  0.00     0.044 C 
BRANCH  18  19
HETATM   19  C           1     -23.004  -3.737  -9.285  0.00  0.00     0.030 C 
BRANCH  19  20
HETATM   20  C           1     -24.218  -4.502  -9.794  0.00  0.00     0.230 C 
BRANCH  20  21
HETATM   21  N           1     -25.438  -3.634  -9.690  0.00  0.00    -0.079 N 
HETATM   22  H           1     -26.052  -3.989  -8.923  0.00  0.00     0.274 HD
HETATM   23  H           1     -25.960  -3.658 -10.595  0.00  0.00     0.274 HD
HETATM   24  H           1     -25.150  -2.652  -9.479  0.00  0.00     0.274 HD
ENDBRANCH  20  21
ENDBRANCH  19  20
ENDBRANCH  18  19
ENDBRANCH  17  18
BRANCH  17  25
HETATM   25  N           1     -20.324  -3.999  -8.811  0.00  0.00    -0.067 N 
HETATM   26  H           1     -20.911  -3.898  -9.669  0.00  0.00     0.275 HD
HETATM   27  H           1     -19.577  -3.268  -8.812  0.00  0.00     0.275 HD
HETATM   28  H           1     -19.883  -4.946  -8.799  0.00  0.00     0.275 HD
ENDBRANCH  17  25
ENDBRANCH   3  17
TORSDOF 13
ENDMDL
MODEL 8
REMARK VINA RESULT:      -5.5     10.947     12.703
REMARK  13 active torsions:
REMARK  status: ('A' for Active; 'I' for Inactive)
REMARK    1  A    between atoms: C_1  and  N_23 
REMARK    2  A    between atoms: C_1  and  C_28 
REMARK    3  A    between atoms: C_2  and  C_20 
REMARK    4  A    between atoms: C_2  and  C_3 
REMARK    5  A    between atoms: C_3  and  C_26 
REMARK    6  A    between atoms: C_3  and  N_12 
REMARK    7  A    between atoms: C_6  and  C_15 
REMARK    8  A    between atoms: C_6  and  C_22 
REMARK    9  A    between atoms: C_6  and  N_17 
REMARK       I    between atoms: N_12  and  C_15 
REMARK   10  A    between atoms: C_13  and  C_24 
REMARK   11  A    between atoms: C_13  and  N_16 
REMARK   12  A    between atoms: C_20  and  C_28 
REMARK   13  A    between atoms: C_22  and  C_24 
ROOT
HETATM    1  H           1     -34.767  -0.232 -12.004  0.00  0.00     0.163 HD
HETATM    2  N           1     -35.705  -0.601 -12.096  0.00  0.00    -0.345 N 
HETATM    3  C           1     -36.452  -0.304 -13.204  0.00  0.00     0.249 C 
HETATM    4  O           1     -37.572  -0.744 -13.314  0.00  0.00    -0.271 OA
ENDROOT
BRANCH   2   5
HETATM    5  C           1     -36.258  -1.444 -11.054  0.00  0.00     0.185 C 
BRANCH   5   6
HETATM    6  C           1     -35.190  -2.415 -10.568  0.00  0.00     0.036 C 
BRANCH   6   7
HETATM    7  C           1     -33.866  -2.098 -11.251  0.00  0.00     0.004 C 
BRANCH   7   8
HETATM    8  C           1     -33.068  -3.383 -11.431  0.00  0.00     0.027 C 
BRANCH   8   9
HETATM    9  C           1     -33.840  -4.551 -10.830  0.00  0.00     0.229 C 
BRANCH   9  10
HETATM   10  N           1     -33.291  -5.841 -11.363  0.00  0.00    -0.079 N 
HETATM   11  H           1     -32.412  -5.653 -11.896  0.00  0.00     0.274 HD
HETATM   12  H           1     -33.085  -6.486 -10.568  0.00  0.00     0.274 HD
HETATM   13  H           1     -33.994  -6.283 -11.998  0.00  0.00     0.274 HD
ENDBRANCH   9  10
ENDBRANCH   8   9
ENDBRANCH   7   8
ENDBRANCH   6   7
ENDBRANCH   5   6
BRANCH   5  14
HETATM   14  C           1     -36.718  -0.584  -9.904  0.00  0.00     0.196 C 
HETATM   15  O           1     -35.906  -0.229  -9.022  0.00  0.00    -0.646 OA
HETATM   16  O           1     -37.914  -0.224  -9.831  0.00  0.00    -0.646 OA
ENDBRANCH   5  14
ENDBRANCH   2   5
BRANCH   3  17
HETATM   17  C           1     -35.877   0.573 -14.289  0.00  0.00     0.274 C 
BRANCH  17  18
HETATM   18  C           1     -35.996  -0.134 -15.633  0.00  0.00     0.044 C 
BRANCH  18  19
HETATM   19  C           1     -35.124  -1.383 -15.629  0.00  0.00     0.030 C 
BRANCH  19  20
HETATM   20  C           1     -35.095  -1.986 -17.026  0.00  0.00     0.230 C 
BRANCH  20  21
HETATM   21  N           1     -33.968  -2.972 -17.122  0.00  0.00    -0.079 N 
HETATM   22  H           1     -34.341  -3.897 -17.435  0.00  0.00     0.274 HD
HETATM   23  H           1     -33.515  -3.076 -16.186  0.00  0.00     0.274 HD
HETATM   24  H           1     -33.264  -2.631 -17.814  0.00  0.00     0.274 HD
ENDBRANCH  20  21
ENDBRANCH  19  20
ENDBRANCH  18  19
ENDBRANCH  17  18
BRANCH  17  25
HETATM   25  N           1     -34.432   0.847 -13.996  0.00  0.00    -0.067 N 
HETATM   26  H           1     -34.235   0.648 -12.989  0.00  0.00     0.275 HD
HETATM   27  H           1     -33.834   0.235 -14.595  0.00  0.00     0.275 HD
HETATM   28  H           1     -34.219   1.850 -14.201  0.00  0.00     0.275 HD
ENDBRANCH  17  25
ENDBRANCH   3  17
TORSDOF 13
ENDMDL
MODEL 9
REMARK VINA RESULT:      -5.4     12.146     14.241
REMARK  13 active torsions:
REMARK  status: ('A' for Active; 'I' for Inactive)
REMARK    1  A    between atoms: C_1  and  N_23 
REMARK    2  A    between atoms: C_1  and  C_28 
REMARK    3  A    between atoms: C_2  and  C_20 
REMARK    4  A    between atoms: C_2  and  C_3 
REMARK    5  A    between atoms: C_3  and  C_26 
REMARK    6  A    between atoms: C_3  and  N_12 
REMARK    7  A    between atoms: C_6  and  C_15 
REMARK    8  A    between atoms: C_6  and  C_22 
REMARK    9  A    between atoms: C_6  and  N_17 
REMARK       I    between atoms: N_12  and  C_15 
REMARK   10  A    between atoms: C_13  and  C_24 
REMARK   11  A    between atoms: C_13  and  N_16 
REMARK   12  A    between atoms: C_20  and  C_28 
REMARK   13  A    between atoms: C_22  and  C_24 
ROOT
HETATM    1  H           1     -21.849  -6.988  -6.883  0.00  0.00     0.163 HD
HETATM    2  N           1     -21.315  -6.357  -6.301  0.00  0.00    -0.345 N 
HETATM    3  C           1     -21.014  -5.099  -6.751  0.00  0.00     0.249 C 
HETATM    4  O           1     -20.376  -4.345  -6.056  0.00  0.00    -0.271 OA
ENDROOT
BRANCH   2   5
HETATM    5  C           1     -20.866  -6.784  -4.990  0.00  0.00     0.185 C 
BRANCH   5   6
HETATM    6  C           1     -22.007  -6.642  -3.992  0.00  0.00     0.036 C 
BRANCH   6   7
HETATM    7  C           1     -21.485  -6.006  -2.711  0.00  0.00     0.004 C 
BRANCH   7   8
HETATM    8  C           1     -22.207  -6.611  -1.513  0.00  0.00     0.027 C 
BRANCH   8   9
HETATM    9  C           1     -21.879  -8.095  -1.419  0.00  0.00     0.229 C 
BRANCH   9  10
HETATM   10  N           1     -20.392  -8.274  -1.324  0.00  0.00    -0.079 N 
HETATM   11  H           1     -19.993  -7.544  -0.692  0.00  0.00     0.274 HD
HETATM   12  H           1     -20.179  -9.222  -0.938  0.00  0.00     0.274 HD
HETATM   13  H           1     -19.968  -8.181  -2.275  0.00  0.00     0.274 HD
ENDBRANCH   9  10
ENDBRANCH   8   9
ENDBRANCH   7   8
ENDBRANCH   6   7
ENDBRANCH   5   6
BRANCH   5  14
HETATM   14  C           1     -20.429  -8.226  -5.055  0.00  0.00     0.196 C 
HETATM   15  O           1     -20.961  -9.006  -5.874  0.00  0.00    -0.646 OA
HETATM   16  O           1     -19.533  -8.643  -4.288  0.00  0.00    -0.646 OA
ENDBRANCH   5  14
ENDBRANCH   2   5
BRANCH   3  17
HETATM   17  C           1     -21.481  -4.654  -8.115  0.00  0.00     0.274 C 
BRANCH  17  18
HETATM   18  C           1     -20.314  -4.042  -8.878  0.00  0.00     0.044 C 
BRANCH  18  19
HETATM   19  C           1     -20.136  -4.768 -10.205  0.00  0.00     0.030 C 
BRANCH  19  20
HETATM   20  C           1     -21.210  -4.311 -11.182  0.00  0.00     0.230 C 
BRANCH  20  21
HETATM   21  N           1     -20.916  -2.910 -11.631  0.00  0.00    -0.079 N 
HETATM   22  H           1     -20.024  -2.584 -11.192  0.00  0.00     0.274 HD
HETATM   23  H           1     -21.698  -2.280 -11.340  0.00  0.00     0.274 HD
HETATM   24  H           1     -20.819  -2.889 -12.670  0.00  0.00     0.274 HD
ENDBRANCH  20  21
ENDBRANCH  19  20
ENDBRANCH  18  19
ENDBRANCH  17  18
BRANCH  17  25
HETATM   25  N           1     -22.569  -3.633  -7.963  0.00  0.00    -0.067 N 
HETATM   26  H           1     -22.417  -3.089  -7.084  0.00  0.00     0.275 HD
HETATM   27  H           1     -22.552  -2.983  -8.782  0.00  0.00     0.275 HD
HETATM   28  H           1     -23.495  -4.114  -7.919  0.00  0.00     0.275 HD
ENDBRANCH  17  25
ENDBRANCH   3  17
TORSDOF 13
ENDMDL
