MODEL 1
REMARK VINA RESULT:      -6.8      0.000      0.000
REMARK  5 active torsions:
REMARK  status: ('A' for Active; 'I' for Inactive)
REMARK       I    between atoms: C_2  and  N_8 
REMARK    1  A    between atoms: C_2  and  C_3 
REMARK    2  A    between atoms: C_5  and  C_24 
REMARK    3  A    between atoms: C_5  and  C_6 
REMARK    4  A    between atoms: C_6  and  C_7 
REMARK    5  A    between atoms: C_6  and  N_8 
REMARK       I    between atoms: N_16  and  C_24 
ROOT
HETATM    1  C           1     -35.588  -0.964 -11.428  0.00  0.00     0.249 C 
HETATM    2  N           1     -35.611  -1.130 -12.787  0.00  0.00    -0.344 N 
HETATM    3  O           1     -35.764   0.131 -10.950  0.00  0.00    -0.271 OA
HETATM    4  H           1     -35.462  -2.047 -13.187  0.00  0.00     0.163 HD
ENDROOT
BRANCH   1   5
HETATM    5  C           1     -35.344  -2.150 -10.528  0.00  0.00     0.274 C 
HETATM    6  C           1     -33.845  -2.402 -10.413  0.00  0.00     0.042 C 
HETATM    7  C           1     -33.271  -2.687 -11.796  0.00  0.00     0.004 C 
HETATM    8  C           1     -32.642  -4.075 -11.808  0.00  0.00     0.027 C 
HETATM    9  C           1     -33.701  -5.116 -11.474  0.00  0.00     0.229 C 
HETATM   10  N           1     -34.800  -5.057 -12.494  0.00  0.00    -0.079 N 
HETATM   11  H           1     -35.233  -4.105 -12.485  0.00  0.00     0.274 HD
HETATM   12  H           1     -35.528  -5.771 -12.265  0.00  0.00     0.274 HD
HETATM   13  H           1     -34.407  -5.251 -13.442  0.00  0.00     0.274 HD
HETATM   14  H           1     -35.616  -3.558 -12.055  0.00  0.00     0.275 HD
HETATM   15  N           1     -36.010  -3.363 -11.107  0.00  0.00    -0.067 N 
HETATM   16  H           1     -37.038  -3.191 -11.185  0.00  0.00     0.275 HD
HETATM   17  H           1     -35.842  -4.185 -10.484  0.00  0.00     0.275 HD
ENDBRANCH   1   5
BRANCH   2  18
HETATM   18  C           1     -35.845   0.010 -13.652  0.00  0.00     0.194 C 
BRANCH  18  19
HETATM   19  C           1     -34.874  -0.035 -14.824  0.00  0.00     0.138 C 
BRANCH  19  20
HETATM   20  C           1     -35.289  -1.124 -15.782  0.00  0.00     0.217 C 
HETATM   21  O           1     -35.071  -2.281 -15.512  0.00  0.00    -0.274 OA
HETATM   22  N           1     -35.912  -0.801 -16.957  0.00  0.00    -0.370 N 
HETATM   23  H           1     -36.191  -1.532 -17.600  0.00  0.00     0.159 HD
HETATM   24  H           1     -36.095   0.168 -17.183  0.00  0.00     0.159 HD
ENDBRANCH  19  20
ENDBRANCH  18  19
BRANCH  18  25
HETATM   25  C           1     -37.262  -0.037 -14.171  0.00  0.00     0.197 C 
HETATM   26  O           1     -38.075  -0.860 -13.694  0.00  0.00    -0.646 OA
HETATM   27  O           1     -37.622   0.746 -15.076  0.00  0.00    -0.646 OA
ENDBRANCH  18  25
ENDBRANCH   2  18
TORSDOF 5
ENDMDL
MODEL 2
REMARK VINA RESULT:      -6.8      1.691      2.453
REMARK  5 active torsions:
REMARK  status: ('A' for Active; 'I' for Inactive)
REMARK       I    between atoms: C_2  and  N_8 
REMARK    1  A    between atoms: C_2  and  C_3 
REMARK    2  A    between atoms: C_5  and  C_24 
REMARK    3  A    between atoms: C_5  and  C_6 
REMARK    4  A    between atoms: C_6  and  C_7 
REMARK    5  A    between atoms: C_6  and  N_8 
REMARK       I    between atoms: N_16  and  C_24 
ROOT
HETATM    1  C           1     -35.992  -0.871 -12.591  0.00  0.00     0.249 C 
HETATM    2  N           1     -35.263  -0.344 -13.622  0.00  0.00    -0.344 N 
HETATM    3  O           1     -37.183  -1.033 -12.714  0.00  0.00    -0.271 OA
HETATM    4  H           1     -34.266  -0.207 -13.519  0.00  0.00     0.163 HD
ENDROOT
BRANCH   1   5
HETATM    5  C           1     -35.309  -1.251 -11.301  0.00  0.00     0.274 C 
HETATM    6  C           1     -33.907  -1.766 -11.600  0.00  0.00     0.042 C 
HETATM    7  C           1     -33.997  -2.988 -12.505  0.00  0.00     0.004 C 
HETATM    8  C           1     -33.368  -4.187 -11.805  0.00  0.00     0.027 C 
HETATM    9  C           1     -34.110  -4.462 -10.504  0.00  0.00     0.229 C 
HETATM   10  N           1     -35.551  -4.758 -10.803  0.00  0.00    -0.079 N 
HETATM   11  H           1     -35.982  -3.936 -11.281  0.00  0.00     0.274 HD
HETATM   12  H           1     -36.060  -4.947  -9.909  0.00  0.00     0.274 HD
HETATM   13  H           1     -35.613  -5.596 -11.424  0.00  0.00     0.274 HD
HETATM   14  H           1     -36.161  -3.163 -11.235  0.00  0.00     0.275 HD
HETATM   15  N           1     -36.099  -2.325 -10.614  0.00  0.00    -0.067 N 
HETATM   16  H           1     -37.061  -1.971 -10.408  0.00  0.00     0.275 HD
HETATM   17  H           1     -35.627  -2.589  -9.720  0.00  0.00     0.275 HD
ENDBRANCH   1   5
BRANCH   2  18
HETATM   18  C           1     -35.920   0.021 -14.863  0.00  0.00     0.194 C 
BRANCH  18  19
HETATM   19  C           1     -35.380   1.360 -15.347  0.00  0.00     0.138 C 
BRANCH  19  20
HETATM   20  C           1     -36.450   2.083 -16.128  0.00  0.00     0.217 C 
HETATM   21  O           1     -36.159   3.035 -16.812  0.00  0.00    -0.274 OA
HETATM   22  N           1     -37.750   1.660 -16.061  0.00  0.00    -0.370 N 
HETATM   23  H           1     -38.468   2.145 -16.584  0.00  0.00     0.159 HD
HETATM   24  H           1     -37.993   0.862 -15.488  0.00  0.00     0.159 HD
ENDBRANCH  19  20
ENDBRANCH  18  19
BRANCH  18  25
HETATM   25  C           1     -35.650  -1.037 -15.904  0.00  0.00     0.197 C 
HETATM   26  O           1     -34.896  -1.998 -15.637  0.00  0.00    -0.646 OA
HETATM   27  O           1     -36.180  -0.953 -17.032  0.00  0.00    -0.646 OA
ENDBRANCH  18  25
ENDBRANCH   2  18
TORSDOF 5
ENDMDL
MODEL 3
REMARK VINA RESULT:      -6.8      1.685      2.340
REMARK  5 active torsions:
REMARK  status: ('A' for Active; 'I' for Inactive)
REMARK       I    between atoms: C_2  and  N_8 
REMARK    1  A    between atoms: C_2  and  C_3 
REMARK    2  A    between atoms: C_5  and  C_24 
REMARK    3  A    between atoms: C_5  and  C_6 
REMARK    4  A    between atoms: C_6  and  C_7 
REMARK    5  A    between atoms: C_6  and  N_8 
REMARK       I    between atoms: N_16  and  C_24 
ROOT
HETATM    1  C           1     -35.072  -2.136 -12.700  0.00  0.00     0.249 C 
HETATM    2  N           1     -35.780  -0.968 -12.774  0.00  0.00    -0.344 N 
HETATM    3  O           1     -34.627  -2.639 -13.704  0.00  0.00    -0.271 OA
HETATM    4  H           1     -36.153  -0.548 -11.932  0.00  0.00     0.163 HD
ENDROOT
BRANCH   1   5
HETATM    5  C           1     -34.846  -2.798 -11.362  0.00  0.00     0.274 C 
HETATM    6  C           1     -33.365  -3.114 -11.195  0.00  0.00     0.042 C 
HETATM    7  C           1     -32.917  -4.053 -12.308  0.00  0.00     0.004 C 
HETATM    8  C           1     -32.390  -5.347 -11.700  0.00  0.00     0.027 C 
HETATM    9  C           1     -33.493  -6.012 -10.888  0.00  0.00     0.229 C 
HETATM   10  N           1     -34.658  -6.319 -11.783  0.00  0.00    -0.079 N 
HETATM   11  H           1     -35.020  -5.431 -12.199  0.00  0.00     0.274 HD
HETATM   12  H           1     -35.416  -6.775 -11.226  0.00  0.00     0.274 HD
HETATM   13  H           1     -34.351  -6.962 -12.547  0.00  0.00     0.274 HD
HETATM   14  H           1     -35.331  -4.713 -12.058  0.00  0.00     0.275 HD
HETATM   15  N           1     -35.638  -4.070 -11.294  0.00  0.00    -0.067 N 
HETATM   16  H           1     -36.654  -3.853 -11.409  0.00  0.00     0.275 HD
HETATM   17  H           1     -35.483  -4.529 -10.369  0.00  0.00     0.275 HD
ENDBRANCH   1   5
BRANCH   2  18
HETATM   18  C           1     -35.998  -0.332 -14.059  0.00  0.00     0.194 C 
BRANCH  18  19
HETATM   19  C           1     -37.466   0.050 -14.194  0.00  0.00     0.138 C 
BRANCH  19  20
HETATM   20  C           1     -37.790   0.301 -15.646  0.00  0.00     0.217 C 
HETATM   21  O           1     -37.798  -0.618 -16.430  0.00  0.00    -0.274 OA
HETATM   22  N           1     -38.074   1.569 -16.075  0.00  0.00    -0.370 N 
HETATM   23  H           1     -38.291   1.738 -17.049  0.00  0.00     0.159 HD
HETATM   24  H           1     -38.067   2.339 -15.418  0.00  0.00     0.159 HD
ENDBRANCH  19  20
ENDBRANCH  18  19
BRANCH  18  25
HETATM   25  C           1     -35.144   0.909 -14.156  0.00  0.00     0.197 C 
HETATM   26  O           1     -34.345   1.191 -13.236  0.00  0.00    -0.646 OA
HETATM   27  O           1     -35.235   1.654 -15.155  0.00  0.00    -0.646 OA
ENDBRANCH  18  25
ENDBRANCH   2  18
TORSDOF 5
ENDMDL
MODEL 4
REMARK VINA RESULT:      -6.1     25.342     26.546
REMARK  5 active torsions:
REMARK  status: ('A' for Active; 'I' for Inactive)
REMARK       I    between atoms: C_2  and  N_8 
REMARK    1  A    between atoms: C_2  and  C_3 
REMARK    2  A    between atoms: C_5  and  C_24 
REMARK    3  A    between atoms: C_5  and  C_6 
REMARK    4  A    between atoms: C_6  and  C_7 
REMARK    5  A    between atoms: C_6  and  N_8 
REMARK       I    between atoms: N_16  and  C_24 
ROOT
HETATM    1  C           1     -12.644   6.789 -20.944  0.00  0.00     0.249 C 
HETATM    2  N           1     -11.421   7.165 -20.456  0.00  0.00    -0.344 N 
HETATM    3  O           1     -13.112   7.356 -21.903  0.00  0.00    -0.271 OA
HETATM    4  H           1     -11.030   6.690 -19.652  0.00  0.00     0.163 HD
ENDROOT
BRANCH   1   5
HETATM    5  C           1     -13.408   5.668 -20.284  0.00  0.00     0.274 C 
HETATM    6  C           1     -12.431   4.602 -19.801  0.00  0.00     0.042 C 
HETATM    7  C           1     -11.649   4.055 -20.988  0.00  0.00     0.004 C 
HETATM    8  C           1     -11.899   2.557 -21.113  0.00  0.00     0.027 C 
HETATM    9  C           1     -13.386   2.306 -21.326  0.00  0.00     0.229 C 
HETATM   10  N           1     -13.835   2.994 -22.582  0.00  0.00    -0.079 N 
HETATM   11  H           1     -13.664   4.021 -22.495  0.00  0.00     0.274 HD
HETATM   12  H           1     -14.855   2.822 -22.728  0.00  0.00     0.274 HD
HETATM   13  H           1     -13.298   2.619 -23.396  0.00  0.00     0.274 HD
HETATM   14  H           1     -13.821   4.685 -22.087  0.00  0.00     0.275 HD
HETATM   15  N           1     -14.358   5.061 -21.274  0.00  0.00    -0.067 N 
HETATM   16  H           1     -15.028   5.791 -21.605  0.00  0.00     0.275 HD
HETATM   17  H           1     -14.888   4.284 -20.818  0.00  0.00     0.275 HD
ENDBRANCH   1   5
BRANCH   2  18
HETATM   18  C           1     -10.687   8.242 -21.090  0.00  0.00     0.194 C 
BRANCH  18  19
HETATM   19  C           1     -10.958   9.545 -20.348  0.00  0.00     0.138 C 
BRANCH  19  20
HETATM   20  C           1     -11.125   9.262 -18.876  0.00  0.00     0.217 C 
HETATM   21  O           1     -12.232   9.172 -18.400  0.00  0.00    -0.274 OA
HETATM   22  N           1     -10.024   9.106 -18.079  0.00  0.00    -0.370 N 
HETATM   23  H           1     -10.136   8.916 -17.091  0.00  0.00     0.159 HD
HETATM   24  H           1      -9.097   9.181 -18.477  0.00  0.00     0.159 HD
ENDBRANCH  19  20
ENDBRANCH  18  19
BRANCH  18  25
HETATM   25  C           1      -9.210   7.936 -21.047  0.00  0.00     0.197 C 
HETATM   26  O           1      -8.816   6.809 -20.677  0.00  0.00    -0.646 OA
HETATM   27  O           1      -8.381   8.810 -21.383  0.00  0.00    -0.646 OA
ENDBRANCH  18  25
ENDBRANCH   2  18
TORSDOF 5
ENDMDL
MODEL 5
REMARK VINA RESULT:      -6.0     24.949     26.109
REMARK  5 active torsions:
REMARK  status: ('A' for Active; 'I' for Inactive)
REMARK       I    between atoms: C_2  and  N_8 
REMARK    1  A    between atoms: C_2  and  C_3 
REMARK    2  A    between atoms: C_5  and  C_24 
REMARK    3  A    between atoms: C_5  and  C_6 
REMARK    4  A    between atoms: C_6  and  C_7 
REMARK    5  A    between atoms: C_6  and  N_8 
REMARK       I    between atoms: N_16  and  C_24 
ROOT
HETATM    1  C           1     -13.000   6.858 -20.604  0.00  0.00     0.249 C 
HETATM    2  N           1     -12.238   7.662 -19.800  0.00  0.00    -0.344 N 
HETATM    3  O           1     -13.192   7.165 -21.757  0.00  0.00    -0.271 OA
HETATM    4  H           1     -12.079   7.405 -18.834  0.00  0.00     0.163 HD
ENDROOT
BRANCH   1   5
HETATM    5  C           1     -13.601   5.589 -20.051  0.00  0.00     0.274 C 
HETATM    6  C           1     -12.486   4.631 -19.649  0.00  0.00     0.042 C 
HETATM    7  C           1     -11.635   4.301 -20.869  0.00  0.00     0.004 C 
HETATM    8  C           1     -11.675   2.800 -21.125  0.00  0.00     0.027 C 
HETATM    9  C           1     -13.113   2.365 -21.376  0.00  0.00     0.229 C 
HETATM   10  N           1     -13.653   3.090 -22.573  0.00  0.00    -0.079 N 
HETATM   11  H           1     -13.627   4.120 -22.397  0.00  0.00     0.274 HD
HETATM   12  H           1     -14.640   2.792 -22.746  0.00  0.00     0.274 HD
HETATM   13  H           1     -13.069   2.864 -23.410  0.00  0.00     0.274 HD
HETATM   14  H           1     -13.874   4.718 -21.936  0.00  0.00     0.275 HD
HETATM   15  N           1     -14.458   4.944 -21.100  0.00  0.00    -0.067 N 
HETATM   16  H           1     -15.223   5.601 -21.375  0.00  0.00     0.275 HD
HETATM   17  H           1     -14.875   4.065 -20.719  0.00  0.00     0.275 HD
ENDBRANCH   1   5
BRANCH   2  18
HETATM   18  C           1     -11.661   8.881 -20.330  0.00  0.00     0.194 C 
BRANCH  18  19
HETATM   19  C           1     -12.585  10.053 -20.027  0.00  0.00     0.138 C 
BRANCH  19  20
HETATM   20  C           1     -12.852  10.825 -21.296  0.00  0.00     0.217 C 
HETATM   21  O           1     -12.478  11.970 -21.396  0.00  0.00    -0.274 OA
HETATM   22  N           1     -13.518  10.230 -22.332  0.00  0.00    -0.370 N 
HETATM   23  H           1     -13.697  10.748 -23.184  0.00  0.00     0.159 HD
HETATM   24  H           1     -13.831   9.272 -22.248  0.00  0.00     0.159 HD
ENDBRANCH  19  20
ENDBRANCH  18  19
BRANCH  18  25
HETATM   25  C           1     -10.316   9.121 -19.689  0.00  0.00     0.197 C 
HETATM   26  O           1     -10.110   8.750 -18.512  0.00  0.00    -0.646 OA
HETATM   27  O           1      -9.409   9.690 -20.333  0.00  0.00    -0.646 OA
ENDBRANCH  18  25
ENDBRANCH   2  18
TORSDOF 5
ENDMDL
MODEL 6
REMARK VINA RESULT:      -6.0     15.132     17.398
REMARK  5 active torsions:
REMARK  status: ('A' for Active; 'I' for Inactive)
REMARK       I    between atoms: C_2  and  N_8 
REMARK    1  A    between atoms: C_2  and  C_3 
REMARK    2  A    between atoms: C_5  and  C_24 
REMARK    3  A    between atoms: C_5  and  C_6 
REMARK    4  A    between atoms: C_6  and  C_7 
REMARK    5  A    between atoms: C_6  and  N_8 
REMARK       I    between atoms: N_16  and  C_24 
ROOT
HETATM    1  C           1     -20.798  -5.683  -6.272  0.00  0.00     0.249 C 
HETATM    2  N           1     -20.931  -5.758  -4.912  0.00  0.00    -0.344 N 
HETATM    3  O           1     -21.035  -6.650  -6.957  0.00  0.00    -0.271 OA
HETATM    4  H           1     -20.730  -4.949  -4.339  0.00  0.00     0.163 HD
ENDROOT
BRANCH   1   5
HETATM    5  C           1     -20.354  -4.393  -6.917  0.00  0.00     0.274 C 
HETATM    6  C           1     -21.569  -3.653  -7.463  0.00  0.00     0.042 C 
HETATM    7  C           1     -22.271  -4.523  -8.498  0.00  0.00     0.004 C 
HETATM    8  C           1     -22.290  -3.801  -9.840  0.00  0.00     0.027 C 
HETATM    9  C           1     -20.862  -3.528 -10.290  0.00  0.00     0.229 C 
HETATM   10  N           1     -20.125  -4.828 -10.434  0.00  0.00    -0.079 N 
HETATM   11  H           1     -20.111  -5.322  -9.513  0.00  0.00     0.274 HD
HETATM   12  H           1     -19.144  -4.640 -10.743  0.00  0.00     0.274 HD
HETATM   13  H           1     -20.607  -5.425 -11.143  0.00  0.00     0.274 HD
HETATM   14  H           1     -19.890  -5.293  -8.750  0.00  0.00     0.275 HD
HETATM   15  N           1     -19.408  -4.696  -8.041  0.00  0.00    -0.067 N 
HETATM   16  H           1     -18.574  -5.203  -7.667  0.00  0.00     0.275 HD
HETATM   17  H           1     -19.100  -3.804  -8.489  0.00  0.00     0.275 HD
ENDBRANCH   1   5
BRANCH   2  18
HETATM   18  C           1     -21.357  -6.998  -4.292  0.00  0.00     0.194 C 
BRANCH  18  19
HETATM   19  C           1     -20.250  -8.036  -4.421  0.00  0.00     0.138 C 
BRANCH  19  20
HETATM   20  C           1     -20.855  -9.379  -4.747  0.00  0.00     0.217 C 
HETATM   21  O           1     -20.797  -9.809  -5.875  0.00  0.00    -0.274 OA
HETATM   22  N           1     -21.469 -10.110  -3.767  0.00  0.00    -0.370 N 
HETATM   23  H           1     -21.874 -11.012  -3.986  0.00  0.00     0.159 HD
HETATM   24  H           1     -21.517  -9.750  -2.823  0.00  0.00     0.159 HD
ENDBRANCH  19  20
ENDBRANCH  18  19
BRANCH  18  25
HETATM   25  C           1     -21.652  -6.754  -2.832  0.00  0.00     0.197 C 
HETATM   26  O           1     -22.485  -5.882  -2.500  0.00  0.00    -0.646 OA
HETATM   27  O           1     -21.063  -7.422  -1.956  0.00  0.00    -0.646 OA
ENDBRANCH  18  25
ENDBRANCH   2  18
TORSDOF 5
ENDMDL
MODEL 7
REMARK VINA RESULT:      -5.9     25.094     26.542
REMARK  5 active torsions:
REMARK  status: ('A' for Active; 'I' for Inactive)
REMARK       I    between atoms: C_2  and  N_8 
REMARK    1  A    between atoms: C_2  and  C_3 
REMARK    2  A    between atoms: C_5  and  C_24 
REMARK    3  A    between atoms: C_5  and  C_6 
REMARK    4  A    between atoms: C_6  and  C_7 
REMARK    5  A    between atoms: C_6  and  N_8 
REMARK       I    between atoms: N_16  and  C_24 
ROOT
HETATM    1  C           1     -10.532   6.581 -19.842  0.00  0.00     0.249 C 
HETATM    2  N           1     -11.288   5.769 -20.643  0.00  0.00    -0.344 N 
HETATM    3  O           1     -10.200   6.206 -18.742  0.00  0.00    -0.271 OA
HETATM    4  H           1     -11.566   6.084 -21.564  0.00  0.00     0.163 HD
ENDROOT
BRANCH   1   5
HETATM    5  C           1     -10.113   7.945 -20.331  0.00  0.00     0.274 C 
HETATM    6  C           1     -10.693   9.016 -19.415  0.00  0.00     0.042 C 
HETATM    7  C           1     -12.213   8.919 -19.420  0.00  0.00     0.004 C 
HETATM    8  C           1     -12.803  10.233 -19.919  0.00  0.00     0.027 C 
HETATM    9  C           1     -12.307  10.509 -21.331  0.00  0.00     0.229 C 
HETATM   10  N           1     -12.735   9.393 -22.239  0.00  0.00    -0.079 N 
HETATM   11  H           1     -12.329   8.493 -21.898  0.00  0.00     0.274 HD
HETATM   12  H           1     -12.394   9.582 -23.209  0.00  0.00     0.274 HD
HETATM   13  H           1     -13.777   9.326 -22.242  0.00  0.00     0.274 HD
HETATM   14  H           1     -11.665   8.088 -21.730  0.00  0.00     0.275 HD
HETATM   15  N           1     -10.622   8.154 -21.727  0.00  0.00    -0.067 N 
HETATM   16  H           1     -10.225   7.421 -22.356  0.00  0.00     0.275 HD
HETATM   17  H           1     -10.333   9.099 -22.067  0.00  0.00     0.275 HD
ENDBRANCH   1   5
BRANCH   2  18
HETATM   18  C           1     -11.691   4.458 -20.173  0.00  0.00     0.194 C 
BRANCH  18  19
HETATM   19  C           1     -13.211   4.365 -20.173  0.00  0.00     0.138 C 
BRANCH  19  20
HETATM   20  C           1     -13.765   5.156 -21.333  0.00  0.00     0.217 C 
HETATM   21  O           1     -13.968   6.341 -21.213  0.00  0.00    -0.274 OA
HETATM   22  N           1     -14.037   4.532 -22.519  0.00  0.00    -0.370 N 
HETATM   23  H           1     -14.409   5.062 -23.297  0.00  0.00     0.159 HD
HETATM   24  H           1     -13.867   3.539 -22.619  0.00  0.00     0.159 HD
ENDBRANCH  19  20
ENDBRANCH  18  19
BRANCH  18  25
HETATM   25  C           1     -11.122   3.400 -21.087  0.00  0.00     0.197 C 
HETATM   26  O           1     -10.821   3.689 -22.266  0.00  0.00    -0.646 OA
HETATM   27  O           1     -10.951   2.236 -20.665  0.00  0.00    -0.646 OA
ENDBRANCH  18  25
ENDBRANCH   2  18
TORSDOF 5
ENDMDL
MODEL 8
REMARK VINA RESULT:      -5.9     25.002     26.422
REMARK  5 active torsions:
REMARK  status: ('A' for Active; 'I' for Inactive)
REMARK       I    between atoms: C_2  and  N_8 
REMARK    1  A    between atoms: C_2  and  C_3 
REMARK    2  A    between atoms: C_5  and  C_24 
REMARK    3  A    between atoms: C_5  and  C_6 
REMARK    4  A    between atoms: C_6  and  C_7 
REMARK    5  A    between atoms: C_6  and  N_8 
REMARK       I    between atoms: N_16  and  C_24 
ROOT
HETATM    1  C           1     -12.324   8.425 -20.863  0.00  0.00     0.249 C 
HETATM    2  N           1     -11.643   7.344 -20.371  0.00  0.00    -0.344 N 
HETATM    3  O           1     -13.139   8.278 -21.742  0.00  0.00    -0.271 OA
HETATM    4  H           1     -10.960   7.468 -19.635  0.00  0.00     0.163 HD
ENDROOT
BRANCH   1   5
HETATM    5  C           1     -12.056   9.802 -20.306  0.00  0.00     0.274 C 
HETATM    6  C           1     -12.327   9.807 -18.807  0.00  0.00     0.042 C 
HETATM    7  C           1     -13.781   9.430 -18.553  0.00  0.00     0.004 C 
HETATM    8  C           1     -14.480  10.570 -17.822  0.00  0.00     0.027 C 
HETATM    9  C           1     -14.423  11.830 -18.673  0.00  0.00     0.229 C 
HETATM   10  N           1     -15.112  11.581 -19.983  0.00  0.00    -0.079 N 
HETATM   11  H           1     -14.632  10.800 -20.485  0.00  0.00     0.274 HD
HETATM   12  H           1     -15.073  12.446 -20.568  0.00  0.00     0.274 HD
HETATM   13  H           1     -16.109  11.322 -19.809  0.00  0.00     0.274 HD
HETATM   14  H           1     -13.952  10.538 -20.804  0.00  0.00     0.275 HD
HETATM   15  N           1     -12.955  10.797 -20.979  0.00  0.00    -0.067 N 
HETATM   16  H           1     -12.769  10.794 -22.007  0.00  0.00     0.275 HD
HETATM   17  H           1     -12.771  11.751 -20.594  0.00  0.00     0.275 HD
ENDBRANCH   1   5
BRANCH   2  18
HETATM   18  C           1     -11.901   6.021 -20.906  0.00  0.00     0.194 C 
BRANCH  18  19
HETATM   19  C           1     -10.588   5.259 -21.028  0.00  0.00     0.138 C 
BRANCH  19  20
HETATM   20  C           1      -9.555   5.887 -20.125  0.00  0.00     0.217 C 
HETATM   21  O           1      -8.861   6.786 -20.535  0.00  0.00    -0.274 OA
HETATM   22  N           1      -9.405   5.437 -18.841  0.00  0.00    -0.370 N 
HETATM   23  H           1      -8.711   5.858 -18.235  0.00  0.00     0.159 HD
HETATM   24  H           1      -9.986   4.684 -18.497  0.00  0.00     0.159 HD
ENDBRANCH  19  20
ENDBRANCH  18  19
BRANCH  18  25
HETATM   25  C           1     -12.831   5.277 -19.979  0.00  0.00     0.197 C 
HETATM   26  O           1     -14.052   5.545 -19.972  0.00  0.00    -0.646 OA
HETATM   27  O           1     -12.380   4.393 -19.219  0.00  0.00    -0.646 OA
ENDBRANCH  18  25
ENDBRANCH   2  18
TORSDOF 5
ENDMDL
MODEL 9
REMARK VINA RESULT:      -5.8     16.071     18.729
REMARK  5 active torsions:
REMARK  status: ('A' for Active; 'I' for Inactive)
REMARK       I    between atoms: C_2  and  N_8 
REMARK    1  A    between atoms: C_2  and  C_3 
REMARK    2  A    between atoms: C_5  and  C_24 
REMARK    3  A    between atoms: C_5  and  C_6 
REMARK    4  A    between atoms: C_6  and  C_7 
REMARK    5  A    between atoms: C_6  and  N_8 
REMARK       I    between atoms: N_16  and  C_24 
ROOT
HETATM    1  C           1     -21.508  -6.793  -4.449  0.00  0.00     0.249 C 
HETATM    2  N           1     -20.996  -7.980  -3.999  0.00  0.00    -0.344 N 
HETATM    3  O           1     -21.665  -5.873  -3.682  0.00  0.00    -0.271 OA
HETATM    4  H           1     -20.865  -8.750  -4.642  0.00  0.00     0.163 HD
ENDROOT
BRANCH   1   5
HETATM    5  C           1     -21.877  -6.634  -5.904  0.00  0.00     0.274 C 
HETATM    6  C           1     -20.610  -6.612  -6.750  0.00  0.00     0.042 C 
HETATM    7  C           1     -19.730  -5.445  -6.319  0.00  0.00     0.004 C 
HETATM    8  C           1     -19.517  -4.506  -7.499  0.00  0.00     0.027 C 
HETATM    9  C           1     -20.862  -3.977  -7.978  0.00  0.00     0.229 C 
HETATM   10  N           1     -21.533  -3.232  -6.862  0.00  0.00    -0.079 N 
HETATM   11  H           1     -21.681  -3.876  -6.053  0.00  0.00     0.274 HD
HETATM   12  H           1     -22.457  -2.869  -7.190  0.00  0.00     0.274 HD
HETATM   13  H           1     -20.930  -2.432  -6.565  0.00  0.00     0.274 HD
HETATM   14  H           1     -22.021  -4.547  -5.795  0.00  0.00     0.275 HD
HETATM   15  N           1     -22.624  -5.347  -6.091  0.00  0.00    -0.067 N 
HETATM   16  H           1     -23.493  -5.362  -5.511  0.00  0.00     0.275 HD
HETATM   17  H           1     -22.880  -5.235  -7.098  0.00  0.00     0.275 HD
ENDBRANCH   1   5
BRANCH   2  18
HETATM   18  C           1     -20.641  -8.133  -2.602  0.00  0.00     0.194 C 
BRANCH  18  19
HETATM   19  C           1     -21.844  -8.655  -1.828  0.00  0.00     0.138 C 
BRANCH  19  20
HETATM   20  C           1     -22.005  -7.866  -0.552  0.00  0.00     0.217 C 
HETATM   21  O           1     -22.705  -6.881  -0.535  0.00  0.00    -0.274 OA
HETATM   22  N           1     -21.358  -8.264   0.586  0.00  0.00    -0.370 N 
HETATM   23  H           1     -21.465  -7.734   1.442  0.00  0.00     0.159 HD
HETATM   24  H           1     -20.771  -9.089   0.572  0.00  0.00     0.159 HD
ENDBRANCH  19  20
ENDBRANCH  18  19
BRANCH  18  25
HETATM   25  C           1     -19.499  -9.112  -2.478  0.00  0.00     0.197 C 
HETATM   26  O           1     -19.538 -10.010  -1.609  0.00  0.00    -0.646 OA
HETATM   27  O           1     -18.515  -9.024  -3.244  0.00  0.00    -0.646 OA
ENDBRANCH  18  25
ENDBRANCH   2  18
TORSDOF 5
ENDMDL
