MODEL 1
REMARK VINA RESULT:      -6.8      0.000      0.000
REMARK  9 active torsions:
REMARK  status: ('A' for Active; 'I' for Inactive)
REMARK       I    between atoms: C_2  and  N_3 
REMARK    1  A    between atoms: C_2  and  C_18 
REMARK    2  A    between atoms: N_3  and  C_21 
REMARK    3  A    between atoms: C_6  and  C_7 
REMARK    4  A    between atoms: C_7  and  C_18 
REMARK    5  A    between atoms: C_8  and  C_14 
REMARK    6  A    between atoms: C_14  and  C_22 
REMARK    7  A    between atoms: C_17  and  C_21 
REMARK    8  A    between atoms: C_18  and  N_19 
REMARK    9  A    between atoms: C_21  and  C_22 
ROOT
HETATM    1  C           1     -34.296  -2.382 -12.293  0.00  0.00     0.249 C 
HETATM    2  N           1     -34.969  -1.572 -13.167  0.00  0.00    -0.345 N 
HETATM    3  O           1     -33.788  -1.911 -11.303  0.00  0.00    -0.271 OA
HETATM    4  H           1     -35.395  -1.966 -13.997  0.00  0.00     0.163 HD
ENDROOT
BRANCH   1   5
HETATM    5  C           1     -34.188  -3.862 -12.566  0.00  0.00     0.275 C 
BRANCH   5   6
HETATM    6  C           1     -33.268  -4.503 -11.535  0.00  0.00     0.046 C 
BRANCH   6   7
HETATM    7  C           1     -34.104  -5.223 -10.486  0.00  0.00    -0.020 C 
HETATM    8  C           1     -35.573  -4.866 -10.673  0.00  0.00     0.009 C 
HETATM    9  C           1     -33.925  -6.728 -10.640  0.00  0.00     0.009 C 
ENDBRANCH   6   7
ENDBRANCH   5   6
BRANCH   5  10
HETATM   10  N           1     -33.625  -4.077 -13.940  0.00  0.00    -0.066 N 
HETATM   11  H           1     -34.359  -3.869 -14.654  0.00  0.00     0.275 HD
HETATM   12  H           1     -33.315  -5.071 -14.037  0.00  0.00     0.275 HD
HETATM   13  H           1     -32.809  -3.441 -14.086  0.00  0.00     0.275 HD
ENDBRANCH   5  10
ENDBRANCH   1   5
BRANCH   2  14
HETATM   14  C           1     -35.074  -0.150 -12.906  0.00  0.00     0.186 C 
BRANCH  14  15
HETATM   15  C           1     -36.294   0.117 -12.058  0.00  0.00     0.196 C 
HETATM   16  O           1     -36.162   0.459 -10.864  0.00  0.00    -0.646 OA
HETATM   17  O           1     -37.436  -0.004 -12.552  0.00  0.00    -0.646 OA
ENDBRANCH  14  15
BRANCH  14  18
HETATM   18  C           1     -35.197   0.602 -14.224  0.00  0.00     0.046 C 
BRANCH  18  19
HETATM   19  C           1     -35.369  -0.394 -15.364  0.00  0.00     0.116 C 
BRANCH  19  20
HETATM   20  C           1     -36.651  -0.097 -16.103  0.00  0.00     0.172 C 
HETATM   21  O           1     -37.299   0.938 -15.839  0.00  0.00    -0.648 OA
HETATM   22  O           1     -37.064  -0.887 -16.979  0.00  0.00    -0.648 OA
ENDBRANCH  19  20
ENDBRANCH  18  19
ENDBRANCH  14  18
ENDBRANCH   2  14
TORSDOF 9
ENDMDL
MODEL 2
REMARK VINA RESULT:      -6.7      1.895      3.548
REMARK  9 active torsions:
REMARK  status: ('A' for Active; 'I' for Inactive)
REMARK       I    between atoms: C_2  and  N_3 
REMARK    1  A    between atoms: C_2  and  C_18 
REMARK    2  A    between atoms: N_3  and  C_21 
REMARK    3  A    between atoms: C_6  and  C_7 
REMARK    4  A    between atoms: C_7  and  C_18 
REMARK    5  A    between atoms: C_8  and  C_14 
REMARK    6  A    between atoms: C_14  and  C_22 
REMARK    7  A    between atoms: C_17  and  C_21 
REMARK    8  A    between atoms: C_18  and  N_19 
REMARK    9  A    between atoms: C_21  and  C_22 
ROOT
HETATM    1  C           1     -34.581  -2.344 -12.493  0.00  0.00     0.249 C 
HETATM    2  N           1     -35.247  -1.160 -12.332  0.00  0.00    -0.345 N 
HETATM    3  O           1     -34.615  -2.917 -13.556  0.00  0.00    -0.271 OA
HETATM    4  H           1     -35.220  -0.680 -11.441  0.00  0.00     0.163 HD
ENDROOT
BRANCH   1   5
HETATM    5  C           1     -33.804  -2.936 -11.342  0.00  0.00     0.275 C 
BRANCH   5   6
HETATM    6  C           1     -34.627  -4.037 -10.687  0.00  0.00     0.046 C 
BRANCH   6   7
HETATM    7  C           1     -34.205  -5.389 -11.247  0.00  0.00    -0.020 C 
HETATM    8  C           1     -32.709  -5.375 -11.535  0.00  0.00     0.009 C 
HETATM    9  C           1     -34.516  -6.479 -10.230  0.00  0.00     0.009 C 
ENDBRANCH   6   7
ENDBRANCH   5   6
BRANCH   5  10
HETATM   10  N           1     -33.511  -1.864 -10.334  0.00  0.00    -0.066 N 
HETATM   11  H           1     -32.548  -1.491 -10.492  0.00  0.00     0.275 HD
HETATM   12  H           1     -33.575  -2.266  -9.371  0.00  0.00     0.275 HD
HETATM   13  H           1     -34.205  -1.090 -10.436  0.00  0.00     0.275 HD
ENDBRANCH   5  10
ENDBRANCH   1   5
BRANCH   2  14
HETATM   14  C           1     -35.994  -0.591 -13.437  0.00  0.00     0.186 C 
BRANCH  14  15
HETATM   15  C           1     -35.116   0.378 -14.191  0.00  0.00     0.196 C 
HETATM   16  O           1     -34.771   0.125 -15.365  0.00  0.00    -0.646 OA
HETATM   17  O           1     -34.734   1.433 -13.641  0.00  0.00    -0.646 OA
ENDBRANCH  14  15
BRANCH  14  18
HETATM   18  C           1     -37.216   0.142 -12.901  0.00  0.00     0.046 C 
BRANCH  18  19
HETATM   19  C           1     -37.689  -0.528 -11.618  0.00  0.00     0.116 C 
BRANCH  19  20
HETATM   20  C           1     -37.269   0.303 -10.431  0.00  0.00     0.172 C 
HETATM   21  O           1     -38.020   1.205 -10.003  0.00  0.00    -0.648 OA
HETATM   22  O           1     -36.170   0.088  -9.876  0.00  0.00    -0.648 OA
ENDBRANCH  19  20
ENDBRANCH  18  19
ENDBRANCH  14  18
ENDBRANCH   2  14
TORSDOF 9
ENDMDL
MODEL 3
REMARK VINA RESULT:      -6.5      9.748     10.993
REMARK  9 active torsions:
REMARK  status: ('A' for Active; 'I' for Inactive)
REMARK       I    between atoms: C_2  and  N_3 
REMARK    1  A    between atoms: C_2  and  C_18 
REMARK    2  A    between atoms: N_3  and  C_21 
REMARK    3  A    between atoms: C_6  and  C_7 
REMARK    4  A    between atoms: C_7  and  C_18 
REMARK    5  A    between atoms: C_8  and  C_14 
REMARK    6  A    between atoms: C_14  and  C_22 
REMARK    7  A    between atoms: C_17  and  C_21 
REMARK    8  A    between atoms: C_18  and  N_19 
REMARK    9  A    between atoms: C_21  and  C_22 
ROOT
HETATM    1  C           1     -26.211  -6.282 -18.112  0.00  0.00     0.249 C 
HETATM    2  N           1     -27.451  -6.351 -18.686  0.00  0.00    -0.345 N 
HETATM    3  O           1     -26.103  -6.048 -16.932  0.00  0.00    -0.271 OA
HETATM    4  H           1     -27.542  -6.547 -19.675  0.00  0.00     0.163 HD
ENDROOT
BRANCH   1   5
HETATM    5  C           1     -24.977  -6.497 -18.954  0.00  0.00     0.275 C 
BRANCH   5   6
HETATM    6  C           1     -25.364  -6.521 -20.427  0.00  0.00     0.046 C 
BRANCH   6   7
HETATM    7  C           1     -25.185  -7.930 -20.976  0.00  0.00    -0.020 C 
HETATM    8  C           1     -26.538  -8.490 -21.394  0.00  0.00     0.009 C 
HETATM    9  C           1     -24.257  -7.889 -22.184  0.00  0.00     0.009 C 
ENDBRANCH   6   7
ENDBRANCH   5   6
BRANCH   5  10
HETATM   10  N           1     -24.339  -7.803 -18.583  0.00  0.00    -0.066 N 
HETATM   11  H           1     -25.076  -8.474 -18.269  0.00  0.00     0.275 HD
HETATM   12  H           1     -23.655  -7.648 -17.807  0.00  0.00     0.275 HD
HETATM   13  H           1     -23.842  -8.196 -19.414  0.00  0.00     0.275 HD
ENDBRANCH   5  10
ENDBRANCH   1   5
BRANCH   2  14
HETATM   14  C           1     -28.637  -6.145 -17.878  0.00  0.00     0.186 C 
BRANCH  14  15
HETATM   15  C           1     -29.476  -7.399 -17.888  0.00  0.00     0.196 C 
HETATM   16  O           1     -29.341  -8.249 -16.982  0.00  0.00    -0.646 OA
HETATM   17  O           1     -30.308  -7.587 -18.803  0.00  0.00    -0.646 OA
ENDBRANCH  14  15
BRANCH  14  18
HETATM   18  C           1     -29.446  -4.988 -18.448  0.00  0.00     0.046 C 
BRANCH  18  19
HETATM   19  C           1     -29.880  -4.065 -17.317  0.00  0.00     0.116 C 
BRANCH  19  20
HETATM   20  C           1     -31.386  -3.973 -17.291  0.00  0.00     0.172 C 
HETATM   21  O           1     -31.957  -2.949 -17.725  0.00  0.00    -0.648 OA
HETATM   22  O           1     -32.062  -4.920 -16.837  0.00  0.00    -0.648 OA
ENDBRANCH  19  20
ENDBRANCH  18  19
ENDBRANCH  14  18
ENDBRANCH   2  14
TORSDOF 9
ENDMDL
MODEL 4
REMARK VINA RESULT:      -6.3     10.690     12.049
REMARK  9 active torsions:
REMARK  status: ('A' for Active; 'I' for Inactive)
REMARK       I    between atoms: C_2  and  N_3 
REMARK    1  A    between atoms: C_2  and  C_18 
REMARK    2  A    between atoms: N_3  and  C_21 
REMARK    3  A    between atoms: C_6  and  C_7 
REMARK    4  A    between atoms: C_7  and  C_18 
REMARK    5  A    between atoms: C_8  and  C_14 
REMARK    6  A    between atoms: C_14  and  C_22 
REMARK    7  A    between atoms: C_17  and  C_21 
REMARK    8  A    between atoms: C_18  and  N_19 
REMARK    9  A    between atoms: C_21  and  C_22 
ROOT
HETATM    1  C           1     -26.907  -6.612 -20.077  0.00  0.00     0.249 C 
HETATM    2  N           1     -27.463  -6.568 -18.827  0.00  0.00    -0.345 N 
HETATM    3  O           1     -26.954  -5.640 -20.793  0.00  0.00    -0.271 OA
HETATM    4  H           1     -27.424  -7.383 -18.227  0.00  0.00     0.163 HD
ENDROOT
BRANCH   1   5
HETATM    5  C           1     -26.238  -7.874 -20.562  0.00  0.00     0.275 C 
BRANCH   5   6
HETATM    6  C           1     -25.168  -7.522 -21.587  0.00  0.00     0.046 C 
BRANCH   6   7
HETATM    7  C           1     -23.896  -8.301 -21.282  0.00  0.00    -0.020 C 
HETATM    8  C           1     -22.976  -8.269 -22.495  0.00  0.00     0.009 C 
HETATM    9  C           1     -23.187  -7.667 -20.091  0.00  0.00     0.009 C 
ENDBRANCH   6   7
ENDBRANCH   5   6
BRANCH   5  10
HETATM   10  N           1     -27.261  -8.770 -21.196  0.00  0.00    -0.066 N 
HETATM   11  H           1     -27.435  -9.594 -20.577  0.00  0.00     0.275 HD
HETATM   12  H           1     -26.908  -9.100 -22.123  0.00  0.00     0.275 HD
HETATM   13  H           1     -28.152  -8.242 -21.330  0.00  0.00     0.275 HD
ENDBRANCH   5  10
ENDBRANCH   1   5
BRANCH   2  14
HETATM   14  C           1     -28.106  -5.356 -18.360  0.00  0.00     0.186 C 
BRANCH  14  15
HETATM   15  C           1     -27.454  -4.904 -17.076  0.00  0.00     0.196 C 
HETATM   16  O           1     -27.895  -3.904 -16.470  0.00  0.00    -0.646 OA
HETATM   17  O           1     -26.474  -5.530 -16.618  0.00  0.00    -0.646 OA
ENDBRANCH  14  15
BRANCH  14  18
HETATM   18  C           1     -29.583  -5.627 -18.112  0.00  0.00     0.046 C 
BRANCH  18  19
HETATM   19  C           1     -29.760  -7.047 -17.590  0.00  0.00     0.116 C 
BRANCH  19  20
HETATM   20  C           1     -30.402  -7.900 -18.656  0.00  0.00     0.172 C 
HETATM   21  O           1     -29.708  -8.707 -19.312  0.00  0.00    -0.648 OA
HETATM   22  O           1     -31.626  -7.800 -18.883  0.00  0.00    -0.648 OA
ENDBRANCH  19  20
ENDBRANCH  18  19
ENDBRANCH  14  18
ENDBRANCH   2  14
TORSDOF 9
ENDMDL
MODEL 5
REMARK VINA RESULT:      -6.3     13.397     15.601
REMARK  9 active torsions:
REMARK  status: ('A' for Active; 'I' for Inactive)
REMARK       I    between atoms: C_2  and  N_3 
REMARK    1  A    between atoms: C_2  and  C_18 
REMARK    2  A    between atoms: N_3  and  C_21 
REMARK    3  A    between atoms: C_6  and  C_7 
REMARK    4  A    between atoms: C_7  and  C_18 
REMARK    5  A    between atoms: C_8  and  C_14 
REMARK    6  A    between atoms: C_14  and  C_22 
REMARK    7  A    between atoms: C_17  and  C_21 
REMARK    8  A    between atoms: C_18  and  N_19 
REMARK    9  A    between atoms: C_21  and  C_22 
ROOT
HETATM    1  C           1     -21.207  -6.260  -6.013  0.00  0.00     0.249 C 
HETATM    2  N           1     -21.346  -5.018  -6.569  0.00  0.00    -0.345 N 
HETATM    3  O           1     -21.213  -7.241  -6.717  0.00  0.00    -0.271 OA
HETATM    4  H           1     -21.342  -4.195  -5.978  0.00  0.00     0.163 HD
ENDROOT
BRANCH   1   5
HETATM    5  C           1     -21.048  -6.405  -4.519  0.00  0.00     0.275 C 
BRANCH   5   6
HETATM    6  C           1     -20.595  -7.822  -4.191  0.00  0.00     0.046 C 
BRANCH   6   7
HETATM    7  C           1     -21.294  -8.298  -2.924  0.00  0.00    -0.020 C 
HETATM    8  C           1     -21.697  -9.758  -3.083  0.00  0.00     0.009 C 
HETATM    9  C           1     -20.345  -8.159  -1.740  0.00  0.00     0.009 C 
ENDBRANCH   6   7
ENDBRANCH   5   6
BRANCH   5  10
HETATM   10  N           1     -22.361  -6.132  -3.848  0.00  0.00    -0.066 N 
HETATM   11  H           1     -22.192  -5.804  -2.870  0.00  0.00     0.275 HD
HETATM   12  H           1     -22.930  -7.009  -3.827  0.00  0.00     0.275 HD
HETATM   13  H           1     -22.876  -5.394  -4.377  0.00  0.00     0.275 HD
ENDBRANCH   5  10
ENDBRANCH   1   5
BRANCH   2  14
HETATM   14  C           1     -21.499  -4.878  -8.003  0.00  0.00     0.186 C 
BRANCH  14  15
HETATM   15  C           1     -20.152  -4.612  -8.629  0.00  0.00     0.196 C 
HETATM   16  O           1     -19.193  -4.247  -7.916  0.00  0.00    -0.646 OA
HETATM   17  O           1     -19.995  -4.759  -9.861  0.00  0.00    -0.646 OA
ENDBRANCH  14  15
BRANCH  14  18
HETATM   18  C           1     -22.436  -3.715  -8.303  0.00  0.00     0.046 C 
BRANCH  18  19
HETATM   19  C           1     -23.686  -4.236  -9.000  0.00  0.00     0.116 C 
BRANCH  19  20
HETATM   20  C           1     -23.871  -3.512 -10.311  0.00  0.00     0.172 C 
HETATM   21  O           1     -22.875  -3.205 -11.001  0.00  0.00    -0.648 OA
HETATM   22  O           1     -25.020  -3.220 -10.707  0.00  0.00    -0.648 OA
ENDBRANCH  19  20
ENDBRANCH  18  19
ENDBRANCH  14  18
ENDBRANCH   2  14
TORSDOF 9
ENDMDL
MODEL 6
REMARK VINA RESULT:      -6.2     14.609     17.201
REMARK  9 active torsions:
REMARK  status: ('A' for Active; 'I' for Inactive)
REMARK       I    between atoms: C_2  and  N_3 
REMARK    1  A    between atoms: C_2  and  C_18 
REMARK    2  A    between atoms: N_3  and  C_21 
REMARK    3  A    between atoms: C_6  and  C_7 
REMARK    4  A    between atoms: C_7  and  C_18 
REMARK    5  A    between atoms: C_8  and  C_14 
REMARK    6  A    between atoms: C_14  and  C_22 
REMARK    7  A    between atoms: C_17  and  C_21 
REMARK    8  A    between atoms: C_18  and  N_19 
REMARK    9  A    between atoms: C_21  and  C_22 
ROOT
HETATM    1  C           1     -21.699  -4.848  -6.962  0.00  0.00     0.249 C 
HETATM    2  N           1     -21.836  -6.041  -6.305  0.00  0.00    -0.345 N 
HETATM    3  O           1     -20.945  -4.006  -6.534  0.00  0.00    -0.271 OA
HETATM    4  H           1     -22.468  -6.746  -6.663  0.00  0.00     0.163 HD
ENDROOT
BRANCH   1   5
HETATM    5  C           1     -22.491  -4.583  -8.218  0.00  0.00     0.275 C 
BRANCH   5   6
HETATM    6  C           1     -21.751  -3.571  -9.083  0.00  0.00     0.046 C 
BRANCH   6   7
HETATM    7  C           1     -21.420  -4.198 -10.430  0.00  0.00    -0.020 C 
HETATM    8  C           1     -21.516  -3.141 -11.522  0.00  0.00     0.009 C 
HETATM    9  C           1     -20.006  -4.762 -10.392  0.00  0.00     0.009 C 
ENDBRANCH   6   7
ENDBRANCH   5   6
BRANCH   5  10
HETATM   10  N           1     -23.840  -4.037  -7.854  0.00  0.00    -0.066 N 
HETATM   11  H           1     -24.152  -3.360  -8.586  0.00  0.00     0.275 HD
HETATM   12  H           1     -23.780  -3.549  -6.931  0.00  0.00     0.275 HD
HETATM   13  H           1     -24.528  -4.821  -7.789  0.00  0.00     0.275 HD
ENDBRANCH   5  10
ENDBRANCH   1   5
BRANCH   2  14
HETATM   14  C           1     -21.075  -6.296  -5.098  0.00  0.00     0.186 C 
BRANCH  14  15
HETATM   15  C           1     -20.075  -7.396  -5.357  0.00  0.00     0.196 C 
HETATM   16  O           1     -19.458  -7.436  -6.443  0.00  0.00    -0.646 OA
HETATM   17  O           1     -19.862  -8.266  -4.485  0.00  0.00    -0.646 OA
ENDBRANCH  14  15
BRANCH  14  18
HETATM   18  C           1     -22.020  -6.722  -3.982  0.00  0.00     0.046 C 
BRANCH  18  19
HETATM   19  C           1     -21.584  -6.078  -2.673  0.00  0.00     0.116 C 
BRANCH  19  20
HETATM   20  C           1     -21.843  -7.031  -1.532  0.00  0.00     0.172 C 
HETATM   21  O           1     -21.072  -7.995  -1.336  0.00  0.00    -0.648 OA
HETATM   22  O           1     -22.828  -6.857  -0.783  0.00  0.00    -0.648 OA
ENDBRANCH  19  20
ENDBRANCH  18  19
ENDBRANCH  14  18
ENDBRANCH   2  14
TORSDOF 9
ENDMDL
MODEL 7
REMARK VINA RESULT:      -6.1      3.944      6.297
REMARK  9 active torsions:
REMARK  status: ('A' for Active; 'I' for Inactive)
REMARK       I    between atoms: C_2  and  N_3 
REMARK    1  A    between atoms: C_2  and  C_18 
REMARK    2  A    between atoms: N_3  and  C_21 
REMARK    3  A    between atoms: C_6  and  C_7 
REMARK    4  A    between atoms: C_7  and  C_18 
REMARK    5  A    between atoms: C_8  and  C_14 
REMARK    6  A    between atoms: C_14  and  C_22 
REMARK    7  A    between atoms: C_17  and  C_21 
REMARK    8  A    between atoms: C_18  and  N_19 
REMARK    9  A    between atoms: C_21  and  C_22 
ROOT
HETATM    1  C           1     -33.864  -4.481 -15.437  0.00  0.00     0.249 C 
HETATM    2  N           1     -33.375  -4.008 -14.250  0.00  0.00    -0.345 N 
HETATM    3  O           1     -35.003  -4.879 -15.506  0.00  0.00    -0.271 OA
HETATM    4  H           1     -32.421  -3.675 -14.192  0.00  0.00     0.163 HD
ENDROOT
BRANCH   1   5
HETATM    5  C           1     -32.981  -4.508 -16.660  0.00  0.00     0.275 C 
BRANCH   5   6
HETATM    6  C           1     -31.532  -4.716 -16.237  0.00  0.00     0.046 C 
BRANCH   6   7
HETATM    7  C           1     -30.702  -5.120 -17.448  0.00  0.00    -0.020 C 
HETATM    8  C           1     -29.496  -4.198 -17.569  0.00  0.00     0.009 C 
HETATM    9  C           1     -30.228  -6.558 -17.281  0.00  0.00     0.009 C 
ENDBRANCH   6   7
ENDBRANCH   5   6
BRANCH   5  10
HETATM   10  N           1     -33.104  -3.206 -17.394  0.00  0.00    -0.066 N 
HETATM   11  H           1     -32.336  -2.563 -17.097  0.00  0.00     0.275 HD
HETATM   12  H           1     -34.028  -2.769 -17.175  0.00  0.00     0.275 HD
HETATM   13  H           1     -33.035  -3.378 -18.423  0.00  0.00     0.275 HD
ENDBRANCH   5  10
ENDBRANCH   1   5
BRANCH   2  14
HETATM   14  C           1     -34.224  -3.983 -13.074  0.00  0.00     0.186 C 
BRANCH  14  15
HETATM   15  C           1     -34.590  -2.555 -12.750  0.00  0.00     0.196 C 
HETATM   16  O           1     -34.099  -1.997 -11.746  0.00  0.00    -0.646 OA
HETATM   17  O           1     -35.385  -1.931 -13.487  0.00  0.00    -0.646 OA
ENDBRANCH  14  15
BRANCH  14  18
HETATM   18  C           1     -33.479  -4.596 -11.897  0.00  0.00     0.046 C 
BRANCH  18  19
HETATM   19  C           1     -34.475  -4.996 -10.817  0.00  0.00     0.116 C 
BRANCH  19  20
HETATM   20  C           1     -34.237  -6.432 -10.418  0.00  0.00     0.172 C 
HETATM   21  O           1     -33.181  -7.008 -10.759  0.00  0.00    -0.648 OA
HETATM   22  O           1     -35.094  -7.045  -9.747  0.00  0.00    -0.648 OA
ENDBRANCH  19  20
ENDBRANCH  18  19
ENDBRANCH  14  18
ENDBRANCH   2  14
TORSDOF 9
ENDMDL
MODEL 8
REMARK VINA RESULT:      -6.0     16.169     18.161
REMARK  9 active torsions:
REMARK  status: ('A' for Active; 'I' for Inactive)
REMARK       I    between atoms: C_2  and  N_3 
REMARK    1  A    between atoms: C_2  and  C_18 
REMARK    2  A    between atoms: N_3  and  C_21 
REMARK    3  A    between atoms: C_6  and  C_7 
REMARK    4  A    between atoms: C_7  and  C_18 
REMARK    5  A    between atoms: C_8  and  C_14 
REMARK    6  A    between atoms: C_14  and  C_22 
REMARK    7  A    between atoms: C_17  and  C_21 
REMARK    8  A    between atoms: C_18  and  N_19 
REMARK    9  A    between atoms: C_21  and  C_22 
ROOT
HETATM    1  C           1     -20.917  -7.509  -5.169  0.00  0.00     0.249 C 
HETATM    2  N           1     -21.676  -8.115  -4.205  0.00  0.00    -0.345 N 
HETATM    3  O           1     -19.831  -7.955  -5.452  0.00  0.00    -0.271 OA
HETATM    4  H           1     -22.586  -7.741  -3.967  0.00  0.00     0.163 HD
ENDROOT
BRANCH   1   5
HETATM    5  C           1     -21.436  -6.282  -5.877  0.00  0.00     0.275 C 
BRANCH   5   6
HETATM    6  C           1     -20.495  -5.112  -5.623  0.00  0.00     0.046 C 
BRANCH   6   7
HETATM    7  C           1     -20.201  -4.402  -6.938  0.00  0.00    -0.020 C 
HETATM    8  C           1     -20.073  -5.430  -8.054  0.00  0.00     0.009 C 
HETATM    9  C           1     -21.339  -3.442  -7.260  0.00  0.00     0.009 C 
ENDBRANCH   6   7
ENDBRANCH   5   6
BRANCH   5  10
HETATM   10  N           1     -22.803  -5.945  -5.357  0.00  0.00    -0.066 N 
HETATM   11  H           1     -23.517  -6.524  -5.853  0.00  0.00     0.275 HD
HETATM   12  H           1     -22.998  -4.932  -5.525  0.00  0.00     0.275 HD
HETATM   13  H           1     -22.844  -6.144  -4.333  0.00  0.00     0.275 HD
ENDBRANCH   5  10
ENDBRANCH   1   5
BRANCH   2  14
HETATM   14  C           1     -21.178  -9.294  -3.523  0.00  0.00     0.186 C 
BRANCH  14  15
HETATM   15  C           1     -21.900 -10.515  -4.039  0.00  0.00     0.196 C 
HETATM   16  O           1     -21.523 -11.064  -5.096  0.00  0.00    -0.646 OA
HETATM   17  O           1     -22.875 -10.977  -3.407  0.00  0.00    -0.646 OA
ENDBRANCH  14  15
BRANCH  14  18
HETATM   18  C           1     -21.418  -9.155  -2.026  0.00  0.00     0.046 C 
BRANCH  18  19
HETATM   19  C           1     -20.964  -7.778  -1.563  0.00  0.00     0.116 C 
BRANCH  19  20
HETATM   20  C           1     -22.168  -6.890  -1.364  0.00  0.00     0.172 C 
HETATM   21  O           1     -22.413  -5.978  -2.182  0.00  0.00    -0.648 OA
HETATM   22  O           1     -22.919  -7.068  -0.381  0.00  0.00    -0.648 OA
ENDBRANCH  19  20
ENDBRANCH  18  19
ENDBRANCH  14  18
ENDBRANCH   2  14
TORSDOF 9
ENDMDL
MODEL 9
REMARK VINA RESULT:      -6.0      2.560      5.529
REMARK  9 active torsions:
REMARK  status: ('A' for Active; 'I' for Inactive)
REMARK       I    between atoms: C_2  and  N_3 
REMARK    1  A    between atoms: C_2  and  C_18 
REMARK    2  A    between atoms: N_3  and  C_21 
REMARK    3  A    between atoms: C_6  and  C_7 
REMARK    4  A    between atoms: C_7  and  C_18 
REMARK    5  A    between atoms: C_8  and  C_14 
REMARK    6  A    between atoms: C_14  and  C_22 
REMARK    7  A    between atoms: C_17  and  C_21 
REMARK    8  A    between atoms: C_18  and  N_19 
REMARK    9  A    between atoms: C_21  and  C_22 
ROOT
HETATM    1  C           1     -36.703  -0.022 -12.834  0.00  0.00     0.249 C 
HETATM    2  N           1     -36.151   0.073 -11.585  0.00  0.00    -0.345 N 
HETATM    3  O           1     -37.828  -0.444 -12.966  0.00  0.00    -0.271 OA
HETATM    4  H           1     -35.209   0.426 -11.473  0.00  0.00     0.163 HD
ENDROOT
BRANCH   1   5
HETATM    5  C           1     -35.907   0.397 -14.045  0.00  0.00     0.275 C 
BRANCH   5   6
HETATM    6  C           1     -35.383  -0.839 -14.763  0.00  0.00     0.046 C 
BRANCH   6   7
HETATM    7  C           1     -35.714  -0.745 -16.246  0.00  0.00    -0.020 C 
HETATM    8  C           1     -35.092  -1.924 -16.982  0.00  0.00     0.009 C 
HETATM    9  C           1     -37.225  -0.771 -16.430  0.00  0.00     0.009 C 
ENDBRANCH   6   7
ENDBRANCH   5   6
BRANCH   5  10
HETATM   10  N           1     -34.752   1.251 -13.612  0.00  0.00    -0.066 N 
HETATM   11  H           1     -34.518   1.043 -12.616  0.00  0.00     0.275 HD
HETATM   12  H           1     -35.011   2.260 -13.706  0.00  0.00     0.275 HD
HETATM   13  H           1     -33.923   1.047 -14.214  0.00  0.00     0.275 HD
ENDBRANCH   5  10
ENDBRANCH   1   5
BRANCH   2  14
HETATM   14  C           1     -36.916  -0.330 -10.421  0.00  0.00     0.186 C 
BRANCH  14  15
HETATM   15  C           1     -37.044   0.838  -9.474  0.00  0.00     0.196 C 
HETATM   16  O           1     -37.998   1.636  -9.592  0.00  0.00    -0.646 OA
HETATM   17  O           1     -36.195   1.007  -8.572  0.00  0.00    -0.646 OA
ENDBRANCH  14  15
BRANCH  14  18
HETATM   18  C           1     -36.203  -1.478  -9.718  0.00  0.00     0.046 C 
BRANCH  18  19
HETATM   19  C           1     -35.696  -2.473 -10.754  0.00  0.00     0.116 C 
BRANCH  19  20
HETATM   20  C           1     -34.198  -2.605 -10.633  0.00  0.00     0.172 C 
HETATM   21  O           1     -33.474  -1.588 -10.692  0.00  0.00    -0.648 OA
HETATM   22  O           1     -33.681  -3.732 -10.475  0.00  0.00    -0.648 OA
ENDBRANCH  19  20
ENDBRANCH  18  19
ENDBRANCH  14  18
ENDBRANCH   2  14
TORSDOF 9
ENDMDL
