MODEL 1
REMARK VINA RESULT:      -7.2      0.000      0.000
REMARK  8 active torsions:
REMARK  status: ('A' for Active; 'I' for Inactive)
REMARK       I    between atoms: C_2  and  N_11 
REMARK    1  A    between atoms: C_2  and  C_12 
REMARK    2  A    between atoms: N_5  and  C_22 
REMARK       I    between atoms: N_5  and  C_23 
REMARK    3  A    between atoms: C_6  and  C_7 
REMARK    4  A    between atoms: C_6  and  C_19 
REMARK    5  A    between atoms: C_7  and  C_23 
REMARK    6  A    between atoms: C_7  and  N_14 
REMARK    7  A    between atoms: C_12  and  C_22 
REMARK    8  A    between atoms: C_21  and  C_22 
ROOT
HETATM    1  H           1     -33.977  -0.875 -14.097  0.00  0.00     0.163 HD
HETATM    2  N           1     -34.979  -0.806 -13.971  0.00  0.00    -0.344 N 
HETATM    3  O           1     -36.753  -1.187 -12.668  0.00  0.00    -0.271 OA
HETATM    4  C           1     -35.557  -1.268 -12.818  0.00  0.00     0.249 C 
ENDROOT
BRANCH   2   5
HETATM    5  C           1     -35.802  -0.220 -15.011  0.00  0.00     0.194 C 
BRANCH   5   6
HETATM    6  C           1     -35.357   1.215 -15.261  0.00  0.00     0.138 C 
BRANCH   6   7
HETATM    7  C           1     -36.432   1.950 -16.023  0.00  0.00     0.217 C 
HETATM    8  O           1     -36.143   2.907 -16.702  0.00  0.00    -0.274 OA
HETATM    9  N           1     -37.733   1.534 -15.946  0.00  0.00    -0.370 N 
HETATM   10  H           1     -37.975   0.733 -15.377  0.00  0.00     0.159 HD
HETATM   11  H           1     -38.454   2.028 -16.457  0.00  0.00     0.159 HD
ENDBRANCH   6   7
ENDBRANCH   5   6
BRANCH   5  12
HETATM   12  C           1     -35.654  -1.022 -16.281  0.00  0.00     0.197 C 
HETATM   13  O           1     -34.623  -1.702 -16.473  0.00  0.00    -0.646 OA
HETATM   14  O           1     -36.563  -1.006 -17.139  0.00  0.00    -0.646 OA
ENDBRANCH   5  12
ENDBRANCH   2   5
BRANCH   4  15
HETATM   15  C           1     -34.700  -1.878 -11.737  0.00  0.00     0.275 C 
BRANCH  15  16
HETATM   16  C           1     -34.982  -3.372 -11.647  0.00  0.00     0.046 C 
BRANCH  16  17
HETATM   17  C           1     -33.809  -4.071 -10.970  0.00  0.00    -0.020 C 
HETATM   18  C           1     -32.661  -4.208 -11.962  0.00  0.00     0.009 C 
HETATM   19  C           1     -34.243  -5.453 -10.502  0.00  0.00     0.009 C 
ENDBRANCH  16  17
ENDBRANCH  15  16
BRANCH  15  20
HETATM   20  N           1     -35.019  -1.229 -10.422  0.00  0.00    -0.066 N 
HETATM   21  H           1     -35.475  -0.304 -10.592  0.00  0.00     0.275 HD
HETATM   22  H           1     -34.138  -1.090  -9.879  0.00  0.00     0.275 HD
HETATM   23  H           1     -35.670  -1.843  -9.880  0.00  0.00     0.275 HD
ENDBRANCH  15  20
ENDBRANCH   4  15
TORSDOF 8
ENDMDL
MODEL 2
REMARK VINA RESULT:      -6.9      1.889      2.870
REMARK  8 active torsions:
REMARK  status: ('A' for Active; 'I' for Inactive)
REMARK       I    between atoms: C_2  and  N_11 
REMARK    1  A    between atoms: C_2  and  C_12 
REMARK    2  A    between atoms: N_5  and  C_22 
REMARK       I    between atoms: N_5  and  C_23 
REMARK    3  A    between atoms: C_6  and  C_7 
REMARK    4  A    between atoms: C_6  and  C_19 
REMARK    5  A    between atoms: C_7  and  C_23 
REMARK    6  A    between atoms: C_7  and  N_14 
REMARK    7  A    between atoms: C_12  and  C_22 
REMARK    8  A    between atoms: C_21  and  C_22 
ROOT
HETATM    1  H           1     -35.311  -2.169 -14.671  0.00  0.00     0.163 HD
HETATM    2  N           1     -35.217  -1.631 -13.819  0.00  0.00    -0.344 N 
HETATM    3  O           1     -34.579  -1.571 -11.680  0.00  0.00    -0.271 OA
HETATM    4  C           1     -34.690  -2.213 -12.697  0.00  0.00     0.249 C 
ENDROOT
BRANCH   2   5
HETATM    5  C           1     -35.642  -0.245 -13.787  0.00  0.00     0.194 C 
BRANCH   5   6
HETATM    6  C           1     -35.429   0.383 -15.158  0.00  0.00     0.138 C 
BRANCH   6   7
HETATM    7  C           1     -35.542  -0.680 -16.222  0.00  0.00     0.217 C 
HETATM    8  O           1     -34.625  -1.443 -16.413  0.00  0.00    -0.274 OA
HETATM    9  N           1     -36.682  -0.781 -16.972  0.00  0.00    -0.370 N 
HETATM   10  H           1     -37.450  -0.142 -16.812  0.00  0.00     0.159 HD
HETATM   11  H           1     -36.757  -1.494 -17.686  0.00  0.00     0.159 HD
ENDBRANCH   6   7
ENDBRANCH   5   6
BRANCH   5  12
HETATM   12  C           1     -37.106  -0.177 -13.424  0.00  0.00     0.197 C 
HETATM   13  O           1     -37.966  -0.632 -14.208  0.00  0.00    -0.646 OA
HETATM   14  O           1     -37.457   0.334 -12.338  0.00  0.00    -0.646 OA
ENDBRANCH   5  12
ENDBRANCH   2   5
BRANCH   4  15
HETATM   15  C           1     -34.248  -3.655 -12.732  0.00  0.00     0.275 C 
BRANCH  15  16
HETATM   16  C           1     -33.256  -3.909 -11.604  0.00  0.00     0.046 C 
BRANCH  16  17
HETATM   17  C           1     -33.876  -4.856 -10.585  0.00  0.00    -0.020 C 
HETATM   18  C           1     -33.474  -6.288 -10.914  0.00  0.00     0.009 C 
HETATM   19  C           1     -35.394  -4.732 -10.634  0.00  0.00     0.009 C 
ENDBRANCH  16  17
ENDBRANCH  15  16
BRANCH  15  20
HETATM   20  N           1     -33.592  -3.944 -14.049  0.00  0.00    -0.066 N 
HETATM   21  H           1     -32.754  -4.550 -13.896  0.00  0.00     0.275 HD
HETATM   22  H           1     -33.297  -3.047 -14.496  0.00  0.00     0.275 HD
HETATM   23  H           1     -34.269  -4.439 -14.674  0.00  0.00     0.275 HD
ENDBRANCH  15  20
ENDBRANCH   4  15
TORSDOF 8
ENDMDL
MODEL 3
REMARK VINA RESULT:      -6.7      2.224      3.384
REMARK  8 active torsions:
REMARK  status: ('A' for Active; 'I' for Inactive)
REMARK       I    between atoms: C_2  and  N_11 
REMARK    1  A    between atoms: C_2  and  C_12 
REMARK    2  A    between atoms: N_5  and  C_22 
REMARK       I    between atoms: N_5  and  C_23 
REMARK    3  A    between atoms: C_6  and  C_7 
REMARK    4  A    between atoms: C_6  and  C_19 
REMARK    5  A    between atoms: C_7  and  C_23 
REMARK    6  A    between atoms: C_7  and  N_14 
REMARK    7  A    between atoms: C_12  and  C_22 
REMARK    8  A    between atoms: C_21  and  C_22 
ROOT
HETATM    1  H           1     -35.104  -0.757 -11.470  0.00  0.00     0.163 HD
HETATM    2  N           1     -35.169  -1.241 -12.356  0.00  0.00    -0.344 N 
HETATM    3  O           1     -34.582  -3.001 -13.599  0.00  0.00    -0.271 OA
HETATM    4  C           1     -34.505  -2.424 -12.540  0.00  0.00     0.249 C 
ENDROOT
BRANCH   2   5
HETATM    5  C           1     -35.966  -0.681 -13.431  0.00  0.00     0.194 C 
BRANCH   5   6
HETATM    6  C           1     -37.158   0.063 -12.843  0.00  0.00     0.138 C 
BRANCH   6   7
HETATM    7  C           1     -37.252  -0.223 -11.365  0.00  0.00     0.217 C 
HETATM    8  O           1     -37.777  -1.241 -10.979  0.00  0.00    -0.274 OA
HETATM    9  N           1     -36.743   0.669 -10.461  0.00  0.00    -0.370 N 
HETATM   10  H           1     -36.304   1.521 -10.784  0.00  0.00     0.159 HD
HETATM   11  H           1     -36.807   0.477  -9.469  0.00  0.00     0.159 HD
ENDBRANCH   6   7
ENDBRANCH   5   6
BRANCH   5  12
HETATM   12  C           1     -35.122   0.276 -14.236  0.00  0.00     0.197 C 
HETATM   13  O           1     -34.811  -0.005 -15.414  0.00  0.00    -0.646 OA
HETATM   14  O           1     -34.735   1.349 -13.725  0.00  0.00    -0.646 OA
ENDBRANCH   5  12
ENDBRANCH   2   5
BRANCH   4  15
HETATM   15  C           1     -33.675  -3.006 -11.422  0.00  0.00     0.275 C 
BRANCH  15  16
HETATM   16  C           1     -34.494  -4.047 -10.671  0.00  0.00     0.046 C 
BRANCH  16  17
HETATM   17  C           1     -34.167  -5.435 -11.207  0.00  0.00    -0.020 C 
HETATM   18  C           1     -34.549  -6.482 -10.168  0.00  0.00     0.009 C 
HETATM   19  C           1     -32.674  -5.529 -11.496  0.00  0.00     0.009 C 
ENDBRANCH  16  17
ENDBRANCH  15  16
BRANCH  15  20
HETATM   20  N           1     -33.272  -1.912 -10.479  0.00  0.00    -0.066 N 
HETATM   21  H           1     -33.374  -0.987 -10.954  0.00  0.00     0.275 HD
HETATM   22  H           1     -32.277  -2.048 -10.192  0.00  0.00     0.275 HD
HETATM   23  H           1     -33.886  -1.938  -9.633  0.00  0.00     0.275 HD
ENDBRANCH  15  20
ENDBRANCH   4  15
TORSDOF 8
ENDMDL
MODEL 4
REMARK VINA RESULT:      -6.6     13.189     15.312
REMARK  8 active torsions:
REMARK  status: ('A' for Active; 'I' for Inactive)
REMARK       I    between atoms: C_2  and  N_11 
REMARK    1  A    between atoms: C_2  and  C_12 
REMARK    2  A    between atoms: N_5  and  C_22 
REMARK       I    between atoms: N_5  and  C_23 
REMARK    3  A    between atoms: C_6  and  C_7 
REMARK    4  A    between atoms: C_6  and  C_19 
REMARK    5  A    between atoms: C_7  and  C_23 
REMARK    6  A    between atoms: C_7  and  N_14 
REMARK    7  A    between atoms: C_12  and  C_22 
REMARK    8  A    between atoms: C_21  and  C_22 
ROOT
HETATM    1  H           1     -22.423  -5.922  -9.164  0.00  0.00     0.163 HD
HETATM    2  N           1     -22.292  -4.972  -8.840  0.00  0.00    -0.344 N 
HETATM    3  O           1     -21.499  -3.602  -7.265  0.00  0.00    -0.271 OA
HETATM    4  C           1     -21.654  -4.736  -7.651  0.00  0.00     0.249 C 
ENDROOT
BRANCH   2   5
HETATM    5  C           1     -22.779  -3.862  -9.635  0.00  0.00     0.194 C 
BRANCH   5   6
HETATM    6  C           1     -22.264  -3.995 -11.062  0.00  0.00     0.138 C 
BRANCH   6   7
HETATM    7  C           1     -20.765  -3.826 -11.075  0.00  0.00     0.217 C 
HETATM    8  O           1     -20.050  -4.747 -10.756  0.00  0.00    -0.274 OA
HETATM    9  N           1     -20.214  -2.630 -11.446  0.00  0.00    -0.370 N 
HETATM   10  H           1     -20.812  -1.858 -11.712  0.00  0.00     0.159 HD
HETATM   11  H           1     -19.208  -2.516 -11.454  0.00  0.00     0.159 HD
ENDBRANCH   6   7
ENDBRANCH   5   6
BRANCH   5  12
HETATM   12  C           1     -24.288  -3.874  -9.642  0.00  0.00     0.197 C 
HETATM   13  O           1     -24.922  -2.808  -9.483  0.00  0.00    -0.646 OA
HETATM   14  O           1     -24.904  -4.949  -9.806  0.00  0.00    -0.646 OA
ENDBRANCH   5  12
ENDBRANCH   2   5
BRANCH   4  15
HETATM   15  C           1     -21.147  -5.891  -6.824  0.00  0.00     0.275 C 
BRANCH  15  16
HETATM   16  C           1     -21.032  -5.462  -5.367  0.00  0.00     0.046 C 
BRANCH  16  17
HETATM   17  C           1     -21.890  -6.374  -4.500  0.00  0.00    -0.020 C 
HETATM   18  C           1     -21.513  -6.182  -3.036  0.00  0.00     0.009 C 
HETATM   19  C           1     -21.652  -7.825  -4.899  0.00  0.00     0.009 C 
ENDBRANCH  16  17
ENDBRANCH  15  16
BRANCH  15  20
HETATM   20  N           1     -19.798  -6.311  -7.329  0.00  0.00    -0.066 N 
HETATM   21  H           1     -19.550  -5.747  -8.173  0.00  0.00     0.275 HD
HETATM   22  H           1     -19.820  -7.325  -7.581  0.00  0.00     0.275 HD
HETATM   23  H           1     -19.082  -6.153  -6.582  0.00  0.00     0.275 HD
ENDBRANCH  15  20
ENDBRANCH   4  15
TORSDOF 8
ENDMDL
MODEL 5
REMARK VINA RESULT:      -6.5      9.750     11.459
REMARK  8 active torsions:
REMARK  status: ('A' for Active; 'I' for Inactive)
REMARK       I    between atoms: C_2  and  N_11 
REMARK    1  A    between atoms: C_2  and  C_12 
REMARK    2  A    between atoms: N_5  and  C_22 
REMARK       I    between atoms: N_5  and  C_23 
REMARK    3  A    between atoms: C_6  and  C_7 
REMARK    4  A    between atoms: C_6  and  C_19 
REMARK    5  A    between atoms: C_7  and  C_23 
REMARK    6  A    between atoms: C_7  and  N_14 
REMARK    7  A    between atoms: C_12  and  C_22 
REMARK    8  A    between atoms: C_21  and  C_22 
ROOT
HETATM    1  H           1     -27.543  -6.470 -19.642  0.00  0.00     0.163 HD
HETATM    2  N           1     -27.435  -6.323 -18.647  0.00  0.00    -0.344 N 
HETATM    3  O           1     -26.055  -6.126 -16.902  0.00  0.00    -0.271 OA
HETATM    4  C           1     -26.183  -6.300 -18.090  0.00  0.00     0.249 C 
ENDROOT
BRANCH   2   5
HETATM    5  C           1     -28.604  -6.138 -17.810  0.00  0.00     0.194 C 
BRANCH   5   6
HETATM    6  C           1     -29.424  -4.968 -18.338  0.00  0.00     0.138 C 
BRANCH   6   7
HETATM    7  C           1     -29.175  -3.751 -17.480  0.00  0.00     0.217 C 
HETATM    8  O           1     -28.169  -3.676 -16.817  0.00  0.00    -0.274 OA
HETATM    9  N           1     -30.089  -2.733 -17.455  0.00  0.00    -0.370 N 
HETATM   10  H           1     -30.932  -2.796 -18.011  0.00  0.00     0.159 HD
HETATM   11  H           1     -29.922  -1.917 -16.880  0.00  0.00     0.159 HD
ENDBRANCH   6   7
ENDBRANCH   5   6
BRANCH   5  12
HETATM   12  C           1     -29.443  -7.392 -17.835  0.00  0.00     0.197 C 
HETATM   13  O           1     -29.409  -8.185 -16.869  0.00  0.00    -0.646 OA
HETATM   14  O           1     -30.172  -7.638 -18.821  0.00  0.00    -0.646 OA
ENDBRANCH   5  12
ENDBRANCH   2   5
BRANCH   4  15
HETATM   15  C           1     -24.966  -6.493 -18.961  0.00  0.00     0.275 C 
BRANCH  15  16
HETATM   16  C           1     -25.387  -6.520 -20.424  0.00  0.00     0.046 C 
BRANCH  16  17
HETATM   17  C           1     -25.206  -7.927 -20.980  0.00  0.00    -0.020 C 
HETATM   18  C           1     -24.301  -7.874 -22.204  0.00  0.00     0.009 C 
HETATM   19  C           1     -26.563  -8.495 -21.375  0.00  0.00     0.009 C 
ENDBRANCH  16  17
ENDBRANCH  15  16
BRANCH  15  20
HETATM   20  N           1     -24.302  -7.791 -18.608  0.00  0.00    -0.066 N 
HETATM   21  H           1     -23.939  -7.742 -17.630  0.00  0.00     0.275 HD
HETATM   22  H           1     -23.509  -7.966 -19.266  0.00  0.00     0.275 HD
HETATM   23  H           1     -24.996  -8.569 -18.684  0.00  0.00     0.275 HD
ENDBRANCH  15  20
ENDBRANCH   4  15
TORSDOF 8
ENDMDL
MODEL 6
REMARK VINA RESULT:      -5.8     15.099     17.640
REMARK  8 active torsions:
REMARK  status: ('A' for Active; 'I' for Inactive)
REMARK       I    between atoms: C_2  and  N_11 
REMARK    1  A    between atoms: C_2  and  C_12 
REMARK    2  A    between atoms: N_5  and  C_22 
REMARK       I    between atoms: N_5  and  C_23 
REMARK    3  A    between atoms: C_6  and  C_7 
REMARK    4  A    between atoms: C_6  and  C_19 
REMARK    5  A    between atoms: C_7  and  C_23 
REMARK    6  A    between atoms: C_7  and  N_14 
REMARK    7  A    between atoms: C_12  and  C_22 
REMARK    8  A    between atoms: C_21  and  C_22 
ROOT
HETATM    1  H           1     -22.523  -6.857  -6.678  0.00  0.00     0.163 HD
HETATM    2  N           1     -21.858  -6.196  -6.298  0.00  0.00    -0.344 N 
HETATM    3  O           1     -20.875  -4.197  -6.458  0.00  0.00    -0.271 OA
HETATM    4  C           1     -21.671  -4.986  -6.911  0.00  0.00     0.249 C 
ENDROOT
BRANCH   2   5
HETATM    5  C           1     -21.102  -6.532  -5.108  0.00  0.00     0.194 C 
BRANCH   5   6
HETATM    6  C           1     -22.013  -7.232  -4.109  0.00  0.00     0.138 C 
BRANCH   6   7
HETATM    7  C           1     -21.700  -6.746  -2.714  0.00  0.00     0.217 C 
HETATM    8  O           1     -22.248  -5.761  -2.281  0.00  0.00    -0.274 OA
HETATM    9  N           1     -20.797  -7.423  -1.941  0.00  0.00    -0.370 N 
HETATM   10  H           1     -20.338  -8.249  -2.304  0.00  0.00     0.159 HD
HETATM   11  H           1     -20.587  -7.097  -1.005  0.00  0.00     0.159 HD
ENDBRANCH   6   7
ENDBRANCH   5   6
BRANCH   5  12
HETATM   12  C           1     -19.962  -7.449  -5.478  0.00  0.00     0.197 C 
HETATM   13  O           1     -19.381  -7.311  -6.576  0.00  0.00    -0.646 OA
HETATM   14  O           1     -19.599  -8.346  -4.687  0.00  0.00    -0.646 OA
ENDBRANCH   5  12
ENDBRANCH   2   5
BRANCH   4  15
HETATM   15  C           1     -22.458  -4.637  -8.150  0.00  0.00     0.275 C 
BRANCH  15  16
HETATM   16  C           1     -21.686  -3.613  -8.971  0.00  0.00     0.046 C 
BRANCH  16  17
HETATM   17  C           1     -21.335  -4.210 -10.328  0.00  0.00    -0.020 C 
HETATM   18  C           1     -19.939  -4.817 -10.268  0.00  0.00     0.009 C 
HETATM   19  C           1     -21.367  -3.117 -11.388  0.00  0.00     0.009 C 
ENDBRANCH  16  17
ENDBRANCH  15  16
BRANCH  15  20
HETATM   20  N           1     -23.785  -4.062  -7.753  0.00  0.00    -0.066 N 
HETATM   21  H           1     -24.132  -3.431  -8.510  0.00  0.00     0.275 HD
HETATM   22  H           1     -23.677  -3.517  -6.867  0.00  0.00     0.275 HD
HETATM   23  H           1     -24.470  -4.837  -7.604  0.00  0.00     0.275 HD
ENDBRANCH  15  20
ENDBRANCH   4  15
TORSDOF 8
ENDMDL
MODEL 7
REMARK VINA RESULT:      -5.8      9.628     11.654
REMARK  8 active torsions:
REMARK  status: ('A' for Active; 'I' for Inactive)
REMARK       I    between atoms: C_2  and  N_11 
REMARK    1  A    between atoms: C_2  and  C_12 
REMARK    2  A    between atoms: N_5  and  C_22 
REMARK       I    between atoms: N_5  and  C_23 
REMARK    3  A    between atoms: C_6  and  C_7 
REMARK    4  A    between atoms: C_6  and  C_19 
REMARK    5  A    between atoms: C_7  and  C_23 
REMARK    6  A    between atoms: C_7  and  N_14 
REMARK    7  A    between atoms: C_12  and  C_22 
REMARK    8  A    between atoms: C_21  and  C_22 
ROOT
HETATM    1  H           1     -26.708  -4.897 -18.381  0.00  0.00     0.163 HD
HETATM    2  N           1     -26.745  -5.845 -18.029  0.00  0.00    -0.344 N 
HETATM    3  O           1     -27.544  -7.267 -16.504  0.00  0.00    -0.271 OA
HETATM    4  C           1     -27.500  -6.136 -16.924  0.00  0.00     0.249 C 
ENDROOT
BRANCH   2   5
HETATM    5  C           1     -26.000  -6.895 -18.695  0.00  0.00     0.194 C 
BRANCH   5   6
HETATM    6  C           1     -25.936  -6.603 -20.188  0.00  0.00     0.138 C 
BRANCH   6   7
HETATM    7  C           1     -25.766  -7.896 -20.948  0.00  0.00     0.217 C 
HETATM    8  O           1     -26.737  -8.539 -21.270  0.00  0.00    -0.274 OA
HETATM    9  N           1     -24.514  -8.340 -21.273  0.00  0.00    -0.370 N 
HETATM   10  H           1     -23.700  -7.801 -21.004  0.00  0.00     0.159 HD
HETATM   11  H           1     -24.400  -9.207 -21.783  0.00  0.00     0.159 HD
ENDBRANCH   6   7
ENDBRANCH   5   6
BRANCH   5  12
HETATM   12  C           1     -24.600  -6.952 -18.133  0.00  0.00     0.197 C 
HETATM   13  O           1     -23.641  -6.507 -18.800  0.00  0.00    -0.646 OA
HETATM   14  O           1     -24.401  -7.443 -17.001  0.00  0.00    -0.646 OA
ENDBRANCH   5  12
ENDBRANCH   2   5
BRANCH   4  15
HETATM   15  C           1     -28.276  -5.043 -16.231  0.00  0.00     0.275 C 
BRANCH  15  16
HETATM   16  C           1     -29.665  -5.554 -15.874  0.00  0.00     0.046 C 
BRANCH  16  17
HETATM   17  C           1     -30.567  -5.476 -17.100  0.00  0.00    -0.020 C 
HETATM   18  C           1     -31.786  -4.622 -16.778  0.00  0.00     0.009 C 
HETATM   19  C           1     -31.017  -6.878 -17.490  0.00  0.00     0.009 C 
ENDBRANCH  16  17
ENDBRANCH  15  16
BRANCH  15  20
HETATM   20  N           1     -28.399  -3.861 -17.147  0.00  0.00    -0.066 N 
HETATM   21  H           1     -27.972  -3.022 -16.693  0.00  0.00     0.275 HD
HETATM   22  H           1     -29.408  -3.676 -17.344  0.00  0.00     0.275 HD
HETATM   23  H           1     -27.900  -4.062 -18.044  0.00  0.00     0.275 HD
ENDBRANCH  15  20
ENDBRANCH   4  15
TORSDOF 8
ENDMDL
MODEL 8
REMARK VINA RESULT:      -5.7     15.376     17.904
REMARK  8 active torsions:
REMARK  status: ('A' for Active; 'I' for Inactive)
REMARK       I    between atoms: C_2  and  N_11 
REMARK    1  A    between atoms: C_2  and  C_12 
REMARK    2  A    between atoms: N_5  and  C_22 
REMARK       I    between atoms: N_5  and  C_23 
REMARK    3  A    between atoms: C_6  and  C_7 
REMARK    4  A    between atoms: C_6  and  C_19 
REMARK    5  A    between atoms: C_7  and  C_23 
REMARK    6  A    between atoms: C_7  and  N_14 
REMARK    7  A    between atoms: C_12  and  C_22 
REMARK    8  A    between atoms: C_21  and  C_22 
ROOT
HETATM    1  H           1     -21.332  -6.663  -7.038  0.00  0.00     0.163 HD
HETATM    2  N           1     -20.913  -6.248  -6.216  0.00  0.00    -0.344 N 
HETATM    3  O           1     -20.079  -4.424  -5.234  0.00  0.00    -0.271 OA
HETATM    4  C           1     -20.581  -4.919  -6.215  0.00  0.00     0.249 C 
ENDROOT
BRANCH   2   5
HETATM    5  C           1     -20.662  -7.060  -5.042  0.00  0.00     0.194 C 
BRANCH   5   6
HETATM    6  C           1     -21.932  -7.145  -4.204  0.00  0.00     0.138 C 
BRANCH   6   7
HETATM    7  C           1     -21.614  -6.797  -2.771  0.00  0.00     0.217 C 
HETATM    8  O           1     -20.716  -7.365  -2.196  0.00  0.00    -0.274 OA
HETATM    9  N           1     -22.343  -5.838  -2.121  0.00  0.00    -0.370 N 
HETATM   10  H           1     -23.095  -5.362  -2.603  0.00  0.00     0.159 HD
HETATM   11  H           1     -22.130  -5.605  -1.160  0.00  0.00     0.159 HD
ENDBRANCH   6   7
ENDBRANCH   5   6
BRANCH   5  12
HETATM   12  C           1     -20.247  -8.447  -5.469  0.00  0.00     0.197 C 
HETATM   13  O           1     -19.037  -8.714  -5.632  0.00  0.00    -0.646 OA
HETATM   14  O           1     -21.113  -9.328  -5.659  0.00  0.00    -0.646 OA
ENDBRANCH   5  12
ENDBRANCH   2   5
BRANCH   4  15
HETATM   15  C           1     -20.841  -4.074  -7.437  0.00  0.00     0.275 C 
BRANCH  15  16
HETATM   16  C           1     -21.821  -4.795  -8.354  0.00  0.00     0.046 C 
BRANCH  16  17
HETATM   17  C           1     -22.369  -3.816  -9.384  0.00  0.00    -0.020 C 
HETATM   18  C           1     -23.886  -3.749  -9.262  0.00  0.00     0.009 C 
HETATM   19  C           1     -21.992  -4.285 -10.783  0.00  0.00     0.009 C 
ENDBRANCH  16  17
ENDBRANCH  15  16
BRANCH  15  20
HETATM   20  N           1     -19.552  -3.843  -8.168  0.00  0.00    -0.066 N 
HETATM   21  H           1     -18.775  -3.736  -7.477  0.00  0.00     0.275 HD
HETATM   22  H           1     -19.629  -2.975  -8.744  0.00  0.00     0.275 HD
HETATM   23  H           1     -19.354  -4.659  -8.791  0.00  0.00     0.275 HD
ENDBRANCH  15  20
ENDBRANCH   4  15
TORSDOF 8
ENDMDL
MODEL 9
REMARK VINA RESULT:      -5.7     15.437     18.366
REMARK  8 active torsions:
REMARK  status: ('A' for Active; 'I' for Inactive)
REMARK       I    between atoms: C_2  and  N_11 
REMARK    1  A    between atoms: C_2  and  C_12 
REMARK    2  A    between atoms: N_5  and  C_22 
REMARK       I    between atoms: N_5  and  C_23 
REMARK    3  A    between atoms: C_6  and  C_7 
REMARK    4  A    between atoms: C_6  and  C_19 
REMARK    5  A    between atoms: C_7  and  C_23 
REMARK    6  A    between atoms: C_7  and  N_14 
REMARK    7  A    between atoms: C_12  and  C_22 
REMARK    8  A    between atoms: C_21  and  C_22 
ROOT
HETATM    1  H           1     -20.004  -6.491  -4.920  0.00  0.00     0.163 HD
HETATM    2  N           1     -21.014  -6.440  -4.950  0.00  0.00    -0.344 N 
HETATM    3  O           1     -22.836  -5.512  -5.849  0.00  0.00    -0.271 OA
HETATM    4  C           1     -21.630  -5.574  -5.814  0.00  0.00     0.249 C 
ENDROOT
BRANCH   2   5
HETATM    5  C           1     -21.809  -7.283  -4.078  0.00  0.00     0.194 C 
BRANCH   5   6
HETATM    6  C           1     -21.333  -8.724  -4.195  0.00  0.00     0.138 C 
BRANCH   6   7
HETATM    7  C           1     -19.904  -8.746  -4.678  0.00  0.00     0.217 C 
HETATM    8  O           1     -19.665  -8.692  -5.861  0.00  0.00    -0.274 OA
HETATM    9  N           1     -18.877  -8.826  -3.777  0.00  0.00    -0.370 N 
HETATM   10  H           1     -19.077  -8.871  -2.785  0.00  0.00     0.159 HD
HETATM   11  H           1     -17.918  -8.840  -4.101  0.00  0.00     0.159 HD
ENDBRANCH   6   7
ENDBRANCH   5   6
BRANCH   5  12
HETATM   12  C           1     -21.656  -6.815  -2.651  0.00  0.00     0.197 C 
HETATM   13  O           1     -20.869  -7.408  -1.881  0.00  0.00    -0.646 OA
HETATM   14  O           1     -22.315  -5.837  -2.240  0.00  0.00    -0.646 OA
ENDBRANCH   5  12
ENDBRANCH   2   5
BRANCH   4  15
HETATM   15  C           1     -20.803  -4.697  -6.721  0.00  0.00     0.275 C 
BRANCH  15  16
HETATM   16  C           1     -20.837  -5.255  -8.137  0.00  0.00     0.046 C 
BRANCH  16  17
HETATM   17  C           1     -21.234  -4.152  -9.110  0.00  0.00    -0.020 C 
HETATM   18  C           1     -22.734  -4.223  -9.370  0.00  0.00     0.009 C 
HETATM   19  C           1     -20.482  -4.335 -10.421  0.00  0.00     0.009 C 
ENDBRANCH  16  17
ENDBRANCH  15  16
BRANCH  15  20
HETATM   20  N           1     -19.386  -4.667  -6.229  0.00  0.00    -0.066 N 
HETATM   21  H           1     -19.378  -4.717  -5.186  0.00  0.00     0.275 HD
HETATM   22  H           1     -18.928  -3.780  -6.539  0.00  0.00     0.275 HD
HETATM   23  H           1     -18.864  -5.484  -6.621  0.00  0.00     0.275 HD
ENDBRANCH  15  20
ENDBRANCH   4  15
TORSDOF 8
ENDMDL
