MODEL 1
REMARK VINA RESULT:      -7.3      0.000      0.000
REMARK  13 active torsions:
REMARK  status: ('A' for Active; 'I' for Inactive)
REMARK    1  A    between atoms: C_2  and  C_28 
REMARK    2  A    between atoms: C_2  and  C_3 
REMARK    3  A    between atoms: C_3  and  C_4 
REMARK    4  A    between atoms: C_4  and  C_5 
REMARK    5  A    between atoms: C_5  and  N_27 
REMARK    6  A    between atoms: N_6  and  C_12 
REMARK       I    between atoms: N_6  and  C_7 
REMARK    7  A    between atoms: C_7  and  C_28 
REMARK       I    between atoms: C_9  and  N_17 
REMARK       I    between atoms: C_9  and  N_24 
REMARK    8  A    between atoms: C_12  and  C_14 
REMARK    9  A    between atoms: C_12  and  C_29 
REMARK   10  A    between atoms: C_14  and  C_30 
REMARK   11  A    between atoms: C_23  and  N_26 
REMARK   12  A    between atoms: C_23  and  C_30 
REMARK   13  A    between atoms: C_28  and  N_32 
ROOT
HETATM    1  H           1     -36.277  -2.282 -12.628  0.00  0.00     0.163 HD
HETATM    2  N           1     -35.522  -1.899 -12.074  0.00  0.00    -0.345 N 
HETATM    3  C           1     -34.413  -2.656 -11.811  0.00  0.00     0.249 C 
HETATM    4  O           1     -33.511  -2.199 -11.149  0.00  0.00    -0.271 OA
ENDROOT
BRANCH   2   5
HETATM    5  C           1     -35.616  -0.547 -11.558  0.00  0.00     0.185 C 
BRANCH   5   6
HETATM    6  C           1     -35.284   0.443 -12.668  0.00  0.00     0.038 C 
BRANCH   6   7
HETATM    7  C           1     -36.298   0.302 -13.795  0.00  0.00     0.023 C 
BRANCH   7   8
HETATM    8  C           1     -35.596   0.479 -15.135  0.00  0.00     0.138 C 
BRANCH   8   9
HETATM    9  N           1     -34.927  -0.776 -15.508  0.00  0.00    -0.227 N 
HETATM   10  C           1     -35.290  -1.403 -16.545  0.00  0.00     0.665 C 
HETATM   11  N           1     -34.698  -2.512 -16.875  0.00  0.00    -0.235 N 
HETATM   12  N           1     -36.231  -0.950 -17.263  0.00  0.00    -0.235 N 
HETATM   13  H           1     -33.923  -2.886 -16.284  0.00  0.00     0.174 HD
HETATM   14  H           1     -34.999  -3.030 -17.732  0.00  0.00     0.174 HD
HETATM   15  H           1     -36.709  -0.053 -16.996  0.00  0.00     0.174 HD
HETATM   16  H           1     -36.532  -1.470 -18.123  0.00  0.00     0.174 HD
HETATM   17  H           1     -34.147  -1.152 -14.914  0.00  0.00     0.177 HD
ENDBRANCH   8   9
ENDBRANCH   7   8
ENDBRANCH   6   7
ENDBRANCH   5   6
BRANCH   5  18
HETATM   18  C           1     -37.018  -0.294 -11.062  0.00  0.00     0.196 C 
HETATM   19  O           1     -37.286   0.766 -10.457  0.00  0.00    -0.646 OA
HETATM   20  O           1     -37.912  -1.147 -11.256  0.00  0.00    -0.646 OA
ENDBRANCH   5  18
ENDBRANCH   2   5
BRANCH   3  21
HETATM   21  C           1     -34.315  -4.064 -12.347  0.00  0.00     0.274 C 
BRANCH  21  22
HETATM   22  C           1     -33.420  -4.894 -11.436  0.00  0.00     0.042 C 
BRANCH  22  23
HETATM   23  C           1     -34.270  -5.573 -10.370  0.00  0.00     0.004 C 
BRANCH  23  24
HETATM   24  C           1     -34.728  -6.935 -10.876  0.00  0.00     0.027 C 
BRANCH  24  25
HETATM   25  C           1     -34.490  -7.983  -9.797  0.00  0.00     0.229 C 
BRANCH  25  26
HETATM   26  N           1     -33.497  -8.993 -10.291  0.00  0.00    -0.079 N 
HETATM   27  H           1     -32.528  -8.627 -10.152  0.00  0.00     0.274 HD
HETATM   28  H           1     -33.612  -9.885  -9.758  0.00  0.00     0.274 HD
HETATM   29  H           1     -33.659  -9.173 -11.308  0.00  0.00     0.274 HD
ENDBRANCH  25  26
ENDBRANCH  24  25
ENDBRANCH  23  24
ENDBRANCH  22  23
ENDBRANCH  21  22
BRANCH  21  30
HETATM   30  N           1     -33.731  -4.032 -13.728  0.00  0.00    -0.067 N 
HETATM   31  H           1     -32.688  -4.066 -13.666  0.00  0.00     0.275 HD
HETATM   32  H           1     -34.074  -4.856 -14.271  0.00  0.00     0.275 HD
HETATM   33  H           1     -34.022  -3.151 -14.209  0.00  0.00     0.275 HD
ENDBRANCH  21  30
ENDBRANCH   3  21
TORSDOF 13
ENDMDL
MODEL 2
REMARK VINA RESULT:      -7.2      3.416      6.934
REMARK  13 active torsions:
REMARK  status: ('A' for Active; 'I' for Inactive)
REMARK    1  A    between atoms: C_2  and  C_28 
REMARK    2  A    between atoms: C_2  and  C_3 
REMARK    3  A    between atoms: C_3  and  C_4 
REMARK    4  A    between atoms: C_4  and  C_5 
REMARK    5  A    between atoms: C_5  and  N_27 
REMARK    6  A    between atoms: N_6  and  C_12 
REMARK       I    between atoms: N_6  and  C_7 
REMARK    7  A    between atoms: C_7  and  C_28 
REMARK       I    between atoms: C_9  and  N_17 
REMARK       I    between atoms: C_9  and  N_24 
REMARK    8  A    between atoms: C_12  and  C_14 
REMARK    9  A    between atoms: C_12  and  C_29 
REMARK   10  A    between atoms: C_14  and  C_30 
REMARK   11  A    between atoms: C_23  and  N_26 
REMARK   12  A    between atoms: C_23  and  C_30 
REMARK   13  A    between atoms: C_28  and  N_32 
ROOT
HETATM    1  H           1     -32.671  -3.225 -14.491  0.00  0.00     0.163 HD
HETATM    2  N           1     -33.511  -3.772 -14.349  0.00  0.00    -0.345 N 
HETATM    3  C           1     -34.037  -4.500 -15.382  0.00  0.00     0.249 C 
HETATM    4  O           1     -35.040  -5.152 -15.213  0.00  0.00    -0.271 OA
ENDROOT
BRANCH   2   5
HETATM    5  C           1     -34.157  -3.783 -13.052  0.00  0.00     0.185 C 
BRANCH   5   6
HETATM    6  C           1     -33.098  -3.826 -11.958  0.00  0.00     0.038 C 
BRANCH   6   7
HETATM    7  C           1     -33.648  -4.567 -10.747  0.00  0.00     0.023 C 
BRANCH   7   8
HETATM    8  C           1     -34.510  -5.733 -11.213  0.00  0.00     0.138 C 
BRANCH   8   9
HETATM    9  N           1     -33.771  -6.992 -11.036  0.00  0.00    -0.227 N 
HETATM   10  C           1     -34.192  -7.863 -10.220  0.00  0.00     0.665 C 
HETATM   11  N           1     -33.539  -8.976 -10.063  0.00  0.00    -0.235 N 
HETATM   12  N           1     -35.249  -7.651  -9.555  0.00  0.00    -0.235 N 
HETATM   13  H           1     -32.667  -9.151 -10.611  0.00  0.00     0.174 HD
HETATM   14  H           1     -33.886  -9.695  -9.389  0.00  0.00     0.174 HD
HETATM   15  H           1     -35.776  -6.752  -9.682  0.00  0.00     0.174 HD
HETATM   16  H           1     -35.597  -8.373  -8.878  0.00  0.00     0.174 HD
HETATM   17  H           1     -32.895  -7.168 -11.586  0.00  0.00     0.177 HD
ENDBRANCH   8   9
ENDBRANCH   7   8
ENDBRANCH   6   7
ENDBRANCH   5   6
BRANCH   5  18
HETATM   18  C           1     -34.992  -2.535 -12.895  0.00  0.00     0.196 C 
HETATM   19  O           1     -35.791  -2.433 -11.939  0.00  0.00    -0.646 OA
HETATM   20  O           1     -34.884  -1.605 -13.722  0.00  0.00    -0.646 OA
ENDBRANCH   5  18
ENDBRANCH   2   5
BRANCH   3  21
HETATM   21  C           1     -33.364  -4.488 -16.733  0.00  0.00     0.274 C 
BRANCH  21  22
HETATM   22  C           1     -31.857  -4.608 -16.552  0.00  0.00     0.042 C 
BRANCH  22  23
HETATM   23  C           1     -31.151  -3.720 -17.569  0.00  0.00     0.004 C 
BRANCH  23  24
HETATM   24  C           1     -29.729  -4.223 -17.782  0.00  0.00     0.027 C 
BRANCH  24  25
HETATM   25  C           1     -28.741  -3.194 -17.248  0.00  0.00     0.229 C 
BRANCH  25  26
HETATM   26  N           1     -29.327  -1.820 -17.385  0.00  0.00    -0.079 N 
HETATM   27  H           1     -29.552  -1.441 -16.437  0.00  0.00     0.274 HD
HETATM   28  H           1     -28.636  -1.192 -17.855  0.00  0.00     0.274 HD
HETATM   29  H           1     -30.199  -1.869 -17.958  0.00  0.00     0.274 HD
ENDBRANCH  25  26
ENDBRANCH  24  25
ENDBRANCH  23  24
ENDBRANCH  22  23
ENDBRANCH  21  22
BRANCH  21  30
HETATM   30  N           1     -33.683  -3.202 -17.437  0.00  0.00    -0.067 N 
HETATM   31  H           1     -34.279  -2.606 -16.820  0.00  0.00     0.275 HD
HETATM   32  H           1     -32.795  -2.696 -17.657  0.00  0.00     0.275 HD
HETATM   33  H           1     -34.196  -3.408 -18.324  0.00  0.00     0.275 HD
ENDBRANCH  21  30
ENDBRANCH   3  21
TORSDOF 13
ENDMDL
MODEL 3
REMARK VINA RESULT:      -6.9      2.455      3.786
REMARK  13 active torsions:
REMARK  status: ('A' for Active; 'I' for Inactive)
REMARK    1  A    between atoms: C_2  and  C_28 
REMARK    2  A    between atoms: C_2  and  C_3 
REMARK    3  A    between atoms: C_3  and  C_4 
REMARK    4  A    between atoms: C_4  and  C_5 
REMARK    5  A    between atoms: C_5  and  N_27 
REMARK    6  A    between atoms: N_6  and  C_12 
REMARK       I    between atoms: N_6  and  C_7 
REMARK    7  A    between atoms: C_7  and  C_28 
REMARK       I    between atoms: C_9  and  N_17 
REMARK       I    between atoms: C_9  and  N_24 
REMARK    8  A    between atoms: C_12  and  C_14 
REMARK    9  A    between atoms: C_12  and  C_29 
REMARK   10  A    between atoms: C_14  and  C_30 
REMARK   11  A    between atoms: C_23  and  N_26 
REMARK   12  A    between atoms: C_23  and  C_30 
REMARK   13  A    between atoms: C_28  and  N_32 
ROOT
HETATM    1  H           1     -35.353  -2.061 -14.210  0.00  0.00     0.163 HD
HETATM    2  N           1     -35.391  -1.051 -14.157  0.00  0.00    -0.345 N 
HETATM    3  C           1     -34.968  -0.407 -13.025  0.00  0.00     0.249 C 
HETATM    4  O           1     -35.013   0.798 -12.962  0.00  0.00    -0.271 OA
ENDROOT
BRANCH   2   5
HETATM    5  C           1     -35.894  -0.285 -15.280  0.00  0.00     0.185 C 
BRANCH   5   6
HETATM    6  C           1     -35.425  -0.926 -16.581  0.00  0.00     0.038 C 
BRANCH   6   7
HETATM    7  C           1     -35.057  -2.381 -16.327  0.00  0.00     0.023 C 
BRANCH   7   8
HETATM    8  C           1     -33.949  -2.800 -17.285  0.00  0.00     0.138 C 
BRANCH   8   9
HETATM    9  N           1     -33.276  -3.998 -16.764  0.00  0.00    -0.227 N 
HETATM   10  C           1     -32.032  -4.152 -16.938  0.00  0.00     0.665 C 
HETATM   11  N           1     -31.437  -5.212 -16.478  0.00  0.00    -0.235 N 
HETATM   12  N           1     -31.366  -3.273 -17.561  0.00  0.00    -0.235 N 
HETATM   13  H           1     -31.986  -5.937 -15.964  0.00  0.00     0.174 HD
HETATM   14  H           1     -30.410  -5.338 -16.622  0.00  0.00     0.174 HD
HETATM   15  H           1     -31.847  -2.417 -17.933  0.00  0.00     0.174 HD
HETATM   16  H           1     -30.334  -3.400 -17.706  0.00  0.00     0.174 HD
HETATM   17  H           1     -33.827  -4.727 -16.248  0.00  0.00     0.177 HD
ENDBRANCH   8   9
ENDBRANCH   7   8
ENDBRANCH   6   7
ENDBRANCH   5   6
BRANCH   5  18
HETATM   18  C           1     -37.402  -0.269 -15.243  0.00  0.00     0.196 C 
HETATM   19  O           1     -38.010  -0.767 -14.271  0.00  0.00    -0.646 OA
HETATM   20  O           1     -38.044   0.242 -16.186  0.00  0.00    -0.646 OA
ENDBRANCH   5  18
ENDBRANCH   2   5
BRANCH   3  21
HETATM   21  C           1     -34.444  -1.204 -11.855  0.00  0.00     0.274 C 
BRANCH  21  22
HETATM   22  C           1     -34.275  -2.661 -12.267  0.00  0.00     0.042 C 
BRANCH  22  23
HETATM   23  C           1     -33.265  -3.334 -11.346  0.00  0.00     0.004 C 
BRANCH  23  24
HETATM   24  C           1     -33.965  -4.409 -10.524  0.00  0.00     0.027 C 
BRANCH  24  25
HETATM   25  C           1     -33.606  -5.783 -11.074  0.00  0.00     0.229 C 
BRANCH  25  26
HETATM   26  N           1     -34.681  -6.243 -12.012  0.00  0.00    -0.079 N 
HETATM   27  H           1     -35.505  -5.604 -11.940  0.00  0.00     0.274 HD
HETATM   28  H           1     -34.318  -6.232 -12.992  0.00  0.00     0.274 HD
HETATM   29  H           1     -34.971  -7.216 -11.760  0.00  0.00     0.274 HD
ENDBRANCH  25  26
ENDBRANCH  24  25
ENDBRANCH  23  24
ENDBRANCH  22  23
ENDBRANCH  21  22
BRANCH  21  30
HETATM   30  N           1     -35.418  -1.117 -10.717  0.00  0.00    -0.067 N 
HETATM   31  H           1     -36.391  -1.220 -11.083  0.00  0.00     0.275 HD
HETATM   32  H           1     -35.221  -1.879 -10.030  0.00  0.00     0.275 HD
HETATM   33  H           1     -35.320  -0.189 -10.245  0.00  0.00     0.275 HD
ENDBRANCH  21  30
ENDBRANCH   3  21
TORSDOF 13
ENDMDL
MODEL 4
REMARK VINA RESULT:      -6.3      3.757      6.867
REMARK  13 active torsions:
REMARK  status: ('A' for Active; 'I' for Inactive)
REMARK    1  A    between atoms: C_2  and  C_28 
REMARK    2  A    between atoms: C_2  and  C_3 
REMARK    3  A    between atoms: C_3  and  C_4 
REMARK    4  A    between atoms: C_4  and  C_5 
REMARK    5  A    between atoms: C_5  and  N_27 
REMARK    6  A    between atoms: N_6  and  C_12 
REMARK       I    between atoms: N_6  and  C_7 
REMARK    7  A    between atoms: C_7  and  C_28 
REMARK       I    between atoms: C_9  and  N_17 
REMARK       I    between atoms: C_9  and  N_24 
REMARK    8  A    between atoms: C_12  and  C_14 
REMARK    9  A    between atoms: C_12  and  C_29 
REMARK   10  A    between atoms: C_14  and  C_30 
REMARK   11  A    between atoms: C_23  and  N_26 
REMARK   12  A    between atoms: C_23  and  C_30 
REMARK   13  A    between atoms: C_28  and  N_32 
ROOT
HETATM    1  H           1     -32.241  -3.780 -14.132  0.00  0.00     0.163 HD
HETATM    2  N           1     -33.218  -4.041 -14.170  0.00  0.00    -0.345 N 
HETATM    3  C           1     -33.770  -4.462 -15.350  0.00  0.00     0.249 C 
HETATM    4  O           1     -34.937  -4.773 -15.395  0.00  0.00    -0.271 OA
ENDROOT
BRANCH   2   5
HETATM    5  C           1     -34.035  -3.968 -12.974  0.00  0.00     0.185 C 
BRANCH   5   6
HETATM    6  C           1     -33.203  -4.382 -11.767  0.00  0.00     0.038 C 
BRANCH   6   7
HETATM    7  C           1     -34.103  -5.052 -10.736  0.00  0.00     0.023 C 
BRANCH   7   8
HETATM    8  C           1     -34.671  -6.339 -11.318  0.00  0.00     0.138 C 
BRANCH   8   9
HETATM    9  N           1     -34.978  -7.277 -10.228  0.00  0.00    -0.227 N 
HETATM   10  C           1     -34.128  -8.149  -9.885  0.00  0.00     0.665 C 
HETATM   11  N           1     -34.399  -8.979  -8.922  0.00  0.00    -0.235 N 
HETATM   12  N           1     -33.012  -8.215 -10.481  0.00  0.00    -0.235 N 
HETATM   13  H           1     -35.319  -8.925  -8.430  0.00  0.00     0.174 HD
HETATM   14  H           1     -33.697  -9.699  -8.639  0.00  0.00     0.174 HD
HETATM   15  H           1     -32.793  -7.545 -11.260  0.00  0.00     0.174 HD
HETATM   16  H           1     -32.307  -8.938 -10.197  0.00  0.00     0.174 HD
HETATM   17  H           1     -35.903  -7.223  -9.734  0.00  0.00     0.177 HD
ENDBRANCH   8   9
ENDBRANCH   7   8
ENDBRANCH   6   7
ENDBRANCH   5   6
BRANCH   5  18
HETATM   18  C           1     -34.524  -2.553 -12.785  0.00  0.00     0.196 C 
HETATM   19  O           1     -35.104  -1.960 -13.721  0.00  0.00    -0.646 OA
HETATM   20  O           1     -34.349  -1.973 -11.691  0.00  0.00    -0.646 OA
ENDBRANCH   5  18
ENDBRANCH   2   5
BRANCH   3  21
HETATM   21  C           1     -32.921  -4.538 -16.596  0.00  0.00     0.274 C 
BRANCH  21  22
HETATM   22  C           1     -31.467  -4.772 -16.207  0.00  0.00     0.042 C 
BRANCH  22  23
HETATM   23  C           1     -30.583  -4.641 -17.440  0.00  0.00     0.004 C 
BRANCH  23  24
HETATM   24  C           1     -29.471  -5.680 -17.380  0.00  0.00     0.027 C 
BRANCH  24  25
HETATM   25  C           1     -29.888  -6.918 -18.163  0.00  0.00     0.229 C 
BRANCH  25  26
HETATM   26  N           1     -29.455  -8.148 -17.424  0.00  0.00    -0.079 N 
HETATM   27  H           1     -29.653  -8.031 -16.405  0.00  0.00     0.274 HD
HETATM   28  H           1     -29.979  -8.976 -17.787  0.00  0.00     0.274 HD
HETATM   29  H           1     -28.430  -8.297 -17.565  0.00  0.00     0.274 HD
ENDBRANCH  25  26
ENDBRANCH  24  25
ENDBRANCH  23  24
ENDBRANCH  22  23
ENDBRANCH  21  22
BRANCH  21  30
HETATM   30  N           1     -33.033  -3.249 -17.355  0.00  0.00    -0.067 N 
HETATM   31  H           1     -32.977  -2.446 -16.688  0.00  0.00     0.275 HD
HETATM   32  H           1     -32.252  -3.182 -18.046  0.00  0.00     0.275 HD
HETATM   33  H           1     -33.948  -3.220 -17.859  0.00  0.00     0.275 HD
ENDBRANCH  21  30
ENDBRANCH   3  21
TORSDOF 13
ENDMDL
MODEL 5
REMARK VINA RESULT:      -6.2     13.649     15.851
REMARK  13 active torsions:
REMARK  status: ('A' for Active; 'I' for Inactive)
REMARK    1  A    between atoms: C_2  and  C_28 
REMARK    2  A    between atoms: C_2  and  C_3 
REMARK    3  A    between atoms: C_3  and  C_4 
REMARK    4  A    between atoms: C_4  and  C_5 
REMARK    5  A    between atoms: C_5  and  N_27 
REMARK    6  A    between atoms: N_6  and  C_12 
REMARK       I    between atoms: N_6  and  C_7 
REMARK    7  A    between atoms: C_7  and  C_28 
REMARK       I    between atoms: C_9  and  N_17 
REMARK       I    between atoms: C_9  and  N_24 
REMARK    8  A    between atoms: C_12  and  C_14 
REMARK    9  A    between atoms: C_12  and  C_29 
REMARK   10  A    between atoms: C_14  and  C_30 
REMARK   11  A    between atoms: C_23  and  N_26 
REMARK   12  A    between atoms: C_23  and  C_30 
REMARK   13  A    between atoms: C_28  and  N_32 
ROOT
HETATM    1  H           1     -20.583  -4.565  -4.668  0.00  0.00     0.163 HD
HETATM    2  N           1     -21.049  -5.358  -5.090  0.00  0.00    -0.345 N 
HETATM    3  C           1     -21.475  -6.398  -4.309  0.00  0.00     0.249 C 
HETATM    4  O           1     -22.029  -7.345  -4.813  0.00  0.00    -0.271 OA
ENDROOT
BRANCH   2   5
HETATM    5  C           1     -21.263  -5.393  -6.523  0.00  0.00     0.185 C 
BRANCH   5   6
HETATM    6  C           1     -21.786  -4.040  -6.991  0.00  0.00     0.038 C 
BRANCH   6   7
HETATM    7  C           1     -22.947  -4.249  -7.954  0.00  0.00     0.023 C 
BRANCH   7   8
HETATM    8  C           1     -22.568  -3.716  -9.330  0.00  0.00     0.138 C 
BRANCH   8   9
HETATM    9  N           1     -23.353  -4.414 -10.359  0.00  0.00    -0.227 N 
HETATM   10  C           1     -22.847  -4.636 -11.498  0.00  0.00     0.665 C 
HETATM   11  N           1     -23.540  -5.253 -12.408  0.00  0.00    -0.235 N 
HETATM   12  N           1     -21.665  -4.257 -11.751  0.00  0.00    -0.235 N 
HETATM   13  H           1     -24.515  -5.565 -12.199  0.00  0.00     0.174 HD
HETATM   14  H           1     -23.122  -5.436 -13.348  0.00  0.00     0.174 HD
HETATM   15  H           1     -21.105  -3.759 -11.015  0.00  0.00     0.174 HD
HETATM   16  H           1     -21.245  -4.442 -12.695  0.00  0.00     0.174 HD
HETATM   17  H           1     -24.332  -4.728 -10.150  0.00  0.00     0.177 HD
ENDBRANCH   8   9
ENDBRANCH   7   8
ENDBRANCH   6   7
ENDBRANCH   5   6
BRANCH   5  18
HETATM   18  C           1     -19.960  -5.696  -7.220  0.00  0.00     0.196 C 
HETATM   19  O           1     -19.416  -6.812  -7.072  0.00  0.00    -0.646 OA
HETATM   20  O           1     -19.424  -4.830  -7.945  0.00  0.00    -0.646 OA
ENDBRANCH   5  18
ENDBRANCH   2   5
BRANCH   3  21
HETATM   21  C           1     -21.251  -6.362  -2.817  0.00  0.00     0.274 C 
BRANCH  21  22
HETATM   22  C           1     -20.909  -7.761  -2.320  0.00  0.00     0.042 C 
BRANCH  22  23
HETATM   23  C           1     -21.324  -7.898  -0.861  0.00  0.00     0.004 C 
BRANCH  23  24
HETATM   24  C           1     -21.749  -9.335  -0.587  0.00  0.00     0.027 C 
BRANCH  24  25
HETATM   25  C           1     -23.173  -9.349  -0.047  0.00  0.00     0.229 C 
BRANCH  25  26
HETATM   26  N           1     -23.475  -8.032   0.604  0.00  0.00    -0.079 N 
HETATM   27  H           1     -24.248  -7.556   0.086  0.00  0.00     0.274 HD
HETATM   28  H           1     -23.767  -8.192   1.595  0.00  0.00     0.274 HD
HETATM   29  H           1     -22.620  -7.430   0.586  0.00  0.00     0.274 HD
ENDBRANCH  25  26
ENDBRANCH  24  25
ENDBRANCH  23  24
ENDBRANCH  22  23
ENDBRANCH  21  22
BRANCH  21  30
HETATM   30  N           1     -22.498  -5.882  -2.137  0.00  0.00    -0.067 N 
HETATM   31  H           1     -23.083  -5.347  -2.818  0.00  0.00     0.275 HD
HETATM   32  H           1     -23.040  -6.702  -1.782  0.00  0.00     0.275 HD
HETATM   33  H           1     -22.242  -5.261  -1.336  0.00  0.00     0.275 HD
ENDBRANCH  21  30
ENDBRANCH   3  21
TORSDOF 13
ENDMDL
MODEL 6
REMARK VINA RESULT:      -6.0      6.875      9.837
REMARK  13 active torsions:
REMARK  status: ('A' for Active; 'I' for Inactive)
REMARK    1  A    between atoms: C_2  and  C_28 
REMARK    2  A    between atoms: C_2  and  C_3 
REMARK    3  A    between atoms: C_3  and  C_4 
REMARK    4  A    between atoms: C_4  and  C_5 
REMARK    5  A    between atoms: C_5  and  N_27 
REMARK    6  A    between atoms: N_6  and  C_12 
REMARK       I    between atoms: N_6  and  C_7 
REMARK    7  A    between atoms: C_7  and  C_28 
REMARK       I    between atoms: C_9  and  N_17 
REMARK       I    between atoms: C_9  and  N_24 
REMARK    8  A    between atoms: C_12  and  C_14 
REMARK    9  A    between atoms: C_12  and  C_29 
REMARK   10  A    between atoms: C_14  and  C_30 
REMARK   11  A    between atoms: C_23  and  N_26 
REMARK   12  A    between atoms: C_23  and  C_30 
REMARK   13  A    between atoms: C_28  and  N_32 
ROOT
HETATM    1  H           1     -31.802  -6.317 -16.464  0.00  0.00     0.163 HD
HETATM    2  N           1     -31.306  -5.503 -16.806  0.00  0.00    -0.345 N 
HETATM    3  C           1     -31.956  -4.304 -16.923  0.00  0.00     0.249 C 
HETATM    4  O           1     -31.365  -3.333 -17.331  0.00  0.00    -0.271 OA
ENDROOT
BRANCH   2   5
HETATM    5  C           1     -29.907  -5.608 -17.171  0.00  0.00     0.185 C 
BRANCH   5   6
HETATM    6  C           1     -29.058  -5.683 -15.909  0.00  0.00     0.038 C 
BRANCH   6   7
HETATM    7  C           1     -27.645  -5.207 -16.217  0.00  0.00     0.023 C 
BRANCH   7   8
HETATM    8  C           1     -26.668  -6.362 -16.040  0.00  0.00     0.138 C 
BRANCH   8   9
HETATM    9  N           1     -26.008  -6.648 -17.322  0.00  0.00    -0.227 N 
HETATM   10  C           1     -24.829  -7.110 -17.337  0.00  0.00     0.665 C 
HETATM   11  N           1     -24.245  -7.363 -18.470  0.00  0.00    -0.235 N 
HETATM   12  N           1     -24.220  -7.326 -16.248  0.00  0.00    -0.235 N 
HETATM   13  H           1     -24.748  -7.185 -19.369  0.00  0.00     0.174 HD
HETATM   14  H           1     -23.273  -7.745 -18.483  0.00  0.00     0.174 HD
HETATM   15  H           1     -24.692  -7.122 -15.333  0.00  0.00     0.174 HD
HETATM   16  H           1     -23.242  -7.710 -16.261  0.00  0.00     0.174 HD
HETATM   17  H           1     -26.513  -6.469 -18.224  0.00  0.00     0.177 HD
ENDBRANCH   8   9
ENDBRANCH   7   8
ENDBRANCH   6   7
ENDBRANCH   5   6
BRANCH   5  18
HETATM   18  C           1     -29.694  -6.854 -17.995  0.00  0.00     0.196 C 
HETATM   19  O           1     -30.431  -7.850 -17.826  0.00  0.00    -0.646 OA
HETATM   20  O           1     -28.780  -6.889 -18.847  0.00  0.00    -0.646 OA
ENDBRANCH   5  18
ENDBRANCH   2   5
BRANCH   3  21
HETATM   21  C           1     -33.413  -4.196 -16.543  0.00  0.00     0.274 C 
BRANCH  21  22
HETATM   22  C           1     -34.005  -2.932 -17.155  0.00  0.00     0.042 C 
BRANCH  22  23
HETATM   23  C           1     -35.106  -2.397 -16.248  0.00  0.00     0.004 C 
BRANCH  23  24
HETATM   24  C           1     -35.478  -0.985 -16.681  0.00  0.00     0.027 C 
BRANCH  24  25
HETATM   25  C           1     -36.449  -0.384 -15.673  0.00  0.00     0.229 C 
BRANCH  25  26
HETATM   26  N           1     -36.463   1.108 -15.819  0.00  0.00    -0.079 N 
HETATM   27  H           1     -36.101   1.370 -16.763  0.00  0.00     0.274 HD
HETATM   28  H           1     -37.442   1.460 -15.712  0.00  0.00     0.274 HD
HETATM   29  H           1     -35.858   1.536 -15.082  0.00  0.00     0.274 HD
ENDBRANCH  25  26
ENDBRANCH  24  25
ENDBRANCH  23  24
ENDBRANCH  22  23
ENDBRANCH  21  22
BRANCH  21  30
HETATM   30  N           1     -33.536  -4.133 -15.050  0.00  0.00    -0.067 N 
HETATM   31  H           1     -32.621  -3.841 -14.637  0.00  0.00     0.275 HD
HETATM   32  H           1     -34.273  -3.439 -14.789  0.00  0.00     0.275 HD
HETATM   33  H           1     -33.798  -5.075 -14.682  0.00  0.00     0.275 HD
ENDBRANCH  21  30
ENDBRANCH   3  21
TORSDOF 13
ENDMDL
MODEL 7
REMARK VINA RESULT:      -6.0     14.182     17.716
REMARK  13 active torsions:
REMARK  status: ('A' for Active; 'I' for Inactive)
REMARK    1  A    between atoms: C_2  and  C_28 
REMARK    2  A    between atoms: C_2  and  C_3 
REMARK    3  A    between atoms: C_3  and  C_4 
REMARK    4  A    between atoms: C_4  and  C_5 
REMARK    5  A    between atoms: C_5  and  N_27 
REMARK    6  A    between atoms: N_6  and  C_12 
REMARK       I    between atoms: N_6  and  C_7 
REMARK    7  A    between atoms: C_7  and  C_28 
REMARK       I    between atoms: C_9  and  N_17 
REMARK       I    between atoms: C_9  and  N_24 
REMARK    8  A    between atoms: C_12  and  C_14 
REMARK    9  A    between atoms: C_12  and  C_29 
REMARK   10  A    between atoms: C_14  and  C_30 
REMARK   11  A    between atoms: C_23  and  N_26 
REMARK   12  A    between atoms: C_23  and  C_30 
REMARK   13  A    between atoms: C_28  and  N_32 
ROOT
HETATM    1  H           1     -22.127  -6.820  -6.317  0.00  0.00     0.163 HD
HETATM    2  N           1     -21.430  -6.292  -5.809  0.00  0.00    -0.345 N 
HETATM    3  C           1     -20.891  -5.161  -6.360  0.00  0.00     0.249 C 
HETATM    4  O           1     -20.058  -4.531  -5.754  0.00  0.00    -0.271 OA
ENDROOT
BRANCH   2   5
HETATM    5  C           1     -21.000  -6.734  -4.497  0.00  0.00     0.185 C 
BRANCH   5   6
HETATM    6  C           1     -22.201  -6.784  -3.560  0.00  0.00     0.038 C 
BRANCH   6   7
HETATM    7  C           1     -21.865  -6.060  -2.263  0.00  0.00     0.023 C 
BRANCH   7   8
HETATM    8  C           1     -22.235  -6.942  -1.078  0.00  0.00     0.138 C 
BRANCH   8   9
HETATM    9  N           1     -21.352  -8.116  -1.044  0.00  0.00    -0.227 N 
HETATM   10  C           1     -21.772  -9.211  -0.570  0.00  0.00     0.665 C 
HETATM   11  N           1     -20.990 -10.250  -0.540  0.00  0.00    -0.235 N 
HETATM   12  N           1     -22.954  -9.296  -0.124  0.00  0.00    -0.235 N 
HETATM   13  H           1     -20.015 -10.180  -0.908  0.00  0.00     0.174 HD
HETATM   14  H           1     -21.338 -11.154  -0.148  0.00  0.00     0.174 HD
HETATM   15  H           1     -23.586  -8.458  -0.148  0.00  0.00     0.174 HD
HETATM   16  H           1     -23.303 -10.205   0.270  0.00  0.00     0.174 HD
HETATM   17  H           1     -20.371  -8.046  -1.414  0.00  0.00     0.177 HD
ENDBRANCH   8   9
ENDBRANCH   7   8
ENDBRANCH   6   7
ENDBRANCH   5   6
BRANCH   5  18
HETATM   18  C           1     -20.389  -8.109  -4.604  0.00  0.00     0.196 C 
HETATM   19  O           1     -20.484  -8.755  -5.670  0.00  0.00    -0.646 OA
HETATM   20  O           1     -19.787  -8.602  -3.625  0.00  0.00    -0.646 OA
ENDBRANCH   5  18
ENDBRANCH   2   5
BRANCH   3  21
HETATM   21  C           1     -21.337  -4.701  -7.727  0.00  0.00     0.274 C 
BRANCH  21  22
HETATM   22  C           1     -20.160  -4.075  -8.463  0.00  0.00     0.042 C 
BRANCH  22  23
HETATM   23  C           1     -20.074  -4.652  -9.870  0.00  0.00     0.004 C 
BRANCH  23  24
HETATM   24  C           1     -20.701  -3.676 -10.858  0.00  0.00     0.027 C 
BRANCH  24  25
HETATM   25  C           1     -21.769  -4.394 -11.672  0.00  0.00     0.229 C 
BRANCH  25  26
HETATM   26  N           1     -23.082  -4.320 -10.952  0.00  0.00    -0.079 N 
HETATM   27  H           1     -23.529  -5.265 -10.944  0.00  0.00     0.274 HD
HETATM   28  H           1     -22.923  -4.002  -9.969  0.00  0.00     0.274 HD
HETATM   29  H           1     -23.709  -3.641 -11.440  0.00  0.00     0.274 HD
ENDBRANCH  25  26
ENDBRANCH  24  25
ENDBRANCH  23  24
ENDBRANCH  22  23
ENDBRANCH  21  22
BRANCH  21  30
HETATM   30  N           1     -22.432  -3.686  -7.579  0.00  0.00    -0.067 N 
HETATM   31  H           1     -22.877  -3.788  -6.639  0.00  0.00     0.275 HD
HETATM   32  H           1     -22.031  -2.726  -7.672  0.00  0.00     0.275 HD
HETATM   33  H           1     -23.150  -3.838  -8.323  0.00  0.00     0.275 HD
ENDBRANCH  21  30
ENDBRANCH   3  21
TORSDOF 13
ENDMDL
MODEL 8
REMARK VINA RESULT:      -5.7      7.239      9.387
REMARK  13 active torsions:
REMARK  status: ('A' for Active; 'I' for Inactive)
REMARK    1  A    between atoms: C_2  and  C_28 
REMARK    2  A    between atoms: C_2  and  C_3 
REMARK    3  A    between atoms: C_3  and  C_4 
REMARK    4  A    between atoms: C_4  and  C_5 
REMARK    5  A    between atoms: C_5  and  N_27 
REMARK    6  A    between atoms: N_6  and  C_12 
REMARK       I    between atoms: N_6  and  C_7 
REMARK    7  A    between atoms: C_7  and  C_28 
REMARK       I    between atoms: C_9  and  N_17 
REMARK       I    between atoms: C_9  and  N_24 
REMARK    8  A    between atoms: C_12  and  C_14 
REMARK    9  A    between atoms: C_12  and  C_29 
REMARK   10  A    between atoms: C_14  and  C_30 
REMARK   11  A    between atoms: C_23  and  N_26 
REMARK   12  A    between atoms: C_23  and  C_30 
REMARK   13  A    between atoms: C_28  and  N_32 
ROOT
HETATM    1  H           1     -31.656  -6.332 -16.212  0.00  0.00     0.163 HD
HETATM    2  N           1     -31.075  -5.721 -16.772  0.00  0.00    -0.345 N 
HETATM    3  C           1     -31.487  -4.444 -17.044  0.00  0.00     0.249 C 
HETATM    4  O           1     -30.794  -3.715 -17.713  0.00  0.00    -0.271 OA
ENDROOT
BRANCH   2   5
HETATM    5  C           1     -29.807  -6.198 -17.287  0.00  0.00     0.185 C 
BRANCH   5   6
HETATM    6  C           1     -28.746  -6.094 -16.198  0.00  0.00     0.038 C 
BRANCH   6   7
HETATM    7  C           1     -27.490  -5.452 -16.772  0.00  0.00     0.023 C 
BRANCH   7   8
HETATM    8  C           1     -26.301  -6.379 -16.556  0.00  0.00     0.138 C 
BRANCH   8   9
HETATM    9  N           1     -25.644  -6.644 -17.844  0.00  0.00    -0.227 N 
HETATM   10  C           1     -24.507  -7.198 -17.872  0.00  0.00     0.665 C 
HETATM   11  N           1     -23.926  -7.432 -19.012  0.00  0.00    -0.235 N 
HETATM   12  N           1     -23.934  -7.525 -16.791  0.00  0.00    -0.235 N 
HETATM   13  H           1     -24.398  -7.163 -19.904  0.00  0.00     0.174 HD
HETATM   14  H           1     -22.987  -7.890 -19.034  0.00  0.00     0.174 HD
HETATM   15  H           1     -24.403  -7.336 -15.871  0.00  0.00     0.174 HD
HETATM   16  H           1     -22.991  -7.985 -16.815  0.00  0.00     0.174 HD
HETATM   17  H           1     -26.118  -6.373 -18.740  0.00  0.00     0.177 HD
ENDBRANCH   8   9
ENDBRANCH   7   8
ENDBRANCH   6   7
ENDBRANCH   5   6
BRANCH   5  18
HETATM   18  C           1     -29.947  -7.638 -17.716  0.00  0.00     0.196 C 
HETATM   19  O           1     -29.372  -8.542 -17.072  0.00  0.00    -0.646 OA
HETATM   20  O           1     -30.639  -7.926 -18.716  0.00  0.00    -0.646 OA
ENDBRANCH   5  18
ENDBRANCH   2   5
BRANCH   3  21
HETATM   21  C           1     -32.808  -3.947 -16.508  0.00  0.00     0.274 C 
BRANCH  21  22
HETATM   22  C           1     -33.719  -5.134 -16.221  0.00  0.00     0.042 C 
BRANCH  22  23
HETATM   23  C           1     -34.664  -4.784 -15.079  0.00  0.00     0.004 C 
BRANCH  23  24
HETATM   24  C           1     -33.893  -4.047 -13.990  0.00  0.00     0.027 C 
BRANCH  24  25
HETATM   25  C           1     -34.483  -4.392 -12.629  0.00  0.00     0.229 C 
BRANCH  25  26
HETATM   26  N           1     -34.835  -5.849 -12.590  0.00  0.00    -0.079 N 
HETATM   27  H           1     -35.512  -6.024 -11.814  0.00  0.00     0.274 HD
HETATM   28  H           1     -35.268  -6.128 -13.500  0.00  0.00     0.274 HD
HETATM   29  H           1     -33.969  -6.412 -12.431  0.00  0.00     0.274 HD
ENDBRANCH  25  26
ENDBRANCH  24  25
ENDBRANCH  23  24
ENDBRANCH  22  23
ENDBRANCH  21  22
BRANCH  21  30
HETATM   30  N           1     -33.455  -3.056 -17.526  0.00  0.00    -0.067 N 
HETATM   31  H           1     -33.263  -2.056 -17.287  0.00  0.00     0.275 HD
HETATM   32  H           1     -33.066  -3.267 -18.473  0.00  0.00     0.275 HD
HETATM   33  H           1     -34.487  -3.220 -17.528  0.00  0.00     0.275 HD
ENDBRANCH  21  30
ENDBRANCH   3  21
TORSDOF 13
ENDMDL
MODEL 9
REMARK VINA RESULT:      -5.5     12.905     16.186
REMARK  13 active torsions:
REMARK  status: ('A' for Active; 'I' for Inactive)
REMARK    1  A    between atoms: C_2  and  C_28 
REMARK    2  A    between atoms: C_2  and  C_3 
REMARK    3  A    between atoms: C_3  and  C_4 
REMARK    4  A    between atoms: C_4  and  C_5 
REMARK    5  A    between atoms: C_5  and  N_27 
REMARK    6  A    between atoms: N_6  and  C_12 
REMARK       I    between atoms: N_6  and  C_7 
REMARK    7  A    between atoms: C_7  and  C_28 
REMARK       I    between atoms: C_9  and  N_17 
REMARK       I    between atoms: C_9  and  N_24 
REMARK    8  A    between atoms: C_12  and  C_14 
REMARK    9  A    between atoms: C_12  and  C_29 
REMARK   10  A    between atoms: C_14  and  C_30 
REMARK   11  A    between atoms: C_23  and  N_26 
REMARK   12  A    between atoms: C_23  and  C_30 
REMARK   13  A    between atoms: C_28  and  N_32 
ROOT
HETATM    1  H           1     -21.651  -4.670  -9.162  0.00  0.00     0.163 HD
HETATM    2  N           1     -21.914  -4.643  -8.185  0.00  0.00    -0.345 N 
HETATM    3  C           1     -23.230  -4.510  -7.832  0.00  0.00     0.249 C 
HETATM    4  O           1     -23.543  -4.477  -6.666  0.00  0.00    -0.271 OA
ENDROOT
BRANCH   2   5
HETATM    5  C           1     -20.895  -4.746  -7.158  0.00  0.00     0.185 C 
BRANCH   5   6
HETATM    6  C           1     -20.811  -6.187  -6.670  0.00  0.00     0.038 C 
BRANCH   6   7
HETATM    7  C           1     -20.645  -6.202  -5.156  0.00  0.00     0.023 C 
BRANCH   7   8
HETATM    8  C           1     -21.886  -6.809  -4.515  0.00  0.00     0.138 C 
BRANCH   8   9
HETATM    9  N           1     -21.507  -7.516  -3.284  0.00  0.00    -0.227 N 
HETATM   10  C           1     -21.777  -7.011  -2.155  0.00  0.00     0.665 C 
HETATM   11  N           1     -21.441  -7.637  -1.066  0.00  0.00    -0.235 N 
HETATM   12  N           1     -22.373  -5.896  -2.086  0.00  0.00    -0.235 N 
HETATM   13  H           1     -20.949  -8.557  -1.123  0.00  0.00     0.174 HD
HETATM   14  H           1     -21.664  -7.220  -0.134  0.00  0.00     0.174 HD
HETATM   15  H           1     -22.644  -5.391  -2.965  0.00  0.00     0.174 HD
HETATM   16  H           1     -22.597  -5.478  -1.150  0.00  0.00     0.174 HD
HETATM   17  H           1     -21.013  -8.440  -3.340  0.00  0.00     0.177 HD
ENDBRANCH   8   9
ENDBRANCH   7   8
ENDBRANCH   6   7
ENDBRANCH   5   6
BRANCH   5  18
HETATM   18  C           1     -19.562  -4.331  -7.729  0.00  0.00     0.196 C 
HETATM   19  O           1     -18.513  -4.528  -7.078  0.00  0.00    -0.646 OA
HETATM   20  O           1     -19.507  -3.787  -8.854  0.00  0.00    -0.646 OA
ENDBRANCH   5  18
ENDBRANCH   2   5
BRANCH   3  21
HETATM   21  C           1     -24.290  -4.402  -8.901  0.00  0.00     0.274 C 
BRANCH  21  22
HETATM   22  C           1     -23.909  -5.279 -10.086  0.00  0.00     0.042 C 
BRANCH  22  23
HETATM   23  C           1     -23.706  -4.407 -11.319  0.00  0.00     0.004 C 
BRANCH  23  24
HETATM   24  C           1     -22.255  -4.501 -11.774  0.00  0.00     0.027 C 
BRANCH  24  25
HETATM   25  C           1     -21.552  -3.178 -11.501  0.00  0.00     0.229 C 
BRANCH  25  26
HETATM   26  N           1     -20.067  -3.374 -11.588  0.00  0.00    -0.079 N 
HETATM   27  H           1     -19.583  -2.596 -11.086  0.00  0.00     0.274 HD
HETATM   28  H           1     -19.809  -4.286 -11.147  0.00  0.00     0.274 HD
HETATM   29  H           1     -19.774  -3.377 -12.591  0.00  0.00     0.274 HD
ENDBRANCH  25  26
ENDBRANCH  24  25
ENDBRANCH  23  24
ENDBRANCH  22  23
ENDBRANCH  21  22
BRANCH  21  30
HETATM   30  N           1     -24.401  -2.975  -9.350  0.00  0.00    -0.067 N 
HETATM   31  H           1     -25.398  -2.666  -9.287  0.00  0.00     0.275 HD
HETATM   32  H           1     -23.810  -2.369  -8.738  0.00  0.00     0.275 HD
HETATM   33  H           1     -24.074  -2.895 -10.340  0.00  0.00     0.275 HD
ENDBRANCH  21  30
ENDBRANCH   3  21
TORSDOF 13
ENDMDL
