MODEL 1
REMARK VINA RESULT:      -7.9      0.000      0.000
REMARK  13 active torsions:
REMARK  status: ('A' for Active; 'I' for Inactive)
REMARK    1  A    between atoms: C_2  and  C_4 
REMARK    2  A    between atoms: C_4  and  C_5 
REMARK    3  A    between atoms: C_4  and  N_17 
REMARK    4  A    between atoms: C_5  and  C_6 
REMARK    5  A    between atoms: C_9  and  O_10 
REMARK    6  A    between atoms: O_10  and  P_11 
REMARK    7  A    between atoms: P_11  and  O_13 
REMARK       I    between atoms: N_17  and  C_18 
REMARK    8  A    between atoms: C_18  and  C_19 
REMARK    9  A    between atoms: C_19  and  C_20 
REMARK   10  A    between atoms: C_19  and  N_26 
REMARK   11  A    between atoms: C_20  and  O_21 
REMARK   12  A    between atoms: O_21  and  P_22 
REMARK   13  A    between atoms: P_22  and  O_23 
ROOT
HETATM    1  C           1     -32.476  -4.367 -16.268  0.00  0.00     0.189 C 
ENDROOT
BRANCH   1   2
HETATM    2  C           1     -32.553  -3.302 -17.334  0.00  0.00     0.197 C 
HETATM    3  O           1     -33.641  -2.736 -17.574  0.00  0.00    -0.646 OA
HETATM    4  O           1     -31.527  -2.985 -17.975  0.00  0.00    -0.646 OA
ENDBRANCH   1   2
BRANCH   1   5
HETATM    5  C           1     -31.957  -5.662 -16.879  0.00  0.00     0.074 C 
BRANCH   5   6
HETATM    6  C           1     -30.460  -5.652 -16.871  0.00  0.00    -0.056 A 
HETATM    7  C           1     -29.771  -5.194 -15.749  0.00  0.00     0.010 A 
HETATM    8  C           1     -28.376  -5.184 -15.742  0.00  0.00     0.038 A 
HETATM    9  C           1     -27.671  -5.634 -16.857  0.00  0.00     0.081 A 
HETATM   10  C           1     -28.359  -6.092 -17.981  0.00  0.00     0.038 A 
HETATM   11  C           1     -29.755  -6.101 -17.988  0.00  0.00     0.010 A 
BRANCH   9  12
HETATM   12  O           1     -26.316  -5.624 -16.851  0.00  0.00    -0.247 OA
BRANCH  12  13
HETATM   13  P           1     -25.554  -6.706 -15.925  0.00  0.00     0.411 P 
HETATM   14  O           1     -24.560  -7.442 -16.738  0.00  0.00    -0.624 OA
HETATM   15  O           1     -26.540  -7.661 -15.370  0.00  0.00    -0.624 OA
BRANCH  13  16
HETATM   16  O           1     -24.802  -5.944 -14.716  0.00  0.00    -0.300 OA
HETATM   17  H           1     -24.568  -6.624 -14.106  0.00  0.00     0.223 HD
ENDBRANCH  13  16
ENDBRANCH  12  13
ENDBRANCH   9  12
ENDBRANCH   5   6
ENDBRANCH   1   5
BRANCH   1  18
HETATM   18  N           1     -33.798  -4.591 -15.715  0.00  0.00    -0.344 N 
HETATM   19  C           1     -34.146  -4.022 -14.520  0.00  0.00     0.251 C 
HETATM   20  O           1     -34.653  -2.925 -14.497  0.00  0.00    -0.271 OA
HETATM   21  H           1     -34.464  -5.168 -16.214  0.00  0.00     0.163 HD
BRANCH  19  22
HETATM   22  C           1     -33.896  -4.763 -13.230  0.00  0.00     0.298 C 
BRANCH  22  23
HETATM   23  C           1     -34.933  -4.349 -12.195  0.00  0.00     0.224 C 
BRANCH  23  24
HETATM   24  O           1     -34.338  -3.500 -11.250  0.00  0.00    -0.287 OA
BRANCH  24  25
HETATM   25  P           1     -35.052  -2.068 -11.037  0.00  0.00     0.406 P 
HETATM   26  O           1     -36.518  -2.255 -10.962  0.00  0.00    -0.624 OA
HETATM   27  O           1     -34.567  -1.456  -9.780  0.00  0.00    -0.624 OA
BRANCH  25  28
HETATM   28  O           1     -34.697  -1.098 -12.279  0.00  0.00    -0.300 OA
HETATM   29  H           1     -33.915  -1.462 -12.657  0.00  0.00     0.223 HD
ENDBRANCH  25  28
ENDBRANCH  24  25
ENDBRANCH  23  24
ENDBRANCH  22  23
BRANCH  22  30
HETATM   30  N           1     -32.523  -4.432 -12.722  0.00  0.00    -0.064 N 
HETATM   31  H           1     -31.826  -4.571 -13.488  0.00  0.00     0.275 HD
HETATM   32  H           1     -32.500  -3.436 -12.407  0.00  0.00     0.275 HD
HETATM   33  H           1     -32.289  -5.058 -11.919  0.00  0.00     0.275 HD
ENDBRANCH  22  30
ENDBRANCH  19  22
ENDBRANCH   1  18
TORSDOF 13
ENDMDL
MODEL 2
REMARK VINA RESULT:      -7.2     11.890     14.852
REMARK  13 active torsions:
REMARK  status: ('A' for Active; 'I' for Inactive)
REMARK    1  A    between atoms: C_2  and  C_4 
REMARK    2  A    between atoms: C_4  and  C_5 
REMARK    3  A    between atoms: C_4  and  N_17 
REMARK    4  A    between atoms: C_5  and  C_6 
REMARK    5  A    between atoms: C_9  and  O_10 
REMARK    6  A    between atoms: O_10  and  P_11 
REMARK    7  A    between atoms: P_11  and  O_13 
REMARK       I    between atoms: N_17  and  C_18 
REMARK    8  A    between atoms: C_18  and  C_19 
REMARK    9  A    between atoms: C_19  and  C_20 
REMARK   10  A    between atoms: C_19  and  N_26 
REMARK   11  A    between atoms: C_20  and  O_21 
REMARK   12  A    between atoms: O_21  and  P_22 
REMARK   13  A    between atoms: P_22  and  O_23 
ROOT
HETATM    1  C           1     -20.598  -7.512  -5.679  0.00  0.00     0.189 C 
ENDROOT
BRANCH   1   2
HETATM    2  C           1     -19.342  -8.319  -5.461  0.00  0.00     0.197 C 
HETATM    3  O           1     -19.111  -8.825  -4.342  0.00  0.00    -0.646 OA
HETATM    4  O           1     -18.533  -8.482  -6.400  0.00  0.00    -0.646 OA
ENDBRANCH   1   2
BRANCH   1   5
HETATM    5  C           1     -20.262  -6.027  -5.639  0.00  0.00     0.074 C 
BRANCH   5   6
HETATM    6  C           1     -20.826  -5.354  -6.851  0.00  0.00    -0.056 A 
HETATM    7  C           1     -22.050  -4.691  -6.776  0.00  0.00     0.010 A 
HETATM    8  C           1     -22.577  -4.066  -7.906  0.00  0.00     0.038 A 
HETATM    9  C           1     -21.877  -4.102  -9.112  0.00  0.00     0.081 A 
HETATM   10  C           1     -20.652  -4.765  -9.189  0.00  0.00     0.038 A 
HETATM   11  C           1     -20.127  -5.392  -8.057  0.00  0.00     0.010 A 
BRANCH   9  12
HETATM   12  O           1     -22.388  -3.495 -10.210  0.00  0.00    -0.247 OA
BRANCH  12  13
HETATM   13  P           1     -23.607  -4.221 -10.980  0.00  0.00     0.411 P 
HETATM   14  O           1     -24.788  -3.330 -10.989  0.00  0.00    -0.624 OA
HETATM   15  O           1     -23.947  -5.484 -10.286  0.00  0.00    -0.624 OA
BRANCH  13  16
HETATM   16  O           1     -23.166  -4.545 -12.500  0.00  0.00    -0.300 OA
HETATM   17  H           1     -23.889  -4.255 -13.031  0.00  0.00     0.223 HD
ENDBRANCH  13  16
ENDBRANCH  12  13
ENDBRANCH   9  12
ENDBRANCH   5   6
ENDBRANCH   1   5
BRANCH   1  18
HETATM   18  N           1     -21.555  -7.818  -4.634  0.00  0.00    -0.344 N 
HETATM   19  C           1     -22.050  -6.816  -3.844  0.00  0.00     0.251 C 
HETATM   20  O           1     -23.053  -6.226  -4.170  0.00  0.00    -0.271 OA
HETATM   21  H           1     -21.858  -8.773  -4.489  0.00  0.00     0.163 HD
BRANCH  19  22
HETATM   22  C           1     -21.342  -6.446  -2.563  0.00  0.00     0.298 C 
BRANCH  22  23
HETATM   23  C           1     -20.862  -7.710  -1.862  0.00  0.00     0.224 C 
BRANCH  23  24
HETATM   24  O           1     -21.970  -8.454  -1.431  0.00  0.00    -0.287 OA
BRANCH  24  25
HETATM   25  P           1     -21.849 -10.057  -1.587  0.00  0.00     0.406 P 
HETATM   26  O           1     -20.996 -10.594  -0.504  0.00  0.00    -0.624 OA
HETATM   27  O           1     -23.197 -10.664  -1.502  0.00  0.00    -0.624 OA
BRANCH  25  28
HETATM   28  O           1     -21.189 -10.411  -3.018  0.00  0.00    -0.300 OA
HETATM   29  H           1     -21.919 -10.581  -3.588  0.00  0.00     0.223 HD
ENDBRANCH  25  28
ENDBRANCH  24  25
ENDBRANCH  23  24
ENDBRANCH  22  23
BRANCH  22  30
HETATM   30  N           1     -22.290  -5.706  -1.665  0.00  0.00    -0.064 N 
HETATM   31  H           1     -22.932  -5.119  -2.245  0.00  0.00     0.275 HD
HETATM   32  H           1     -22.851  -6.391  -1.111  0.00  0.00     0.275 HD
HETATM   33  H           1     -21.748  -5.093  -1.016  0.00  0.00     0.275 HD
ENDBRANCH  22  30
ENDBRANCH  19  22
ENDBRANCH   1  18
TORSDOF 13
ENDMDL
MODEL 3
REMARK VINA RESULT:      -6.9     12.278     14.937
REMARK  13 active torsions:
REMARK  status: ('A' for Active; 'I' for Inactive)
REMARK    1  A    between atoms: C_2  and  C_4 
REMARK    2  A    between atoms: C_4  and  C_5 
REMARK    3  A    between atoms: C_4  and  N_17 
REMARK    4  A    between atoms: C_5  and  C_6 
REMARK    5  A    between atoms: C_9  and  O_10 
REMARK    6  A    between atoms: O_10  and  P_11 
REMARK    7  A    between atoms: P_11  and  O_13 
REMARK       I    between atoms: N_17  and  C_18 
REMARK    8  A    between atoms: C_18  and  C_19 
REMARK    9  A    between atoms: C_19  and  C_20 
REMARK   10  A    between atoms: C_19  and  N_26 
REMARK   11  A    between atoms: C_20  and  O_21 
REMARK   12  A    between atoms: O_21  and  P_22 
REMARK   13  A    between atoms: P_22  and  O_23 
ROOT
HETATM    1  C           1     -21.340  -6.891  -4.869  0.00  0.00     0.189 C 
ENDROOT
BRANCH   1   2
HETATM    2  C           1     -20.697  -7.942  -5.740  0.00  0.00     0.197 C 
HETATM    3  O           1     -19.483  -7.860  -6.024  0.00  0.00    -0.646 OA
HETATM    4  O           1     -21.378  -8.896  -6.175  0.00  0.00    -0.646 OA
ENDBRANCH   1   2
BRANCH   1   5
HETATM    5  C           1     -20.674  -5.545  -5.122  0.00  0.00     0.074 C 
BRANCH   5   6
HETATM    6  C           1     -21.138  -4.999  -6.437  0.00  0.00    -0.056 A 
HETATM    7  C           1     -20.218  -4.763  -7.458  0.00  0.00     0.010 A 
HETATM    8  C           1     -20.650  -4.253  -8.683  0.00  0.00     0.038 A 
HETATM    9  C           1     -22.003  -3.981  -8.886  0.00  0.00     0.081 A 
HETATM   10  C           1     -22.924  -4.217  -7.865  0.00  0.00     0.038 A 
HETATM   11  C           1     -22.491  -4.726  -6.640  0.00  0.00     0.010 A 
BRANCH   9  12
HETATM   12  O           1     -22.423  -3.486 -10.076  0.00  0.00    -0.247 OA
BRANCH  12  13
HETATM   13  P           1     -23.621  -4.256 -10.837  0.00  0.00     0.411 P 
HETATM   14  O           1     -24.835  -3.409 -10.835  0.00  0.00    -0.624 OA
HETATM   15  O           1     -23.909  -5.530 -10.141  0.00  0.00    -0.624 OA
BRANCH  13  16
HETATM   16  O           1     -23.181  -4.562 -12.360  0.00  0.00    -0.300 OA
HETATM   17  H           1     -22.278  -4.294 -12.412  0.00  0.00     0.223 HD
ENDBRANCH  13  16
ENDBRANCH  12  13
ENDBRANCH   9  12
ENDBRANCH   5   6
ENDBRANCH   1   5
BRANCH   1  18
HETATM   18  N           1     -21.177  -7.255  -3.475  0.00  0.00    -0.344 N 
HETATM   19  C           1     -20.824  -8.533  -3.138  0.00  0.00     0.251 C 
HETATM   20  O           1     -19.657  -8.832  -3.038  0.00  0.00    -0.271 OA
HETATM   21  H           1     -21.324  -6.563  -2.751  0.00  0.00     0.163 HD
BRANCH  19  22
HETATM   22  C           1     -21.891  -9.571  -2.890  0.00  0.00     0.298 C 
BRANCH  22  23
HETATM   23  C           1     -21.851 -10.004  -1.431  0.00  0.00     0.224 C 
BRANCH  23  24
HETATM   24  O           1     -21.366  -8.950  -0.644  0.00  0.00    -0.287 OA
BRANCH  24  25
HETATM   25  P           1     -22.482  -8.066   0.120  0.00  0.00     0.406 P 
HETATM   26  O           1     -21.976  -7.682   1.457  0.00  0.00    -0.624 OA
HETATM   27  O           1     -22.769  -6.846  -0.668  0.00  0.00    -0.624 OA
BRANCH  25  28
HETATM   28  O           1     -23.835  -8.931   0.285  0.00  0.00    -0.300 OA
HETATM   29  H           1     -23.571  -9.826   0.155  0.00  0.00     0.223 HD
ENDBRANCH  25  28
ENDBRANCH  24  25
ENDBRANCH  23  24
ENDBRANCH  22  23
BRANCH  22  30
HETATM   30  N           1     -21.644 -10.760  -3.771  0.00  0.00    -0.064 N 
HETATM   31  H           1     -22.534 -11.030  -4.248  0.00  0.00     0.275 HD
HETATM   32  H           1     -20.924 -10.518  -4.489  0.00  0.00     0.275 HD
HETATM   33  H           1     -21.303 -11.559  -3.190  0.00  0.00     0.275 HD
ENDBRANCH  22  30
ENDBRANCH  19  22
ENDBRANCH   1  18
TORSDOF 13
ENDMDL
MODEL 4
REMARK VINA RESULT:      -6.9     12.069     15.218
REMARK  13 active torsions:
REMARK  status: ('A' for Active; 'I' for Inactive)
REMARK    1  A    between atoms: C_2  and  C_4 
REMARK    2  A    between atoms: C_4  and  C_5 
REMARK    3  A    between atoms: C_4  and  N_17 
REMARK    4  A    between atoms: C_5  and  C_6 
REMARK    5  A    between atoms: C_9  and  O_10 
REMARK    6  A    between atoms: O_10  and  P_11 
REMARK    7  A    between atoms: P_11  and  O_13 
REMARK       I    between atoms: N_17  and  C_18 
REMARK    8  A    between atoms: C_18  and  C_19 
REMARK    9  A    between atoms: C_19  and  C_20 
REMARK   10  A    between atoms: C_19  and  N_26 
REMARK   11  A    between atoms: C_20  and  O_21 
REMARK   12  A    between atoms: O_21  and  P_22 
REMARK   13  A    between atoms: P_22  and  O_23 
ROOT
HETATM    1  C           1     -20.788  -5.143  -6.041  0.00  0.00     0.189 C 
ENDROOT
BRANCH   1   2
HETATM    2  C           1     -19.787  -5.217  -7.168  0.00  0.00     0.197 C 
HETATM    3  O           1     -19.798  -6.191  -7.951  0.00  0.00    -0.646 OA
HETATM    4  O           1     -18.948  -4.302  -7.321  0.00  0.00    -0.646 OA
ENDBRANCH   1   2
BRANCH   1   5
HETATM    5  C           1     -21.448  -6.504  -5.858  0.00  0.00     0.074 C 
BRANCH   5   6
HETATM    6  C           1     -21.238  -6.975  -4.453  0.00  0.00    -0.056 A 
HETATM    7  C           1     -21.899  -6.344  -3.400  0.00  0.00     0.010 A 
HETATM    8  C           1     -21.703  -6.782  -2.090  0.00  0.00     0.038 A 
HETATM    9  C           1     -20.847  -7.854  -1.834  0.00  0.00     0.081 A 
HETATM   10  C           1     -20.186  -8.486  -2.887  0.00  0.00     0.038 A 
HETATM   11  C           1     -20.382  -8.046  -4.198  0.00  0.00     0.010 A 
BRANCH   9  12
HETATM   12  O           1     -20.656  -8.280  -0.562  0.00  0.00    -0.247 OA
BRANCH  12  13
HETATM   13  P           1     -21.831  -9.143   0.132  0.00  0.00     0.411 P 
HETATM   14  O           1     -22.685  -9.748  -0.914  0.00  0.00    -0.624 OA
HETATM   15  O           1     -22.653  -8.258   0.989  0.00  0.00    -0.624 OA
BRANCH  13  16
HETATM   16  O           1     -21.177 -10.311   1.035  0.00  0.00    -0.300 OA
HETATM   17  H           1     -21.409 -11.115   0.601  0.00  0.00     0.223 HD
ENDBRANCH  13  16
ENDBRANCH  12  13
ENDBRANCH   9  12
ENDBRANCH   5   6
ENDBRANCH   1   5
BRANCH   1  18
HETATM   18  N           1     -21.800  -4.155  -6.359  0.00  0.00    -0.344 N 
HETATM   19  C           1     -22.961  -4.539  -6.976  0.00  0.00     0.251 C 
HETATM   20  O           1     -23.918  -4.864  -6.315  0.00  0.00    -0.271 OA
HETATM   21  H           1     -21.650  -3.182  -6.125  0.00  0.00     0.163 HD
BRANCH  19  22
HETATM   22  C           1     -23.045  -4.555  -8.483  0.00  0.00     0.298 C 
BRANCH  22  23
HETATM   23  C           1     -22.219  -3.408  -9.051  0.00  0.00     0.224 C 
BRANCH  23  24
HETATM   24  O           1     -22.440  -3.314 -10.432  0.00  0.00    -0.287 OA
BRANCH  24  25
HETATM   25  P           1     -21.151  -3.564 -11.373  0.00  0.00     0.406 P 
HETATM   26  O           1     -20.234  -2.407 -11.269  0.00  0.00    -0.624 OA
HETATM   27  O           1     -20.449  -4.791 -10.933  0.00  0.00    -0.624 OA
BRANCH  25  28
HETATM   28  O           1     -21.627  -3.737 -12.906  0.00  0.00    -0.300 OA
HETATM   29  H           1     -22.105  -2.949 -13.104  0.00  0.00     0.223 HD
ENDBRANCH  25  28
ENDBRANCH  24  25
ENDBRANCH  23  24
ENDBRANCH  22  23
BRANCH  22  30
HETATM   30  N           1     -24.477  -4.396  -8.904  0.00  0.00    -0.064 N 
HETATM   31  H           1     -25.053  -5.151  -8.467  0.00  0.00     0.275 HD
HETATM   32  H           1     -24.830  -3.464  -8.591  0.00  0.00     0.275 HD
HETATM   33  H           1     -24.543  -4.464  -9.944  0.00  0.00     0.275 HD
ENDBRANCH  22  30
ENDBRANCH  19  22
ENDBRANCH   1  18
TORSDOF 13
ENDMDL
MODEL 5
REMARK VINA RESULT:      -6.7      2.813      3.775
REMARK  13 active torsions:
REMARK  status: ('A' for Active; 'I' for Inactive)
REMARK    1  A    between atoms: C_2  and  C_4 
REMARK    2  A    between atoms: C_4  and  C_5 
REMARK    3  A    between atoms: C_4  and  N_17 
REMARK    4  A    between atoms: C_5  and  C_6 
REMARK    5  A    between atoms: C_9  and  O_10 
REMARK    6  A    between atoms: O_10  and  P_11 
REMARK    7  A    between atoms: P_11  and  O_13 
REMARK       I    between atoms: N_17  and  C_18 
REMARK    8  A    between atoms: C_18  and  C_19 
REMARK    9  A    between atoms: C_19  and  C_20 
REMARK   10  A    between atoms: C_19  and  N_26 
REMARK   11  A    between atoms: C_20  and  O_21 
REMARK   12  A    between atoms: O_21  and  P_22 
REMARK   13  A    between atoms: P_22  and  O_23 
ROOT
HETATM    1  C           1     -32.257  -4.658 -16.555  0.00  0.00     0.189 C 
ENDROOT
BRANCH   1   2
HETATM    2  C           1     -31.937  -3.403 -17.327  0.00  0.00     0.197 C 
HETATM    3  O           1     -32.852  -2.763 -17.888  0.00  0.00    -0.646 OA
HETATM    4  O           1     -30.755  -3.001 -17.405  0.00  0.00    -0.646 OA
ENDBRANCH   1   2
BRANCH   1   5
HETATM    5  C           1     -31.761  -5.873 -17.330  0.00  0.00     0.074 C 
BRANCH   5   6
HETATM    6  C           1     -30.422  -6.286 -16.804  0.00  0.00    -0.056 A 
HETATM    7  C           1     -29.746  -7.359 -17.383  0.00  0.00     0.010 A 
HETATM    8  C           1     -28.498  -7.745 -16.893  0.00  0.00     0.038 A 
HETATM    9  C           1     -27.927  -7.056 -15.823  0.00  0.00     0.081 A 
HETATM   10  C           1     -28.602  -5.983 -15.243  0.00  0.00     0.038 A 
HETATM   11  C           1     -29.851  -5.598 -15.734  0.00  0.00     0.010 A 
BRANCH   9  12
HETATM   12  O           1     -26.715  -7.431 -15.346  0.00  0.00    -0.247 OA
BRANCH  12  13
HETATM   13  P           1     -25.401  -6.937 -16.144  0.00  0.00     0.411 P 
HETATM   14  O           1     -25.791  -6.440 -17.482  0.00  0.00    -0.624 OA
HETATM   15  O           1     -24.460  -8.070 -16.295  0.00  0.00    -0.624 OA
BRANCH  13  16
HETATM   16  O           1     -24.685  -5.749 -15.317  0.00  0.00    -0.300 OA
HETATM   17  H           1     -24.960  -4.955 -15.743  0.00  0.00     0.223 HD
ENDBRANCH  13  16
ENDBRANCH  12  13
ENDBRANCH   9  12
ENDBRANCH   5   6
ENDBRANCH   1   5
BRANCH   1  18
HETATM   18  N           1     -33.692  -4.757 -16.371  0.00  0.00    -0.344 N 
HETATM   19  C           1     -34.251  -4.436 -15.164  0.00  0.00     0.251 C 
HETATM   20  O           1     -34.606  -3.302 -14.943  0.00  0.00    -0.271 OA
HETATM   21  H           1     -34.281  -5.063 -17.136  0.00  0.00     0.163 HD
BRANCH  19  22
HETATM   22  C           1     -34.425  -5.498 -14.106  0.00  0.00     0.298 C 
BRANCH  22  23
HETATM   23  C           1     -35.660  -6.333 -14.420  0.00  0.00     0.224 C 
BRANCH  23  24
HETATM   24  O           1     -35.484  -6.983 -15.649  0.00  0.00    -0.287 OA
BRANCH  24  25
HETATM   25  P           1     -36.829  -7.529 -16.358  0.00  0.00     0.406 P 
HETATM   26  O           1     -37.359  -8.677 -15.588  0.00  0.00    -0.624 OA
HETATM   27  O           1     -37.841  -6.450 -16.397  0.00  0.00    -0.624 OA
BRANCH  25  28
HETATM   28  O           1     -36.490  -8.003 -17.865  0.00  0.00    -0.300 OA
HETATM   29  H           1     -37.316  -8.272 -18.228  0.00  0.00     0.223 HD
ENDBRANCH  25  28
ENDBRANCH  24  25
ENDBRANCH  23  24
ENDBRANCH  22  23
BRANCH  22  30
HETATM   30  N           1     -34.591  -4.845 -12.765  0.00  0.00    -0.064 N 
HETATM   31  H           1     -33.654  -4.725 -12.318  0.00  0.00     0.275 HD
HETATM   32  H           1     -35.040  -3.909 -12.887  0.00  0.00     0.275 HD
HETATM   33  H           1     -35.193  -5.445 -12.157  0.00  0.00     0.275 HD
ENDBRANCH  22  30
ENDBRANCH  19  22
ENDBRANCH   1  18
TORSDOF 13
ENDMDL
MODEL 6
REMARK VINA RESULT:      -6.6      1.420      2.144
REMARK  13 active torsions:
REMARK  status: ('A' for Active; 'I' for Inactive)
REMARK    1  A    between atoms: C_2  and  C_4 
REMARK    2  A    between atoms: C_4  and  C_5 
REMARK    3  A    between atoms: C_4  and  N_17 
REMARK    4  A    between atoms: C_5  and  C_6 
REMARK    5  A    between atoms: C_9  and  O_10 
REMARK    6  A    between atoms: O_10  and  P_11 
REMARK    7  A    between atoms: P_11  and  O_13 
REMARK       I    between atoms: N_17  and  C_18 
REMARK    8  A    between atoms: C_18  and  C_19 
REMARK    9  A    between atoms: C_19  and  C_20 
REMARK   10  A    between atoms: C_19  and  N_26 
REMARK   11  A    between atoms: C_20  and  O_21 
REMARK   12  A    between atoms: O_21  and  P_22 
REMARK   13  A    between atoms: P_22  and  O_23 
ROOT
HETATM    1  C           1     -31.806  -4.399 -16.935  0.00  0.00     0.189 C 
ENDROOT
BRANCH   1   2
HETATM    2  C           1     -30.791  -3.590 -17.704  0.00  0.00     0.197 C 
HETATM    3  O           1     -30.481  -2.443 -17.315  0.00  0.00    -0.646 OA
HETATM    4  O           1     -30.257  -4.067 -18.729  0.00  0.00    -0.646 OA
ENDBRANCH   1   2
BRANCH   1   5
HETATM    5  C           1     -31.593  -5.881 -17.216  0.00  0.00     0.074 C 
BRANCH   5   6
HETATM    6  C           1     -30.245  -6.295 -16.713  0.00  0.00    -0.056 A 
HETATM    7  C           1     -29.600  -7.397 -17.272  0.00  0.00     0.010 A 
HETATM    8  C           1     -28.345  -7.784 -16.803  0.00  0.00     0.038 A 
HETATM    9  C           1     -27.733  -7.065 -15.776  0.00  0.00     0.081 A 
HETATM   10  C           1     -28.377  -5.961 -15.217  0.00  0.00     0.038 A 
HETATM   11  C           1     -29.634  -5.576 -15.686  0.00  0.00     0.010 A 
BRANCH   9  12
HETATM   12  O           1     -26.513  -7.440 -15.320  0.00  0.00    -0.247 OA
BRANCH  12  13
HETATM   13  P           1     -25.211  -6.909 -16.115  0.00  0.00     0.411 P 
HETATM   14  O           1     -25.606  -6.466 -17.471  0.00  0.00    -0.624 OA
HETATM   15  O           1     -24.220  -8.003 -16.223  0.00  0.00    -0.624 OA
BRANCH  13  16
HETATM   16  O           1     -24.560  -5.669 -15.311  0.00  0.00    -0.300 OA
HETATM   17  H           1     -24.602  -4.942 -15.909  0.00  0.00     0.223 HD
ENDBRANCH  13  16
ENDBRANCH  12  13
ENDBRANCH   9  12
ENDBRANCH   5   6
ENDBRANCH   1   5
BRANCH   1  18
HETATM   18  N           1     -33.141  -4.016 -17.351  0.00  0.00    -0.344 N 
HETATM   19  C           1     -33.924  -3.255 -16.525  0.00  0.00     0.251 C 
HETATM   20  O           1     -33.885  -2.050 -16.595  0.00  0.00    -0.271 OA
HETATM   21  H           1     -33.495  -4.311 -18.253  0.00  0.00     0.163 HD
BRANCH  19  22
HETATM   22  C           1     -34.837  -3.922 -15.526  0.00  0.00     0.298 C 
BRANCH  22  23
HETATM   23  C           1     -34.257  -3.771 -14.126  0.00  0.00     0.224 C 
BRANCH  23  24
HETATM   24  O           1     -34.693  -2.560 -13.569  0.00  0.00    -0.287 OA
BRANCH  24  25
HETATM   25  P           1     -34.556  -2.430 -11.965  0.00  0.00     0.406 P 
HETATM   26  O           1     -35.701  -3.107 -11.316  0.00  0.00    -0.624 OA
HETATM   27  O           1     -33.293  -3.064 -11.524  0.00  0.00    -0.624 OA
BRANCH  25  28
HETATM   28  O           1     -34.548  -0.869 -11.548  0.00  0.00    -0.300 OA
HETATM   29  H           1     -33.882  -0.797 -10.886  0.00  0.00     0.223 HD
ENDBRANCH  25  28
ENDBRANCH  24  25
ENDBRANCH  23  24
ENDBRANCH  22  23
BRANCH  22  30
HETATM   30  N           1     -34.963  -5.380 -15.860  0.00  0.00    -0.064 N 
HETATM   31  H           1     -35.855  -5.542 -16.379  0.00  0.00     0.275 HD
HETATM   32  H           1     -34.155  -5.671 -16.456  0.00  0.00     0.275 HD
HETATM   33  H           1     -34.966  -5.940 -14.977  0.00  0.00     0.275 HD
ENDBRANCH  22  30
ENDBRANCH  19  22
ENDBRANCH   1  18
TORSDOF 13
ENDMDL
MODEL 7
REMARK VINA RESULT:      -6.5     12.708     15.542
REMARK  13 active torsions:
REMARK  status: ('A' for Active; 'I' for Inactive)
REMARK    1  A    between atoms: C_2  and  C_4 
REMARK    2  A    between atoms: C_4  and  C_5 
REMARK    3  A    between atoms: C_4  and  N_17 
REMARK    4  A    between atoms: C_5  and  C_6 
REMARK    5  A    between atoms: C_9  and  O_10 
REMARK    6  A    between atoms: O_10  and  P_11 
REMARK    7  A    between atoms: P_11  and  O_13 
REMARK       I    between atoms: N_17  and  C_18 
REMARK    8  A    between atoms: C_18  and  C_19 
REMARK    9  A    between atoms: C_19  and  C_20 
REMARK   10  A    between atoms: C_19  and  N_26 
REMARK   11  A    between atoms: C_20  and  O_21 
REMARK   12  A    between atoms: O_21  and  P_22 
REMARK   13  A    between atoms: P_22  and  O_23 
ROOT
HETATM    1  C           1     -21.132  -7.204  -5.784  0.00  0.00     0.189 C 
ENDROOT
BRANCH   1   2
HETATM    2  C           1     -21.846  -6.221  -4.890  0.00  0.00     0.197 C 
HETATM    3  O           1     -23.089  -6.107  -4.954  0.00  0.00    -0.646 OA
HETATM    4  O           1     -21.195  -5.522  -4.083  0.00  0.00    -0.646 OA
ENDBRANCH   1   2
BRANCH   1   5
HETATM    5  C           1     -20.042  -7.914  -4.990  0.00  0.00     0.074 C 
BRANCH   5   6
HETATM    6  C           1     -20.661  -8.646  -3.839  0.00  0.00    -0.056 A 
HETATM    7  C           1     -20.323  -8.302  -2.531  0.00  0.00     0.010 A 
HETATM    8  C           1     -20.898  -8.985  -1.459  0.00  0.00     0.038 A 
HETATM    9  C           1     -21.814 -10.010  -1.696  0.00  0.00     0.081 A 
HETATM   10  C           1     -22.152 -10.354  -3.004  0.00  0.00     0.038 A 
HETATM   11  C           1     -21.576  -9.671  -4.077  0.00  0.00     0.010 A 
BRANCH   9  12
HETATM   12  O           1     -22.373 -10.672  -0.655  0.00  0.00    -0.247 OA
BRANCH  12  13
HETATM   13  P           1     -21.422 -11.628   0.234  0.00  0.00     0.411 P 
HETATM   14  O           1     -20.645 -10.805   1.188  0.00  0.00    -0.624 OA
HETATM   15  O           1     -20.493 -12.363  -0.654  0.00  0.00    -0.624 OA
BRANCH  13  16
HETATM   16  O           1     -22.333 -12.682   1.051  0.00  0.00    -0.300 OA
HETATM   17  H           1     -22.439 -13.416   0.469  0.00  0.00     0.223 HD
ENDBRANCH  13  16
ENDBRANCH  12  13
ENDBRANCH   9  12
ENDBRANCH   5   6
ENDBRANCH   1   5
BRANCH   1  18
HETATM   18  N           1     -20.532  -6.495  -6.897  0.00  0.00    -0.344 N 
HETATM   19  C           1     -20.917  -5.212  -7.178  0.00  0.00     0.251 C 
HETATM   20  O           1     -20.340  -4.281  -6.667  0.00  0.00    -0.271 OA
HETATM   21  H           1     -19.827  -6.948  -7.465  0.00  0.00     0.163 HD
BRANCH  19  22
HETATM   22  C           1     -22.062  -4.959  -8.127  0.00  0.00     0.298 C 
BRANCH  22  23
HETATM   23  C           1     -21.568  -4.146  -9.317  0.00  0.00     0.224 C 
BRANCH  23  24
HETATM   24  O           1     -21.980  -4.762 -10.507  0.00  0.00    -0.287 OA
BRANCH  24  25
HETATM   25  P           1     -23.477  -4.411 -11.003  0.00  0.00     0.406 P 
HETATM   26  O           1     -24.454  -5.181 -10.203  0.00  0.00    -0.624 OA
HETATM   27  O           1     -23.728  -2.962 -10.828  0.00  0.00    -0.624 OA
BRANCH  25  28
HETATM   28  O           1     -23.633  -4.800 -12.563  0.00  0.00    -0.300 OA
HETATM   29  H           1     -24.103  -4.080 -12.948  0.00  0.00     0.223 HD
ENDBRANCH  25  28
ENDBRANCH  24  25
ENDBRANCH  23  24
ENDBRANCH  22  23
BRANCH  22  30
HETATM   30  N           1     -23.141  -4.197  -7.415  0.00  0.00    -0.064 N 
HETATM   31  H           1     -22.819  -3.219  -7.240  0.00  0.00     0.275 HD
HETATM   32  H           1     -24.003  -4.179  -8.006  0.00  0.00     0.275 HD
HETATM   33  H           1     -23.353  -4.663  -6.504  0.00  0.00     0.275 HD
ENDBRANCH  22  30
ENDBRANCH  19  22
ENDBRANCH   1  18
TORSDOF 13
ENDMDL
MODEL 8
REMARK VINA RESULT:      -6.4     12.998     15.981
REMARK  13 active torsions:
REMARK  status: ('A' for Active; 'I' for Inactive)
REMARK    1  A    between atoms: C_2  and  C_4 
REMARK    2  A    between atoms: C_4  and  C_5 
REMARK    3  A    between atoms: C_4  and  N_17 
REMARK    4  A    between atoms: C_5  and  C_6 
REMARK    5  A    between atoms: C_9  and  O_10 
REMARK    6  A    between atoms: O_10  and  P_11 
REMARK    7  A    between atoms: P_11  and  O_13 
REMARK       I    between atoms: N_17  and  C_18 
REMARK    8  A    between atoms: C_18  and  C_19 
REMARK    9  A    between atoms: C_19  and  C_20 
REMARK   10  A    between atoms: C_19  and  N_26 
REMARK   11  A    between atoms: C_20  and  O_21 
REMARK   12  A    between atoms: O_21  and  P_22 
REMARK   13  A    between atoms: P_22  and  O_23 
ROOT
HETATM    1  C           1     -20.114  -7.384  -5.519  0.00  0.00     0.189 C 
ENDROOT
BRANCH   1   2
HETATM    2  C           1     -19.017  -8.413  -5.403  0.00  0.00     0.197 C 
HETATM    3  O           1     -18.476  -8.869  -6.433  0.00  0.00    -0.646 OA
HETATM    4  O           1     -18.649  -8.811  -4.275  0.00  0.00    -0.646 OA
ENDBRANCH   1   2
BRANCH   1   5
HETATM    5  C           1     -21.469  -8.070  -5.411  0.00  0.00     0.074 C 
BRANCH   5   6
HETATM    6  C           1     -21.660  -8.579  -4.016  0.00  0.00    -0.056 A 
HETATM    7  C           1     -21.979  -9.919  -3.799  0.00  0.00     0.010 A 
HETATM    8  C           1     -22.158 -10.393  -2.499  0.00  0.00     0.038 A 
HETATM    9  C           1     -22.015  -9.526  -1.416  0.00  0.00     0.081 A 
HETATM   10  C           1     -21.697  -8.186  -1.632  0.00  0.00     0.038 A 
HETATM   11  C           1     -21.519  -7.712  -2.932  0.00  0.00     0.010 A 
BRANCH   9  12
HETATM   12  O           1     -22.189  -9.986  -0.153  0.00  0.00    -0.247 OA
BRANCH  12  13
HETATM   13  P           1     -20.948 -10.737   0.557  0.00  0.00     0.411 P 
HETATM   14  O           1     -19.853 -10.918  -0.422  0.00  0.00    -0.624 OA
HETATM   15  O           1     -21.390 -12.060   1.053  0.00  0.00    -0.624 OA
BRANCH  13  16
HETATM   16  O           1     -20.420  -9.846   1.797  0.00  0.00    -0.300 OA
HETATM   17  H           1     -21.200  -9.512   2.207  0.00  0.00     0.223 HD
ENDBRANCH  13  16
ENDBRANCH  12  13
ENDBRANCH   9  12
ENDBRANCH   5   6
ENDBRANCH   1   5
BRANCH   1  18
HETATM   18  N           1     -20.013  -6.716  -6.802  0.00  0.00    -0.344 N 
HETATM   19  C           1     -20.155  -5.357  -6.879  0.00  0.00     0.251 C 
HETATM   20  O           1     -19.188  -4.640  -6.772  0.00  0.00    -0.271 OA
HETATM   21  H           1     -19.837  -7.254  -7.641  0.00  0.00     0.163 HD
BRANCH  19  22
HETATM   22  C           1     -21.520  -4.751  -7.099  0.00  0.00     0.298 C 
BRANCH  22  23
HETATM   23  C           1     -21.994  -5.064  -8.512  0.00  0.00     0.224 C 
BRANCH  23  24
HETATM   24  O           1     -23.178  -4.360  -8.774  0.00  0.00    -0.287 OA
BRANCH  24  25
HETATM   25  P           1     -23.463  -4.007 -10.324  0.00  0.00     0.406 P 
HETATM   26  O           1     -22.291  -3.303 -10.892  0.00  0.00    -0.624 OA
HETATM   27  O           1     -23.702  -5.257 -11.080  0.00  0.00    -0.624 OA
BRANCH  25  28
HETATM   28  O           1     -24.764  -3.056 -10.430  0.00  0.00    -0.300 OA
HETATM   29  H           1     -25.482  -3.642 -10.595  0.00  0.00     0.223 HD
ENDBRANCH  25  28
ENDBRANCH  24  25
ENDBRANCH  23  24
ENDBRANCH  22  23
BRANCH  22  30
HETATM   30  N           1     -21.441  -3.264  -6.915  0.00  0.00    -0.064 N 
HETATM   31  H           1     -20.761  -2.864  -7.600  0.00  0.00     0.275 HD
HETATM   32  H           1     -22.384  -2.844  -7.076  0.00  0.00     0.275 HD
HETATM   33  H           1     -21.124  -3.050  -5.943  0.00  0.00     0.275 HD
ENDBRANCH  22  30
ENDBRANCH  19  22
ENDBRANCH   1  18
TORSDOF 13
ENDMDL
MODEL 9
REMARK VINA RESULT:      -6.1     13.613     16.471
REMARK  13 active torsions:
REMARK  status: ('A' for Active; 'I' for Inactive)
REMARK    1  A    between atoms: C_2  and  C_4 
REMARK    2  A    between atoms: C_4  and  C_5 
REMARK    3  A    between atoms: C_4  and  N_17 
REMARK    4  A    between atoms: C_5  and  C_6 
REMARK    5  A    between atoms: C_9  and  O_10 
REMARK    6  A    between atoms: O_10  and  P_11 
REMARK    7  A    between atoms: P_11  and  O_13 
REMARK       I    between atoms: N_17  and  C_18 
REMARK    8  A    between atoms: C_18  and  C_19 
REMARK    9  A    between atoms: C_19  and  C_20 
REMARK   10  A    between atoms: C_19  and  N_26 
REMARK   11  A    between atoms: C_20  and  O_21 
REMARK   12  A    between atoms: O_21  and  P_22 
REMARK   13  A    between atoms: P_22  and  O_23 
ROOT
HETATM    1  C           1     -21.329  -8.006  -2.168  0.00  0.00     0.189 C 
ENDROOT
BRANCH   1   2
HETATM    2  C           1     -22.234  -7.640  -1.018  0.00  0.00     0.197 C 
HETATM    3  O           1     -22.643  -6.465  -0.895  0.00  0.00    -0.646 OA
HETATM    4  O           1     -22.577  -8.511  -0.189  0.00  0.00    -0.646 OA
ENDBRANCH   1   2
BRANCH   1   5
HETATM    5  C           1     -19.992  -8.496  -1.626  0.00  0.00     0.074 C 
BRANCH   5   6
HETATM    6  C           1     -19.410  -9.502  -2.570  0.00  0.00    -0.056 A 
HETATM    7  C           1     -18.236  -9.211  -3.263  0.00  0.00     0.010 A 
HETATM    8  C           1     -17.694 -10.149  -4.143  0.00  0.00     0.038 A 
HETATM    9  C           1     -18.327 -11.378  -4.327  0.00  0.00     0.081 A 
HETATM   10  C           1     -19.501 -11.669  -3.635  0.00  0.00     0.038 A 
HETATM   11  C           1     -20.043 -10.731  -2.755  0.00  0.00     0.010 A 
BRANCH   9  12
HETATM   12  O           1     -17.801 -12.288  -5.182  0.00  0.00    -0.247 OA
BRANCH  12  13
HETATM   13  P           1     -18.498 -12.462  -6.628  0.00  0.00     0.411 P 
HETATM   14  O           1     -19.393 -13.640  -6.609  0.00  0.00    -0.624 OA
HETATM   15  O           1     -17.454 -12.653  -7.660  0.00  0.00    -0.624 OA
BRANCH  13  16
HETATM   16  O           1     -19.358 -11.139  -6.972  0.00  0.00    -0.300 OA
HETATM   17  H           1     -19.599 -10.780  -6.134  0.00  0.00     0.223 HD
ENDBRANCH  13  16
ENDBRANCH  12  13
ENDBRANCH   9  12
ENDBRANCH   5   6
ENDBRANCH   1   5
BRANCH   1  18
HETATM   18  N           1     -21.113  -6.840  -3.002  0.00  0.00    -0.344 N 
HETATM   19  C           1     -21.586  -6.820  -4.287  0.00  0.00     0.251 C 
HETATM   20  O           1     -22.696  -6.404  -4.517  0.00  0.00    -0.271 OA
HETATM   21  H           1     -20.614  -6.040  -2.635  0.00  0.00     0.163 HD
BRANCH  19  22
HETATM   22  C           1     -20.719  -7.319  -5.417  0.00  0.00     0.298 C 
BRANCH  22  23
HETATM   23  C           1     -21.014  -6.515  -6.677  0.00  0.00     0.224 C 
BRANCH  23  24
HETATM   24  O           1     -20.424  -5.248  -6.571  0.00  0.00    -0.287 OA
BRANCH  24  25
HETATM   25  P           1     -20.793  -4.197  -7.741  0.00  0.00     0.406 P 
HETATM   26  O           1     -19.547  -3.632  -8.306  0.00  0.00    -0.624 OA
HETATM   27  O           1     -21.549  -4.890  -8.808  0.00  0.00    -0.624 OA
BRANCH  25  28
HETATM   28  O           1     -21.695  -3.004  -7.130  0.00  0.00    -0.300 OA
HETATM   29  H           1     -22.393  -3.438  -6.670  0.00  0.00     0.223 HD
ENDBRANCH  25  28
ENDBRANCH  24  25
ENDBRANCH  23  24
ENDBRANCH  22  23
BRANCH  22  30
HETATM   30  N           1     -21.013  -8.769  -5.669  0.00  0.00    -0.064 N 
HETATM   31  H           1     -21.856  -8.852  -6.280  0.00  0.00     0.275 HD
HETATM   32  H           1     -20.194  -9.212  -6.144  0.00  0.00     0.275 HD
HETATM   33  H           1     -21.192  -9.251  -4.760  0.00  0.00     0.275 HD
ENDBRANCH  22  30
ENDBRANCH  19  22
ENDBRANCH   1  18
TORSDOF 13
ENDMDL
