MODEL 1
REMARK VINA RESULT:      -6.1      0.000      0.000
REMARK  10 active torsions:
REMARK  status: ('A' for Active; 'I' for Inactive)
REMARK    1  A    between atoms: C_1  and  N_12 
REMARK    2  A    between atoms: C_1  and  C_19 
REMARK    3  A    between atoms: N_4  and  C_9 
REMARK       I    between atoms: N_4  and  C_24 
REMARK    4  A    between atoms: C_7  and  C_19 
REMARK    5  A    between atoms: C_7  and  C_9 
REMARK    6  A    between atoms: C_9  and  C_13 
REMARK    7  A    between atoms: O_10  and  C_20 
REMARK    8  A    between atoms: C_20  and  C_23 
REMARK    9  A    between atoms: N_22  and  C_23 
REMARK   10  A    between atoms: C_23  and  C_24 
ROOT
HETATM    1  N           1     -34.964  -1.622 -13.204  0.00  0.00    -0.345 N 
HETATM    2  H           1     -35.346  -2.018 -14.053  0.00  0.00     0.163 HD
HETATM    3  O           1     -33.871  -1.957 -11.285  0.00  0.00    -0.271 OA
HETATM    4  C           1     -34.327  -2.429 -12.300  0.00  0.00     0.251 C 
ENDROOT
BRANCH   1   5
HETATM    5  C           1     -35.093  -0.202 -12.943  0.00  0.00     0.185 C 
BRANCH   5   6
HETATM    6  C           1     -35.213   0.547 -14.264  0.00  0.00     0.038 C 
BRANCH   6   7
HETATM    7  C           1     -35.363  -0.451 -15.404  0.00  0.00     0.030 C 
BRANCH   7   8
HETATM    8  C           1     -36.752  -0.321 -16.013  0.00  0.00     0.230 C 
BRANCH   8   9
HETATM    9  N           1     -37.334   1.013 -15.653  0.00  0.00    -0.079 N 
HETATM   10  H           1     -36.810   1.415 -14.843  0.00  0.00     0.274 HD
HETATM   11  H           1     -37.259   1.658 -16.471  0.00  0.00     0.274 HD
HETATM   12  H           1     -38.340   0.895 -15.392  0.00  0.00     0.274 HD
ENDBRANCH   8   9
ENDBRANCH   7   8
ENDBRANCH   6   7
ENDBRANCH   5   6
BRANCH   5  13
HETATM   13  C           1     -36.324   0.047 -12.109  0.00  0.00     0.196 C 
HETATM   14  O           1     -36.209   0.368 -10.905  0.00  0.00    -0.646 OA
HETATM   15  O           1     -37.459  -0.064 -12.620  0.00  0.00    -0.646 OA
ENDBRANCH   5  13
ENDBRANCH   1   5
BRANCH   4  16
HETATM   16  C           1     -34.194  -3.907 -12.570  0.00  0.00     0.302 C 
BRANCH  16  17
HETATM   17  C           1     -33.175  -4.511 -11.611  0.00  0.00     0.153 C 
HETATM   18  C           1     -33.771  -5.747 -10.951  0.00  0.00     0.042 C 
BRANCH  17  19
HETATM   19  O           1     -32.021  -4.871 -12.320  0.00  0.00    -0.393 OA
HETATM   20  H           1     -32.304  -5.348 -13.080  0.00  0.00     0.210 HD
ENDBRANCH  17  19
ENDBRANCH  16  17
BRANCH  16  21
HETATM   21  N           1     -33.733  -4.117 -13.983  0.00  0.00    -0.064 N 
HETATM   22  H           1     -34.214  -4.952 -14.387  0.00  0.00     0.275 HD
HETATM   23  H           1     -33.965  -3.272 -14.553  0.00  0.00     0.275 HD
HETATM   24  H           1     -32.700  -4.271 -13.993  0.00  0.00     0.275 HD
ENDBRANCH  16  21
ENDBRANCH   4  16
TORSDOF 10
ENDMDL
MODEL 2
REMARK VINA RESULT:      -5.2      1.687      1.987
REMARK  10 active torsions:
REMARK  status: ('A' for Active; 'I' for Inactive)
REMARK    1  A    between atoms: C_1  and  N_12 
REMARK    2  A    between atoms: C_1  and  C_19 
REMARK    3  A    between atoms: N_4  and  C_9 
REMARK       I    between atoms: N_4  and  C_24 
REMARK    4  A    between atoms: C_7  and  C_19 
REMARK    5  A    between atoms: C_7  and  C_9 
REMARK    6  A    between atoms: C_9  and  C_13 
REMARK    7  A    between atoms: O_10  and  C_20 
REMARK    8  A    between atoms: C_20  and  C_23 
REMARK    9  A    between atoms: N_22  and  C_23 
REMARK   10  A    between atoms: C_23  and  C_24 
ROOT
HETATM    1  N           1     -35.764  -2.486 -11.505  0.00  0.00    -0.345 N 
HETATM    2  H           1     -36.606  -2.807 -11.966  0.00  0.00     0.163 HD
HETATM    3  O           1     -33.786  -2.998 -10.605  0.00  0.00    -0.271 OA
HETATM    4  C           1     -34.790  -3.382 -11.157  0.00  0.00     0.251 C 
ENDROOT
BRANCH   1   5
HETATM    5  C           1     -35.592  -1.077 -11.210  0.00  0.00     0.185 C 
BRANCH   5   6
HETATM    6  C           1     -36.022  -0.251 -12.415  0.00  0.00     0.038 C 
BRANCH   6   7
HETATM    7  C           1     -35.067  -0.503 -13.573  0.00  0.00     0.030 C 
BRANCH   7   8
HETATM    8  C           1     -35.791  -0.266 -14.891  0.00  0.00     0.230 C 
BRANCH   8   9
HETATM    9  N           1     -35.118  -1.048 -15.980  0.00  0.00    -0.079 N 
HETATM   10  H           1     -34.230  -0.572 -16.254  0.00  0.00     0.274 HD
HETATM   11  H           1     -34.904  -2.011 -15.635  0.00  0.00     0.274 HD
HETATM   12  H           1     -35.752  -1.107 -16.809  0.00  0.00     0.274 HD
ENDBRANCH   8   9
ENDBRANCH   7   8
ENDBRANCH   6   7
ENDBRANCH   5   6
BRANCH   5  13
HETATM   13  C           1     -36.437  -0.705 -10.016  0.00  0.00     0.196 C 
HETATM   14  O           1     -35.889  -0.381  -8.940  0.00  0.00    -0.646 OA
HETATM   15  O           1     -37.684  -0.718 -10.105  0.00  0.00    -0.646 OA
ENDBRANCH   5  13
ENDBRANCH   1   5
BRANCH   4  16
HETATM   16  C           1     -34.970  -4.848 -11.462  0.00  0.00     0.302 C 
BRANCH  16  17
HETATM   17  C           1     -34.029  -5.669 -10.589  0.00  0.00     0.153 C 
HETATM   18  C           1     -34.755  -6.910 -10.088  0.00  0.00     0.042 C 
BRANCH  17  19
HETATM   19  O           1     -32.910  -6.055 -11.340  0.00  0.00    -0.393 OA
HETATM   20  H           1     -33.231  -6.378 -12.164  0.00  0.00     0.210 HD
ENDBRANCH  17  19
ENDBRANCH  16  17
BRANCH  16  21
HETATM   21  N           1     -34.654  -5.099 -12.907  0.00  0.00    -0.064 N 
HETATM   22  H           1     -35.201  -4.438 -13.504  0.00  0.00     0.275 HD
HETATM   23  H           1     -33.632  -4.950 -13.070  0.00  0.00     0.275 HD
HETATM   24  H           1     -34.907  -6.082 -13.154  0.00  0.00     0.275 HD
ENDBRANCH  16  21
ENDBRANCH   4  16
TORSDOF 10
ENDMDL
MODEL 3
REMARK VINA RESULT:      -5.2     13.400     15.990
REMARK  10 active torsions:
REMARK  status: ('A' for Active; 'I' for Inactive)
REMARK    1  A    between atoms: C_1  and  N_12 
REMARK    2  A    between atoms: C_1  and  C_19 
REMARK    3  A    between atoms: N_4  and  C_9 
REMARK       I    between atoms: N_4  and  C_24 
REMARK    4  A    between atoms: C_7  and  C_19 
REMARK    5  A    between atoms: C_7  and  C_9 
REMARK    6  A    between atoms: C_9  and  C_13 
REMARK    7  A    between atoms: O_10  and  C_20 
REMARK    8  A    between atoms: C_20  and  C_23 
REMARK    9  A    between atoms: N_22  and  C_23 
REMARK   10  A    between atoms: C_23  and  C_24 
ROOT
HETATM    1  N           1     -21.494  -5.506  -7.773  0.00  0.00    -0.345 N 
HETATM    2  H           1     -21.084  -6.284  -8.273  0.00  0.00     0.163 HD
HETATM    3  O           1     -22.686  -3.619  -7.858  0.00  0.00    -0.271 OA
HETATM    4  C           1     -22.197  -4.549  -8.454  0.00  0.00     0.251 C 
ENDROOT
BRANCH   1   5
HETATM    5  C           1     -21.337  -5.403  -6.335  0.00  0.00     0.185 C 
BRANCH   5   6
HETATM    6  C           1     -21.391  -6.794  -5.718  0.00  0.00     0.038 C 
BRANCH   6   7
HETATM    7  C           1     -22.403  -6.807  -4.581  0.00  0.00     0.030 C 
BRANCH   7   8
HETATM    8  C           1     -21.668  -6.809  -3.247  0.00  0.00     0.230 C 
BRANCH   8   9
HETATM    9  N           1     -22.362  -5.883  -2.293  0.00  0.00    -0.079 N 
HETATM   10  H           1     -23.062  -6.419  -1.732  0.00  0.00     0.274 HD
HETATM   11  H           1     -21.659  -5.453  -1.651  0.00  0.00     0.274 HD
HETATM   12  H           1     -22.850  -5.131  -2.830  0.00  0.00     0.274 HD
ENDBRANCH   8   9
ENDBRANCH   7   8
ENDBRANCH   6   7
ENDBRANCH   5   6
BRANCH   5  13
HETATM   13  C           1     -20.007  -4.763  -6.019  0.00  0.00     0.196 C 
HETATM   14  O           1     -19.765  -4.368  -4.858  0.00  0.00    -0.646 OA
HETATM   15  O           1     -19.149  -4.629  -6.917  0.00  0.00    -0.646 OA
ENDBRANCH   5  13
ENDBRANCH   1   5
BRANCH   4  16
HETATM   16  C           1     -22.360  -4.655  -9.951  0.00  0.00     0.302 C 
BRANCH  16  17
HETATM   17  C           1     -21.048  -4.288 -10.633  0.00  0.00     0.153 C 
HETATM   18  C           1     -21.272  -3.098 -11.556  0.00  0.00     0.042 C 
BRANCH  17  19
HETATM   19  O           1     -20.094  -3.953  -9.663  0.00  0.00    -0.393 OA
HETATM   20  H           1     -19.287  -3.786 -10.118  0.00  0.00     0.210 HD
ENDBRANCH  17  19
ENDBRANCH  16  17
BRANCH  16  21
HETATM   21  N           1     -23.437  -3.715 -10.404  0.00  0.00    -0.064 N 
HETATM   22  H           1     -24.366  -4.061 -10.071  0.00  0.00     0.275 HD
HETATM   23  H           1     -23.258  -2.764 -10.006  0.00  0.00     0.275 HD
HETATM   24  H           1     -23.439  -3.662 -11.447  0.00  0.00     0.275 HD
ENDBRANCH  16  21
ENDBRANCH   4  16
TORSDOF 10
ENDMDL
MODEL 4
REMARK VINA RESULT:      -5.1     12.544     15.692
REMARK  10 active torsions:
REMARK  status: ('A' for Active; 'I' for Inactive)
REMARK    1  A    between atoms: C_1  and  N_12 
REMARK    2  A    between atoms: C_1  and  C_19 
REMARK    3  A    between atoms: N_4  and  C_9 
REMARK       I    between atoms: N_4  and  C_24 
REMARK    4  A    between atoms: C_7  and  C_19 
REMARK    5  A    between atoms: C_7  and  C_9 
REMARK    6  A    between atoms: C_9  and  C_13 
REMARK    7  A    between atoms: O_10  and  C_20 
REMARK    8  A    between atoms: C_20  and  C_23 
REMARK    9  A    between atoms: N_22  and  C_23 
REMARK   10  A    between atoms: C_23  and  C_24 
ROOT
HETATM    1  N           1     -21.979  -5.070  -7.107  0.00  0.00    -0.345 N 
HETATM    2  H           1     -22.633  -5.812  -6.891  0.00  0.00     0.163 HD
HETATM    3  O           1     -21.394  -3.399  -8.468  0.00  0.00    -0.271 OA
HETATM    4  C           1     -22.175  -4.284  -8.210  0.00  0.00     0.251 C 
ENDROOT
BRANCH   1   5
HETATM    5  C           1     -20.833  -4.841  -6.249  0.00  0.00     0.185 C 
BRANCH   5   6
HETATM    6  C           1     -21.046  -5.551  -4.918  0.00  0.00     0.038 C 
BRANCH   6   7
HETATM    7  C           1     -22.189  -6.548  -5.050  0.00  0.00     0.030 C 
BRANCH   7   8
HETATM    8  C           1     -21.715  -7.926  -4.609  0.00  0.00     0.230 C 
BRANCH   8   9
HETATM    9  N           1     -21.127  -8.653  -5.782  0.00  0.00    -0.079 N 
HETATM   10  H           1     -20.299  -8.125  -6.141  0.00  0.00     0.274 HD
HETATM   11  H           1     -20.829  -9.609  -5.486  0.00  0.00     0.274 HD
HETATM   12  H           1     -21.845  -8.729  -6.539  0.00  0.00     0.274 HD
ENDBRANCH   8   9
ENDBRANCH   7   8
ENDBRANCH   6   7
ENDBRANCH   5   6
BRANCH   5  13
HETATM   13  C           1     -19.590  -5.380  -6.914  0.00  0.00     0.196 C 
HETATM   14  O           1     -18.644  -4.609  -7.188  0.00  0.00    -0.646 OA
HETATM   15  O           1     -19.505  -6.596  -7.188  0.00  0.00    -0.646 OA
ENDBRANCH   5  13
ENDBRANCH   1   5
BRANCH   4  16
HETATM   16  C           1     -23.367  -4.523  -9.104  0.00  0.00     0.302 C 
BRANCH  16  17
HETATM   17  C           1     -23.015  -4.140 -10.536  0.00  0.00     0.153 C 
HETATM   18  C           1     -23.572  -5.185 -11.493  0.00  0.00     0.042 C 
BRANCH  17  19
HETATM   19  O           1     -23.572  -2.889 -10.836  0.00  0.00    -0.393 OA
HETATM   20  H           1     -23.394  -2.327 -10.102  0.00  0.00     0.210 HD
ENDBRANCH  17  19
ENDBRANCH  16  17
BRANCH  16  21
HETATM   21  N           1     -24.520  -3.686  -8.634  0.00  0.00    -0.064 N 
HETATM   22  H           1     -25.369  -3.912  -9.200  0.00  0.00     0.275 HD
HETATM   23  H           1     -24.709  -3.891  -7.626  0.00  0.00     0.275 HD
HETATM   24  H           1     -24.285  -2.675  -8.746  0.00  0.00     0.275 HD
ENDBRANCH  16  21
ENDBRANCH   4  16
TORSDOF 10
ENDMDL
MODEL 5
REMARK VINA RESULT:      -5.0     15.195     17.446
REMARK  10 active torsions:
REMARK  status: ('A' for Active; 'I' for Inactive)
REMARK    1  A    between atoms: C_1  and  N_12 
REMARK    2  A    between atoms: C_1  and  C_19 
REMARK    3  A    between atoms: N_4  and  C_9 
REMARK       I    between atoms: N_4  and  C_24 
REMARK    4  A    between atoms: C_7  and  C_19 
REMARK    5  A    between atoms: C_7  and  C_9 
REMARK    6  A    between atoms: C_9  and  C_13 
REMARK    7  A    between atoms: O_10  and  C_20 
REMARK    8  A    between atoms: C_20  and  C_23 
REMARK    9  A    between atoms: N_22  and  C_23 
REMARK   10  A    between atoms: C_23  and  C_24 
ROOT
HETATM    1  N           1     -21.226  -6.516  -5.972  0.00  0.00    -0.345 N 
HETATM    2  H           1     -21.685  -7.211  -6.547  0.00  0.00     0.163 HD
HETATM    3  O           1     -20.495  -4.417  -5.761  0.00  0.00    -0.271 OA
HETATM    4  C           1     -21.044  -5.246  -6.447  0.00  0.00     0.251 C 
ENDROOT
BRANCH   1   5
HETATM    5  C           1     -20.758  -6.868  -4.645  0.00  0.00     0.185 C 
BRANCH   5   6
HETATM    6  C           1     -21.951  -7.016  -3.710  0.00  0.00     0.038 C 
BRANCH   6   7
HETATM    7  C           1     -21.762  -6.115  -2.497  0.00  0.00     0.030 C 
BRANCH   7   8
HETATM    8  C           1     -22.225  -6.845  -1.244  0.00  0.00     0.230 C 
BRANCH   8   9
HETATM    9  N           1     -21.523  -8.166  -1.146  0.00  0.00    -0.079 N 
HETATM   10  H           1     -20.585  -8.032  -0.706  0.00  0.00     0.274 HD
HETATM   11  H           1     -22.091  -8.819  -0.561  0.00  0.00     0.274 HD
HETATM   12  H           1     -21.403  -8.569  -2.103  0.00  0.00     0.274 HD
ENDBRANCH   8   9
ENDBRANCH   7   8
ENDBRANCH   6   7
ENDBRANCH   5   6
BRANCH   5  13
HETATM   13  C           1     -20.001  -8.171  -4.707  0.00  0.00     0.196 C 
HETATM   14  O           1     -19.876  -8.871  -3.678  0.00  0.00    -0.646 OA
HETATM   15  O           1     -19.501  -8.553  -5.787  0.00  0.00    -0.646 OA
ENDBRANCH   5  13
ENDBRANCH   1   5
BRANCH   4  16
HETATM   16  C           1     -21.530  -4.880  -7.828  0.00  0.00     0.302 C 
BRANCH  16  17
HETATM   17  C           1     -20.336  -4.723  -8.762  0.00  0.00     0.153 C 
HETATM   18  C           1     -20.822  -4.281 -10.136  0.00  0.00     0.042 C 
BRANCH  17  19
HETATM   19  O           1     -19.461  -3.758  -8.244  0.00  0.00    -0.393 OA
HETATM   20  H           1     -18.972  -3.413  -8.971  0.00  0.00     0.210 HD
ENDBRANCH  17  19
ENDBRANCH  16  17
BRANCH  16  21
HETATM   21  N           1     -22.287  -3.587  -7.765  0.00  0.00    -0.064 N 
HETATM   22  H           1     -21.845  -2.892  -8.410  0.00  0.00     0.275 HD
HETATM   23  H           1     -23.278  -3.750  -8.056  0.00  0.00     0.275 HD
HETATM   24  H           1     -22.266  -3.218  -6.789  0.00  0.00     0.275 HD
ENDBRANCH  16  21
ENDBRANCH   4  16
TORSDOF 10
ENDMDL
MODEL 6
REMARK VINA RESULT:      -5.0     14.993     17.310
REMARK  10 active torsions:
REMARK  status: ('A' for Active; 'I' for Inactive)
REMARK    1  A    between atoms: C_1  and  N_12 
REMARK    2  A    between atoms: C_1  and  C_19 
REMARK    3  A    between atoms: N_4  and  C_9 
REMARK       I    between atoms: N_4  and  C_24 
REMARK    4  A    between atoms: C_7  and  C_19 
REMARK    5  A    between atoms: C_7  and  C_9 
REMARK    6  A    between atoms: C_9  and  C_13 
REMARK    7  A    between atoms: O_10  and  C_20 
REMARK    8  A    between atoms: C_20  and  C_23 
REMARK    9  A    between atoms: N_22  and  C_23 
REMARK   10  A    between atoms: C_23  and  C_24 
ROOT
HETATM    1  N           1     -20.668  -8.122  -5.680  0.00  0.00    -0.345 N 
HETATM    2  H           1     -21.249  -8.447  -6.442  0.00  0.00     0.163 HD
HETATM    3  O           1     -19.253  -8.632  -4.029  0.00  0.00    -0.271 OA
HETATM    4  C           1     -19.946  -9.019  -4.940  0.00  0.00     0.251 C 
ENDROOT
BRANCH   1   5
HETATM    5  C           1     -20.604  -6.708  -5.369  0.00  0.00     0.185 C 
BRANCH   5   6
HETATM    6  C           1     -20.563  -5.906  -6.662  0.00  0.00     0.038 C 
BRANCH   6   7
HETATM    7  C           1     -20.514  -4.419  -6.339  0.00  0.00     0.030 C 
BRANCH   7   8
HETATM    8  C           1     -21.357  -3.650  -7.346  0.00  0.00     0.230 C 
BRANCH   8   9
HETATM    9  N           1     -22.760  -4.181  -7.332  0.00  0.00    -0.079 N 
HETATM   10  H           1     -23.265  -3.854  -8.186  0.00  0.00     0.274 HD
HETATM   11  H           1     -22.737  -5.225  -7.320  0.00  0.00     0.274 HD
HETATM   12  H           1     -23.256  -3.833  -6.480  0.00  0.00     0.274 HD
ENDBRANCH   8   9
ENDBRANCH   7   8
ENDBRANCH   6   7
ENDBRANCH   5   6
BRANCH   5  13
HETATM   13  C           1     -21.820  -6.312  -4.568  0.00  0.00     0.196 C 
HETATM   14  O           1     -22.949  -6.312  -5.106  0.00  0.00    -0.646 OA
HETATM   15  O           1     -21.700  -5.987  -3.368  0.00  0.00    -0.646 OA
ENDBRANCH   5  13
ENDBRANCH   1   5
BRANCH   4  16
HETATM   16  C           1     -20.013 -10.492  -5.263  0.00  0.00     0.302 C 
BRANCH  16  17
HETATM   17  C           1     -18.700 -10.935  -5.896  0.00  0.00     0.153 C 
HETATM   18  C           1     -18.981 -11.978  -6.969  0.00  0.00     0.042 C 
BRANCH  17  19
HETATM   19  O           1     -18.063  -9.829  -6.476  0.00  0.00    -0.393 OA
HETATM   20  H           1     -17.793 -10.090  -7.339  0.00  0.00     0.210 HD
ENDBRANCH  17  19
ENDBRANCH  16  17
BRANCH  16  21
HETATM   21  N           1     -21.138 -10.741  -6.224  0.00  0.00    -0.064 N 
HETATM   22  H           1     -21.129 -11.743  -6.521  0.00  0.00     0.275 HD
HETATM   23  H           1     -22.048 -10.525  -5.757  0.00  0.00     0.275 HD
HETATM   24  H           1     -21.023 -10.128  -7.062  0.00  0.00     0.275 HD
ENDBRANCH  16  21
ENDBRANCH   4  16
TORSDOF 10
ENDMDL
MODEL 7
REMARK VINA RESULT:      -4.9     14.247     17.180
REMARK  10 active torsions:
REMARK  status: ('A' for Active; 'I' for Inactive)
REMARK    1  A    between atoms: C_1  and  N_12 
REMARK    2  A    between atoms: C_1  and  C_19 
REMARK    3  A    between atoms: N_4  and  C_9 
REMARK       I    between atoms: N_4  and  C_24 
REMARK    4  A    between atoms: C_7  and  C_19 
REMARK    5  A    between atoms: C_7  and  C_9 
REMARK    6  A    between atoms: C_9  and  C_13 
REMARK    7  A    between atoms: O_10  and  C_20 
REMARK    8  A    between atoms: C_20  and  C_23 
REMARK    9  A    between atoms: N_22  and  C_23 
REMARK   10  A    between atoms: C_23  and  C_24 
ROOT
HETATM    1  N           1     -20.739  -6.233  -6.416  0.00  0.00    -0.345 N 
HETATM    2  H           1     -21.039  -6.707  -7.258  0.00  0.00     0.163 HD
HETATM    3  O           1     -20.091  -4.329  -5.445  0.00  0.00    -0.271 OA
HETATM    4  C           1     -20.450  -4.895  -6.450  0.00  0.00     0.251 C 
ENDROOT
BRANCH   1   5
HETATM    5  C           1     -20.613  -6.970  -5.174  0.00  0.00     0.185 C 
BRANCH   5   6
HETATM    6  C           1     -21.938  -6.934  -4.426  0.00  0.00     0.038 C 
BRANCH   6   7
HETATM    7  C           1     -21.735  -6.295  -3.059  0.00  0.00     0.030 C 
BRANCH   7   8
HETATM    8  C           1     -21.623  -7.382  -2.000  0.00  0.00     0.230 C 
BRANCH   8   9
HETATM    9  N           1     -22.439  -6.999  -0.801  0.00  0.00    -0.079 N 
HETATM   10  H           1     -22.394  -7.764  -0.090  0.00  0.00     0.274 HD
HETATM   11  H           1     -22.060  -6.118  -0.389  0.00  0.00     0.274 HD
HETATM   12  H           1     -23.433  -6.851  -1.090  0.00  0.00     0.274 HD
ENDBRANCH   8   9
ENDBRANCH   7   8
ENDBRANCH   6   7
ENDBRANCH   5   6
BRANCH   5  13
HETATM   13  C           1     -20.241  -8.401  -5.474  0.00  0.00     0.196 C 
HETATM   14  O           1     -21.136  -9.267  -5.595  0.00  0.00    -0.646 OA
HETATM   15  O           1     -19.040  -8.722  -5.602  0.00  0.00    -0.646 OA
ENDBRANCH   5  13
ENDBRANCH   1   5
BRANCH   4  16
HETATM   16  C           1     -20.580  -4.128  -7.743  0.00  0.00     0.302 C 
BRANCH  16  17
HETATM   17  C           1     -22.049  -3.814  -8.002  0.00  0.00     0.153 C 
HETATM   18  C           1     -22.477  -4.445  -9.320  0.00  0.00     0.042 C 
BRANCH  17  19
HETATM   19  O           1     -22.830  -4.335  -6.961  0.00  0.00    -0.393 OA
HETATM   20  H           1     -23.728  -4.157  -7.177  0.00  0.00     0.210 HD
ENDBRANCH  17  19
ENDBRANCH  16  17
BRANCH  16  21
HETATM   21  N           1     -20.041  -4.956  -8.871  0.00  0.00    -0.064 N 
HETATM   22  H           1     -20.823  -5.225  -9.512  0.00  0.00     0.275 HD
HETATM   23  H           1     -19.332  -4.400  -9.402  0.00  0.00     0.275 HD
HETATM   24  H           1     -19.593  -5.818  -8.488  0.00  0.00     0.275 HD
ENDBRANCH  16  21
ENDBRANCH   4  16
TORSDOF 10
ENDMDL
MODEL 8
REMARK VINA RESULT:      -4.9      2.173      3.006
REMARK  10 active torsions:
REMARK  status: ('A' for Active; 'I' for Inactive)
REMARK    1  A    between atoms: C_1  and  N_12 
REMARK    2  A    between atoms: C_1  and  C_19 
REMARK    3  A    between atoms: N_4  and  C_9 
REMARK       I    between atoms: N_4  and  C_24 
REMARK    4  A    between atoms: C_7  and  C_19 
REMARK    5  A    between atoms: C_7  and  C_9 
REMARK    6  A    between atoms: C_9  and  C_13 
REMARK    7  A    between atoms: O_10  and  C_20 
REMARK    8  A    between atoms: C_20  and  C_23 
REMARK    9  A    between atoms: N_22  and  C_23 
REMARK   10  A    between atoms: C_23  and  C_24 
ROOT
HETATM    1  N           1     -34.594  -1.804 -13.509  0.00  0.00    -0.345 N 
HETATM    2  H           1     -33.747  -1.695 -14.052  0.00  0.00     0.163 HD
HETATM    3  O           1     -35.707  -2.949 -11.947  0.00  0.00    -0.271 OA
HETATM    4  C           1     -34.695  -2.817 -12.595  0.00  0.00     0.251 C 
ENDROOT
BRANCH   1   5
HETATM    5  C           1     -35.702  -0.888 -13.701  0.00  0.00     0.185 C 
BRANCH   5   6
HETATM    6  C           1     -35.406   0.423 -12.986  0.00  0.00     0.038 C 
BRANCH   6   7
HETATM    7  C           1     -36.056   0.411 -11.610  0.00  0.00     0.030 C 
BRANCH   7   8
HETATM    8  C           1     -37.497  -0.064 -11.732  0.00  0.00     0.230 C 
BRANCH   8   9
HETATM    9  N           1     -37.841  -0.929 -10.556  0.00  0.00    -0.079 N 
HETATM   10  H           1     -37.404  -1.871 -10.676  0.00  0.00     0.274 HD
HETATM   11  H           1     -37.479  -0.487  -9.682  0.00  0.00     0.274 HD
HETATM   12  H           1     -38.879  -1.033 -10.492  0.00  0.00     0.274 HD
ENDBRANCH   8   9
ENDBRANCH   7   8
ENDBRANCH   6   7
ENDBRANCH   5   6
BRANCH   5  13
HETATM   13  C           1     -35.890  -0.628 -15.176  0.00  0.00     0.196 C 
HETATM   14  O           1     -35.110  -1.145 -16.006  0.00  0.00    -0.646 OA
HETATM   15  O           1     -36.825   0.103 -15.567  0.00  0.00    -0.646 OA
ENDBRANCH   5  13
ENDBRANCH   1   5
BRANCH   4  16
HETATM   16  C           1     -33.543  -3.771 -12.395  0.00  0.00     0.302 C 
BRANCH  16  17
HETATM   17  C           1     -34.082  -5.169 -12.116  0.00  0.00     0.153 C 
HETATM   18  C           1     -34.495  -5.270 -10.654  0.00  0.00     0.042 C 
BRANCH  17  19
HETATM   19  O           1     -35.194  -5.414 -12.933  0.00  0.00    -0.393 OA
HETATM   20  H           1     -35.743  -4.651 -12.883  0.00  0.00     0.210 HD
ENDBRANCH  17  19
ENDBRANCH  16  17
BRANCH  16  21
HETATM   21  N           1     -32.713  -3.315 -11.231  0.00  0.00    -0.064 N 
HETATM   22  H           1     -32.457  -2.309 -11.358  0.00  0.00     0.275 HD
HETATM   23  H           1     -33.263  -3.425 -10.349  0.00  0.00     0.275 HD
HETATM   24  H           1     -31.845  -3.891 -11.175  0.00  0.00     0.275 HD
ENDBRANCH  16  21
ENDBRANCH   4  16
TORSDOF 10
ENDMDL
MODEL 9
REMARK VINA RESULT:      -4.9     16.563     18.754
REMARK  10 active torsions:
REMARK  status: ('A' for Active; 'I' for Inactive)
REMARK    1  A    between atoms: C_1  and  N_12 
REMARK    2  A    between atoms: C_1  and  C_19 
REMARK    3  A    between atoms: N_4  and  C_9 
REMARK       I    between atoms: N_4  and  C_24 
REMARK    4  A    between atoms: C_7  and  C_19 
REMARK    5  A    between atoms: C_7  and  C_9 
REMARK    6  A    between atoms: C_9  and  C_13 
REMARK    7  A    between atoms: O_10  and  C_20 
REMARK    8  A    between atoms: C_20  and  C_23 
REMARK    9  A    between atoms: N_22  and  C_23 
REMARK   10  A    between atoms: C_23  and  C_24 
ROOT
HETATM    1  N           1     -21.813  -9.217  -1.911  0.00  0.00    -0.345 N 
HETATM    2  H           1     -22.455  -9.413  -2.669  0.00  0.00     0.163 HD
HETATM    3  O           1     -20.731  -9.964  -0.106  0.00  0.00    -0.271 OA
HETATM    4  C           1     -21.496 -10.198  -1.011  0.00  0.00     0.251 C 
ENDROOT
BRANCH   1   5
HETATM    5  C           1     -21.232  -7.896  -1.778  0.00  0.00     0.185 C 
BRANCH   5   6
HETATM    6  C           1     -20.686  -7.443  -3.125  0.00  0.00     0.038 C 
BRANCH   6   7
HETATM    7  C           1     -21.406  -8.186  -4.242  0.00  0.00     0.030 C 
BRANCH   7   8
HETATM    8  C           1     -21.686  -7.229  -5.392  0.00  0.00     0.230 C 
BRANCH   8   9
HETATM    9  N           1     -22.724  -6.231  -4.972  0.00  0.00    -0.079 N 
HETATM   10  H           1     -23.372  -6.044  -5.770  0.00  0.00     0.274 HD
HETATM   11  H           1     -23.268  -6.613  -4.166  0.00  0.00     0.274 HD
HETATM   12  H           1     -22.257  -5.341  -4.688  0.00  0.00     0.274 HD
ENDBRANCH   8   9
ENDBRANCH   7   8
ENDBRANCH   6   7
ENDBRANCH   5   6
BRANCH   5  13
HETATM   13  C           1     -22.288  -6.925  -1.309  0.00  0.00     0.196 C 
HETATM   14  O           1     -22.455  -5.844  -1.914  0.00  0.00    -0.646 OA
HETATM   15  O           1     -22.998  -7.204  -0.319  0.00  0.00    -0.646 OA
ENDBRANCH   5  13
ENDBRANCH   1   5
BRANCH   4  16
HETATM   16  C           1     -22.102 -11.573  -1.150  0.00  0.00     0.302 C 
BRANCH  16  17
HETATM   17  C           1     -23.472 -11.595  -0.483  0.00  0.00     0.153 C 
HETATM   18  C           1     -23.447 -12.559   0.695  0.00  0.00     0.042 C 
BRANCH  17  19
HETATM   19  O           1     -23.790 -10.309  -0.027  0.00  0.00    -0.393 OA
HETATM   20  H           1     -22.977  -9.844   0.072  0.00  0.00     0.210 HD
ENDBRANCH  17  19
ENDBRANCH  16  17
BRANCH  16  21
HETATM   21  N           1     -21.210 -12.581  -0.488  0.00  0.00    -0.064 N 
HETATM   22  H           1     -20.573 -13.006  -1.201  0.00  0.00     0.275 HD
HETATM   23  H           1     -20.639 -12.108   0.250  0.00  0.00     0.275 HD
HETATM   24  H           1     -21.792 -13.330  -0.052  0.00  0.00     0.275 HD
ENDBRANCH  16  21
ENDBRANCH   4  16
TORSDOF 10
ENDMDL
