MODEL 1
REMARK VINA RESULT:      -5.8      0.000      0.000
REMARK  11 active torsions:
REMARK  status: ('A' for Active; 'I' for Inactive)
REMARK    1  A    between atoms: N_6  and  C_9 
REMARK    2  A    between atoms: Se_7  and  C_8 
REMARK    3  A    between atoms: C_8  and  C_9 
REMARK    4  A    between atoms: C_9  and  C_10 
REMARK       I    between atoms: C_10  and  N_11 
REMARK    5  A    between atoms: N_11  and  C_15 
REMARK    6  A    between atoms: C_14  and  C_15 
REMARK    7  A    between atoms: C_15  and  C_16 
REMARK    8  A    between atoms: C_16  and  C_17 
REMARK    9  A    between atoms: C_17  and  C_18 
REMARK   10  A    between atoms: C_18  and  C_19 
REMARK   11  A    between atoms: C_19  and  N_20 
ROOT
HETATM    1  H           1     -27.379  -6.999 -18.645  0.00  0.00     0.163 HD
HETATM    2  O           1     -24.290  -6.457 -18.576  0.00  0.00    -0.271 OA
HETATM    3  C           1     -25.345  -6.862 -19.003  0.00  0.00     0.249 C 
HETATM    4  N           1     -26.495  -6.659 -18.288  0.00  0.00    -0.345 N 
ENDROOT
BRANCH   4   5
HETATM    5  C           1     -26.447  -5.956 -17.021  0.00  0.00     0.185 C 
BRANCH   5   6
HETATM    6  C           1     -26.388  -6.958 -15.893  0.00  0.00     0.196 C 
HETATM    7  O           1     -27.445  -7.385 -15.381  0.00  0.00    -0.646 OA
HETATM    8  O           1     -25.282  -7.359 -15.472  0.00  0.00    -0.646 OA
ENDBRANCH   5   6
BRANCH   5   9
HETATM    9  C           1     -27.695  -5.096 -16.871  0.00  0.00     0.036 C 
BRANCH   9  10
HETATM   10  C           1     -28.623  -5.333 -18.055  0.00  0.00     0.004 C 
BRANCH  10  11
HETATM   11  C           1     -29.951  -5.888 -17.557  0.00  0.00     0.027 C 
BRANCH  11  12
HETATM   12  C           1     -30.192  -7.259 -18.175  0.00  0.00     0.229 C 
BRANCH  12  13
HETATM   13  N           1     -29.448  -8.300 -17.392  0.00  0.00    -0.079 N 
HETATM   14  H           1     -30.097  -9.079 -17.144  0.00  0.00     0.274 HD
HETATM   15  H           1     -29.067  -7.871 -16.518  0.00  0.00     0.274 HD
HETATM   16  H           1     -28.660  -8.673 -17.968  0.00  0.00     0.274 HD
ENDBRANCH  12  13
ENDBRANCH  11  12
ENDBRANCH  10  11
ENDBRANCH   9  10
ENDBRANCH   5   9
ENDBRANCH   4   5
BRANCH   3  17
HETATM   17  C           1     -25.394  -7.593 -20.322  0.00  0.00     0.274 C 
BRANCH  17  18
HETATM   18  N           1     -26.821  -7.896 -20.671  0.00  0.00    -0.067 N 
HETATM   19  H           1     -27.411  -7.838 -19.810  0.00  0.00     0.275 HD
HETATM   20  H           1     -27.162  -7.202 -21.375  0.00  0.00     0.275 HD
HETATM   21  H           1     -26.884  -8.859 -21.072  0.00  0.00     0.275 HD
ENDBRANCH  17  18
BRANCH  17  22
HETATM   22  C           1     -24.778  -6.723 -21.408  0.00  0.00     0.045 C 
BRANCH  22  23
HETATM   23 Se           1     -23.740  -7.839 -22.623  0.00  0.00     0.000 Se
HETATM   24  H           1     -24.681  -7.694 -23.746  0.00  0.00     0.000 HD
ENDBRANCH  22  23
ENDBRANCH  17  22
ENDBRANCH   3  17
TORSDOF 11
ENDMDL
MODEL 2
REMARK VINA RESULT:      -5.2      2.200      2.625
REMARK  11 active torsions:
REMARK  status: ('A' for Active; 'I' for Inactive)
REMARK    1  A    between atoms: N_6  and  C_9 
REMARK    2  A    between atoms: Se_7  and  C_8 
REMARK    3  A    between atoms: C_8  and  C_9 
REMARK    4  A    between atoms: C_9  and  C_10 
REMARK       I    between atoms: C_10  and  N_11 
REMARK    5  A    between atoms: N_11  and  C_15 
REMARK    6  A    between atoms: C_14  and  C_15 
REMARK    7  A    between atoms: C_15  and  C_16 
REMARK    8  A    between atoms: C_16  and  C_17 
REMARK    9  A    between atoms: C_17  and  C_18 
REMARK   10  A    between atoms: C_18  and  C_19 
REMARK   11  A    between atoms: C_19  and  N_20 
ROOT
HETATM    1  H           1     -26.028  -6.710 -17.657  0.00  0.00     0.163 HD
HETATM    2  O           1     -26.973  -5.882 -20.532  0.00  0.00    -0.271 OA
HETATM    3  C           1     -26.258  -6.362 -19.684  0.00  0.00     0.249 C 
HETATM    4  N           1     -26.628  -6.309 -18.367  0.00  0.00    -0.345 N 
ENDROOT
BRANCH   4   5
HETATM    5  C           1     -27.878  -5.679 -17.989  0.00  0.00     0.185 C 
BRANCH   5   6
HETATM    6  C           1     -27.677  -4.887 -16.720  0.00  0.00     0.196 C 
HETATM    7  O           1     -27.223  -5.446 -15.699  0.00  0.00    -0.646 OA
HETATM    8  O           1     -27.967  -3.671 -16.691  0.00  0.00    -0.646 OA
ENDBRANCH   5   6
BRANCH   5   9
HETATM    9  C           1     -28.936  -6.750 -17.757  0.00  0.00     0.036 C 
BRANCH   9  10
HETATM   10  C           1     -30.316  -6.170 -18.032  0.00  0.00     0.004 C 
BRANCH  10  11
HETATM   11  C           1     -30.900  -5.611 -16.741  0.00  0.00     0.027 C 
BRANCH  11  12
HETATM   12  C           1     -31.714  -4.362 -17.050  0.00  0.00     0.229 C 
BRANCH  12  13
HETATM   13  N           1     -30.819  -3.314 -17.642  0.00  0.00    -0.079 N 
HETATM   14  H           1     -30.822  -3.400 -18.683  0.00  0.00     0.274 HD
HETATM   15  H           1     -29.846  -3.445 -17.283  0.00  0.00     0.274 HD
HETATM   16  H           1     -31.166  -2.366 -17.370  0.00  0.00     0.274 HD
ENDBRANCH  12  13
ENDBRANCH  11  12
ENDBRANCH  10  11
ENDBRANCH   9  10
ENDBRANCH   5   9
ENDBRANCH   4   5
BRANCH   3  17
HETATM   17  C           1     -24.957  -7.017 -20.077  0.00  0.00     0.274 C 
BRANCH  17  18
HETATM   18  N           1     -24.334  -7.654 -18.871  0.00  0.00    -0.067 N 
HETATM   19  H           1     -23.910  -6.915 -18.266  0.00  0.00     0.275 HD
HETATM   20  H           1     -25.067  -8.168 -18.331  0.00  0.00     0.275 HD
HETATM   21  H           1     -23.591  -8.324 -19.175  0.00  0.00     0.275 HD
ENDBRANCH  17  18
BRANCH  17  22
HETATM   22  C           1     -25.222  -8.081 -21.133  0.00  0.00     0.045 C 
BRANCH  22  23
HETATM   23 Se           1     -23.879  -7.951 -22.539  0.00  0.00     0.000 Se
HETATM   24  H           1     -24.612  -8.813 -23.480  0.00  0.00     0.000 HD
ENDBRANCH  22  23
ENDBRANCH  17  22
ENDBRANCH   3  17
TORSDOF 11
ENDMDL
MODEL 3
REMARK VINA RESULT:      -5.0     12.386     14.224
REMARK  11 active torsions:
REMARK  status: ('A' for Active; 'I' for Inactive)
REMARK    1  A    between atoms: N_6  and  C_9 
REMARK    2  A    between atoms: Se_7  and  C_8 
REMARK    3  A    between atoms: C_8  and  C_9 
REMARK    4  A    between atoms: C_9  and  C_10 
REMARK       I    between atoms: C_10  and  N_11 
REMARK    5  A    between atoms: N_11  and  C_15 
REMARK    6  A    between atoms: C_14  and  C_15 
REMARK    7  A    between atoms: C_15  and  C_16 
REMARK    8  A    between atoms: C_16  and  C_17 
REMARK    9  A    between atoms: C_17  and  C_18 
REMARK   10  A    between atoms: C_18  and  C_19 
REMARK   11  A    between atoms: C_19  and  N_20 
ROOT
HETATM    1  H           1     -20.588  -4.610  -4.790  0.00  0.00     0.163 HD
HETATM    2  O           1     -22.144  -7.333  -4.884  0.00  0.00    -0.271 OA
HETATM    3  C           1     -21.541  -6.406  -4.398  0.00  0.00     0.249 C 
HETATM    4  N           1     -21.094  -5.386  -5.196  0.00  0.00    -0.345 N 
ENDROOT
BRANCH   4   5
HETATM    5  C           1     -21.346  -5.419  -6.624  0.00  0.00     0.185 C 
BRANCH   5   6
HETATM    6  C           1     -20.060  -5.721  -7.354  0.00  0.00     0.196 C 
HETATM    7  O           1     -19.599  -4.899  -8.175  0.00  0.00    -0.646 OA
HETATM    8  O           1     -19.456  -6.794  -7.138  0.00  0.00    -0.646 OA
ENDBRANCH   5   6
BRANCH   5   9
HETATM    9  C           1     -21.881  -4.067  -7.076  0.00  0.00     0.036 C 
BRANCH   9  10
HETATM   10  C           1     -23.199  -4.262  -7.814  0.00  0.00     0.004 C 
BRANCH  10  11
HETATM   11  C           1     -22.993  -4.002  -9.300  0.00  0.00     0.027 C 
BRANCH  11  12
HETATM   12  C           1     -24.227  -4.452 -10.070  0.00  0.00     0.229 C 
BRANCH  12  13
HETATM   13  N           1     -25.392  -3.582  -9.702  0.00  0.00    -0.079 N 
HETATM   14  H           1     -26.278  -4.034 -10.023  0.00  0.00     0.274 HD
HETATM   15  H           1     -25.289  -2.650 -10.163  0.00  0.00     0.274 HD
HETATM   16  H           1     -25.420  -3.458  -8.666  0.00  0.00     0.274 HD
ENDBRANCH  12  13
ENDBRANCH  11  12
ENDBRANCH  10  11
ENDBRANCH   9  10
ENDBRANCH   5   9
ENDBRANCH   4   5
BRANCH   3  17
HETATM   17  C           1     -21.279  -6.371  -2.913  0.00  0.00     0.274 C 
BRANCH  17  18
HETATM   18  N           1     -22.499  -5.866  -2.202  0.00  0.00    -0.067 N 
HETATM   19  H           1     -23.350  -6.099  -2.763  0.00  0.00     0.275 HD
HETATM   20  H           1     -22.567  -6.318  -1.262  0.00  0.00     0.275 HD
HETATM   21  H           1     -22.430  -4.829  -2.087  0.00  0.00     0.275 HD
ENDBRANCH  17  18
BRANCH  17  22
HETATM   22  C           1     -20.949  -7.774  -2.422  0.00  0.00     0.045 C 
BRANCH  22  23
HETATM   23 Se           1     -21.720  -8.042  -0.653  0.00  0.00     0.000 Se
HETATM   24  H           1     -20.426  -7.982   0.047  0.00  0.00     0.000 HD
ENDBRANCH  22  23
ENDBRANCH  17  22
ENDBRANCH   3  17
TORSDOF 11
ENDMDL
MODEL 4
REMARK VINA RESULT:      -4.7     12.699     14.434
REMARK  11 active torsions:
REMARK  status: ('A' for Active; 'I' for Inactive)
REMARK    1  A    between atoms: N_6  and  C_9 
REMARK    2  A    between atoms: Se_7  and  C_8 
REMARK    3  A    between atoms: C_8  and  C_9 
REMARK    4  A    between atoms: C_9  and  C_10 
REMARK       I    between atoms: C_10  and  N_11 
REMARK    5  A    between atoms: N_11  and  C_15 
REMARK    6  A    between atoms: C_14  and  C_15 
REMARK    7  A    between atoms: C_15  and  C_16 
REMARK    8  A    between atoms: C_16  and  C_17 
REMARK    9  A    between atoms: C_17  and  C_18 
REMARK   10  A    between atoms: C_18  and  C_19 
REMARK   11  A    between atoms: C_19  and  N_20 
ROOT
HETATM    1  H           1     -21.828  -7.015  -6.967  0.00  0.00     0.163 HD
HETATM    2  O           1     -20.395  -4.319  -6.249  0.00  0.00    -0.271 OA
HETATM    3  C           1     -21.025  -5.108  -6.911  0.00  0.00     0.249 C 
HETATM    4  N           1     -21.301  -6.354  -6.412  0.00  0.00    -0.345 N 
ENDROOT
BRANCH   4   5
HETATM    5  C           1     -20.837  -6.724  -5.089  0.00  0.00     0.185 C 
BRANCH   5   6
HETATM    6  C           1     -20.407  -8.171  -5.095  0.00  0.00     0.196 C 
HETATM    7  O           1     -19.464  -8.546  -4.365  0.00  0.00    -0.646 OA
HETATM    8  O           1     -20.994  -8.994  -5.830  0.00  0.00    -0.646 OA
ENDBRANCH   5   6
BRANCH   5   9
HETATM    9  C           1     -21.965  -6.533  -4.084  0.00  0.00     0.036 C 
BRANCH   9  10
HETATM   10  C           1     -21.387  -6.082  -2.750  0.00  0.00     0.004 C 
BRANCH  10  11
HETATM   11  C           1     -22.315  -6.512  -1.621  0.00  0.00     0.027 C 
BRANCH  11  12
HETATM   12  C           1     -21.782  -7.789  -0.985  0.00  0.00     0.229 C 
BRANCH  12  13
HETATM   13  N           1     -20.375  -8.030  -1.447  0.00  0.00    -0.079 N 
HETATM   14  H           1     -20.336  -8.921  -1.991  0.00  0.00     0.274 HD
HETATM   15  H           1     -19.744  -8.099  -0.617  0.00  0.00     0.274 HD
HETATM   16  H           1     -20.067  -7.238  -2.053  0.00  0.00     0.274 HD
ENDBRANCH  12  13
ENDBRANCH  11  12
ENDBRANCH  10  11
ENDBRANCH   9  10
ENDBRANCH   5   9
ENDBRANCH   4   5
BRANCH   3  17
HETATM   17  C           1     -21.508  -4.723  -8.287  0.00  0.00     0.274 C 
BRANCH  17  18
HETATM   18  N           1     -22.449  -3.560  -8.179  0.00  0.00    -0.067 N 
HETATM   19  H           1     -23.245  -3.693  -8.843  0.00  0.00     0.275 HD
HETATM   20  H           1     -22.816  -3.500  -7.202  0.00  0.00     0.275 HD
HETATM   21  H           1     -21.941  -2.678  -8.416  0.00  0.00     0.275 HD
ENDBRANCH  17  18
BRANCH  17  22
HETATM   22  C           1     -20.318  -4.334  -9.153  0.00  0.00     0.045 C 
BRANCH  22  23
HETATM   23 Se           1     -20.913  -4.056 -10.988  0.00  0.00     0.000 Se
HETATM   24  H           1     -21.526  -5.388 -11.114  0.00  0.00     0.000 HD
ENDBRANCH  22  23
ENDBRANCH  17  22
ENDBRANCH   3  17
TORSDOF 11
ENDMDL
MODEL 5
REMARK VINA RESULT:      -4.7     12.486     14.242
REMARK  11 active torsions:
REMARK  status: ('A' for Active; 'I' for Inactive)
REMARK    1  A    between atoms: N_6  and  C_9 
REMARK    2  A    between atoms: Se_7  and  C_8 
REMARK    3  A    between atoms: C_8  and  C_9 
REMARK    4  A    between atoms: C_9  and  C_10 
REMARK       I    between atoms: C_10  and  N_11 
REMARK    5  A    between atoms: N_11  and  C_15 
REMARK    6  A    between atoms: C_14  and  C_15 
REMARK    7  A    between atoms: C_15  and  C_16 
REMARK    8  A    between atoms: C_16  and  C_17 
REMARK    9  A    between atoms: C_17  and  C_18 
REMARK   10  A    between atoms: C_18  and  C_19 
REMARK   11  A    between atoms: C_19  and  N_20 
ROOT
HETATM    1  H           1     -21.368  -8.498  -6.363  0.00  0.00     0.163 HD
HETATM    2  O           1     -19.169  -8.694  -4.135  0.00  0.00    -0.271 OA
HETATM    3  C           1     -19.946  -9.079  -4.976  0.00  0.00     0.249 C 
HETATM    4  N           1     -20.717  -8.176  -5.659  0.00  0.00    -0.345 N 
ENDROOT
BRANCH   4   5
HETATM    5  C           1     -20.600  -6.759  -5.374  0.00  0.00     0.185 C 
BRANCH   5   6
HETATM    6  C           1     -21.798  -6.308  -4.574  0.00  0.00     0.196 C 
HETATM    7  O           1     -21.662  -5.981  -3.375  0.00  0.00    -0.646 OA
HETATM    8  O           1     -22.926  -6.263  -5.110  0.00  0.00    -0.646 OA
ENDBRANCH   5   6
BRANCH   5   9
HETATM    9  C           1     -20.540  -5.982  -6.681  0.00  0.00     0.036 C 
BRANCH   9  10
HETATM   10  C           1     -20.233  -4.519  -6.390  0.00  0.00     0.004 C 
BRANCH  10  11
HETATM   11  C           1     -21.235  -3.633  -7.118  0.00  0.00     0.027 C 
BRANCH  11  12
HETATM   12  C           1     -22.194  -4.504  -7.919  0.00  0.00     0.229 C 
BRANCH  12  13
HETATM   13  N           1     -23.602  -4.234  -7.478  0.00  0.00    -0.079 N 
HETATM   14  H           1     -23.841  -4.858  -6.676  0.00  0.00     0.274 HD
HETATM   15  H           1     -24.256  -4.419  -8.272  0.00  0.00     0.274 HD
HETATM   16  H           1     -23.689  -3.237  -7.181  0.00  0.00     0.274 HD
ENDBRANCH  12  13
ENDBRANCH  11  12
ENDBRANCH  10  11
ENDBRANCH   9  10
ENDBRANCH   5   9
ENDBRANCH   4   5
BRANCH   3  17
HETATM   17  C           1     -20.068 -10.553  -5.274  0.00  0.00     0.274 C 
BRANCH  17  18
HETATM   18  N           1     -21.132 -10.767  -6.308  0.00  0.00    -0.067 N 
HETATM   19  H           1     -20.783 -10.447  -7.239  0.00  0.00     0.275 HD
HETATM   20  H           1     -21.372 -11.783  -6.356  0.00  0.00     0.275 HD
HETATM   21  H           1     -21.984 -10.219  -6.049  0.00  0.00     0.275 HD
ENDBRANCH  17  18
BRANCH  17  22
HETATM   22  C           1     -18.738 -11.077  -5.797  0.00  0.00     0.045 C 
BRANCH  22  23
HETATM   23 Se           1     -19.061 -12.317  -7.266  0.00  0.00     0.000 Se
HETATM   24  H           1     -17.639 -12.442  -7.627  0.00  0.00     0.000 HD
ENDBRANCH  22  23
ENDBRANCH  17  22
ENDBRANCH   3  17
TORSDOF 11
ENDMDL
MODEL 6
REMARK VINA RESULT:      -4.5     11.478     13.449
REMARK  11 active torsions:
REMARK  status: ('A' for Active; 'I' for Inactive)
REMARK    1  A    between atoms: N_6  and  C_9 
REMARK    2  A    between atoms: Se_7  and  C_8 
REMARK    3  A    between atoms: C_8  and  C_9 
REMARK    4  A    between atoms: C_9  and  C_10 
REMARK       I    between atoms: C_10  and  N_11 
REMARK    5  A    between atoms: N_11  and  C_15 
REMARK    6  A    between atoms: C_14  and  C_15 
REMARK    7  A    between atoms: C_15  and  C_16 
REMARK    8  A    between atoms: C_16  and  C_17 
REMARK    9  A    between atoms: C_17  and  C_18 
REMARK   10  A    between atoms: C_18  and  C_19 
REMARK   11  A    between atoms: C_19  and  N_20 
ROOT
HETATM    1  H           1     -22.416  -6.441  -6.111  0.00  0.00     0.163 HD
HETATM    2  O           1     -20.158  -4.615  -4.927  0.00  0.00    -0.271 OA
HETATM    3  C           1     -20.948  -5.527  -4.974  0.00  0.00     0.249 C 
HETATM    4  N           1     -21.754  -5.678  -6.071  0.00  0.00    -0.345 N 
ENDROOT
BRANCH   4   5
HETATM    5  C           1     -21.657  -4.744  -7.176  0.00  0.00     0.185 C 
BRANCH   5   6
HETATM    6  C           1     -23.044  -4.362  -7.634  0.00  0.00     0.196 C 
HETATM    7  O           1     -24.002  -4.415  -6.834  0.00  0.00    -0.646 OA
HETATM    8  O           1     -23.233  -3.994  -8.813  0.00  0.00    -0.646 OA
ENDBRANCH   5   6
BRANCH   5   9
HETATM    9  C           1     -20.904  -5.397  -8.328  0.00  0.00     0.036 C 
BRANCH   9  10
HETATM   10  C           1     -20.072  -4.347  -9.052  0.00  0.00     0.004 C 
BRANCH  10  11
HETATM   11  C           1     -20.008  -4.682 -10.536  0.00  0.00     0.027 C 
BRANCH  11  12
HETATM   12  C           1     -20.935  -3.752 -11.307  0.00  0.00     0.229 C 
BRANCH  12  13
HETATM   13  N           1     -22.094  -4.535 -11.849  0.00  0.00    -0.079 N 
HETATM   14  H           1     -22.698  -3.908 -12.426  0.00  0.00     0.274 HD
HETATM   15  H           1     -22.651  -4.924 -11.055  0.00  0.00     0.274 HD
HETATM   16  H           1     -21.739  -5.318 -12.441  0.00  0.00     0.274 HD
ENDBRANCH  12  13
ENDBRANCH  11  12
ENDBRANCH  10  11
ENDBRANCH   9  10
ENDBRANCH   5   9
ENDBRANCH   4   5
BRANCH   3  17
HETATM   17  C           1     -21.049  -6.499  -3.824  0.00  0.00     0.274 C 
BRANCH  17  18
HETATM   18  N           1     -22.186  -6.100  -2.932  0.00  0.00    -0.067 N 
HETATM   19  H           1     -23.073  -6.084  -3.484  0.00  0.00     0.275 HD
HETATM   20  H           1     -22.274  -6.789  -2.151  0.00  0.00     0.275 HD
HETATM   21  H           1     -22.003  -5.149  -2.539  0.00  0.00     0.275 HD
ENDBRANCH  17  18
BRANCH  17  22
HETATM   22  C           1     -21.294  -7.901  -4.365  0.00  0.00     0.045 C 
BRANCH  22  23
HETATM   23 Se           1     -19.597  -8.697  -4.899  0.00  0.00     0.000 Se
HETATM   24  H           1     -18.891  -7.410  -4.998  0.00  0.00     0.000 HD
ENDBRANCH  22  23
ENDBRANCH  17  22
ENDBRANCH   3  17
TORSDOF 11
ENDMDL
MODEL 7
REMARK VINA RESULT:      -4.3     13.583     15.395
REMARK  11 active torsions:
REMARK  status: ('A' for Active; 'I' for Inactive)
REMARK    1  A    between atoms: N_6  and  C_9 
REMARK    2  A    between atoms: Se_7  and  C_8 
REMARK    3  A    between atoms: C_8  and  C_9 
REMARK    4  A    between atoms: C_9  and  C_10 
REMARK       I    between atoms: C_10  and  N_11 
REMARK    5  A    between atoms: N_11  and  C_15 
REMARK    6  A    between atoms: C_14  and  C_15 
REMARK    7  A    between atoms: C_15  and  C_16 
REMARK    8  A    between atoms: C_16  and  C_17 
REMARK    9  A    between atoms: C_17  and  C_18 
REMARK   10  A    between atoms: C_18  and  C_19 
REMARK   11  A    between atoms: C_19  and  N_20 
ROOT
HETATM    1  H           1     -21.547  -7.294  -4.025  0.00  0.00     0.163 HD
HETATM    2  O           1     -19.557  -7.376  -6.449  0.00  0.00    -0.271 OA
HETATM    3  C           1     -20.421  -6.940  -5.725  0.00  0.00     0.249 C 
HETATM    4  N           1     -20.823  -7.658  -4.630  0.00  0.00    -0.345 N 
ENDROOT
BRANCH   4   5
HETATM    5  C           1     -20.211  -8.940  -4.339  0.00  0.00     0.185 C 
BRANCH   5   6
HETATM    6  C           1     -21.098 -10.048  -4.854  0.00  0.00     0.196 C 
HETATM    7  O           1     -21.953 -10.564  -4.104  0.00  0.00    -0.646 OA
HETATM    8  O           1     -20.975 -10.449  -6.032  0.00  0.00    -0.646 OA
ENDBRANCH   5   6
BRANCH   5   9
HETATM    9  C           1     -20.036  -9.089  -2.834  0.00  0.00     0.036 C 
BRANCH   9  10
HETATM   10  C           1     -20.501  -7.815  -2.139  0.00  0.00     0.004 C 
BRANCH  10  11
HETATM   11  C           1     -21.635  -8.145  -1.179  0.00  0.00     0.027 C 
BRANCH  11  12
HETATM   12  C           1     -22.415  -6.876  -0.858  0.00  0.00     0.229 C 
BRANCH  12  13
HETATM   13  N           1     -22.314  -5.921  -2.011  0.00  0.00    -0.079 N 
HETATM   14  H           1     -21.469  -6.151  -2.580  0.00  0.00     0.274 HD
HETATM   15  H           1     -22.236  -4.945  -1.647  0.00  0.00     0.274 HD
HETATM   16  H           1     -23.168  -6.004  -2.607  0.00  0.00     0.274 HD
ENDBRANCH  12  13
ENDBRANCH  11  12
ENDBRANCH  10  11
ENDBRANCH   9  10
ENDBRANCH   5   9
ENDBRANCH   4   5
BRANCH   3  17
HETATM   17  C           1     -21.057  -5.606  -6.028  0.00  0.00     0.274 C 
BRANCH  17  18
HETATM   18  N           1     -20.185  -4.506  -5.500  0.00  0.00    -0.067 N 
HETATM   19  H           1     -19.246  -4.893  -5.254  0.00  0.00     0.275 HD
HETATM   20  H           1     -20.076  -3.767  -6.231  0.00  0.00     0.275 HD
HETATM   21  H           1     -20.625  -4.091  -4.647  0.00  0.00     0.275 HD
ENDBRANCH  17  18
BRANCH  17  22
HETATM   22  C           1     -21.218  -5.450  -7.533  0.00  0.00     0.045 C 
BRANCH  22  23
HETATM   23 Se           1     -19.908  -4.168  -8.197  0.00  0.00     0.000 Se
HETATM   24  H           1     -20.745  -3.718  -9.321  0.00  0.00     0.000 HD
ENDBRANCH  22  23
ENDBRANCH  17  22
ENDBRANCH   3  17
TORSDOF 11
ENDMDL
MODEL 8
REMARK VINA RESULT:      -4.3     14.253     15.982
REMARK  11 active torsions:
REMARK  status: ('A' for Active; 'I' for Inactive)
REMARK    1  A    between atoms: N_6  and  C_9 
REMARK    2  A    between atoms: Se_7  and  C_8 
REMARK    3  A    between atoms: C_8  and  C_9 
REMARK    4  A    between atoms: C_9  and  C_10 
REMARK       I    between atoms: C_10  and  N_11 
REMARK    5  A    between atoms: N_11  and  C_15 
REMARK    6  A    between atoms: C_14  and  C_15 
REMARK    7  A    between atoms: C_15  and  C_16 
REMARK    8  A    between atoms: C_16  and  C_17 
REMARK    9  A    between atoms: C_17  and  C_18 
REMARK   10  A    between atoms: C_18  and  C_19 
REMARK   11  A    between atoms: C_19  and  N_20 
ROOT
HETATM    1  H           1     -19.277  -7.315  -4.553  0.00  0.00     0.163 HD
HETATM    2  O           1     -21.040  -9.740  -5.477  0.00  0.00    -0.271 OA
HETATM    3  C           1     -20.038  -9.137  -5.176  0.00  0.00     0.249 C 
HETATM    4  N           1     -20.117  -7.821  -4.804  0.00  0.00    -0.345 N 
ENDROOT
BRANCH   4   5
HETATM    5  C           1     -21.403  -7.152  -4.772  0.00  0.00     0.185 C 
BRANCH   5   6
HETATM    6  C           1     -21.550  -6.287  -6.000  0.00  0.00     0.196 C 
HETATM    7  O           1     -20.874  -6.532  -7.022  0.00  0.00    -0.646 OA
HETATM    8  O           1     -22.348  -5.324  -5.994  0.00  0.00    -0.646 OA
ENDBRANCH   5   6
BRANCH   5   9
HETATM    9  C           1     -21.491  -6.282  -3.525  0.00  0.00     0.036 C 
BRANCH   9  10
HETATM   10  C           1     -21.246  -7.138  -2.289  0.00  0.00     0.004 C 
BRANCH  10  11
HETATM   11  C           1     -22.261  -6.779  -1.213  0.00  0.00     0.027 C 
BRANCH  11  12
HETATM   12  C           1     -22.164  -7.779  -0.069  0.00  0.00     0.229 C 
BRANCH  12  13
HETATM   13  N           1     -23.517  -7.966   0.551  0.00  0.00    -0.079 N 
HETATM   14  H           1     -24.166  -8.387  -0.151  0.00  0.00     0.274 HD
HETATM   15  H           1     -23.888  -7.040   0.859  0.00  0.00     0.274 HD
HETATM   16  H           1     -23.437  -8.602   1.376  0.00  0.00     0.274 HD
ENDBRANCH  12  13
ENDBRANCH  11  12
ENDBRANCH  10  11
ENDBRANCH   9  10
ENDBRANCH   5   9
ENDBRANCH   4   5
BRANCH   3  17
HETATM   17  C           1     -18.700  -9.833  -5.209  0.00  0.00     0.274 C 
BRANCH  17  18
HETATM   18  N           1     -17.906  -9.331  -6.379  0.00  0.00    -0.067 N 
HETATM   19  H           1     -18.501  -9.351  -7.238  0.00  0.00     0.275 HD
HETATM   20  H           1     -17.593  -8.352  -6.194  0.00  0.00     0.275 HD
HETATM   21  H           1     -17.070  -9.944  -6.520  0.00  0.00     0.275 HD
ENDBRANCH  17  18
BRANCH  17  22
HETATM   22  C           1     -17.944  -9.543  -3.920  0.00  0.00     0.045 C 
BRANCH  22  23
HETATM   23 Se           1     -16.068 -10.024  -4.145  0.00  0.00     0.000 Se
HETATM   24  H           1     -16.351 -11.418  -4.523  0.00  0.00     0.000 HD
ENDBRANCH  22  23
ENDBRANCH  17  22
ENDBRANCH   3  17
TORSDOF 11
ENDMDL
MODEL 9
REMARK VINA RESULT:      -4.2     12.168     14.078
REMARK  11 active torsions:
REMARK  status: ('A' for Active; 'I' for Inactive)
REMARK    1  A    between atoms: N_6  and  C_9 
REMARK    2  A    between atoms: Se_7  and  C_8 
REMARK    3  A    between atoms: C_8  and  C_9 
REMARK    4  A    between atoms: C_9  and  C_10 
REMARK       I    between atoms: C_10  and  N_11 
REMARK    5  A    between atoms: N_11  and  C_15 
REMARK    6  A    between atoms: C_14  and  C_15 
REMARK    7  A    between atoms: C_15  and  C_16 
REMARK    8  A    between atoms: C_16  and  C_17 
REMARK    9  A    between atoms: C_17  and  C_18 
REMARK   10  A    between atoms: C_18  and  C_19 
REMARK   11  A    between atoms: C_19  and  N_20 
ROOT
HETATM    1  H           1     -22.543  -5.952  -5.063  0.00  0.00     0.163 HD
HETATM    2  O           1     -20.366  -8.013  -5.989  0.00  0.00    -0.271 OA
HETATM    3  C           1     -21.255  -7.554  -5.312  0.00  0.00     0.249 C 
HETATM    4  N           1     -21.799  -6.338  -5.630  0.00  0.00    -0.345 N 
ENDROOT
BRANCH   4   5
HETATM    5  C           1     -21.309  -5.602  -6.780  0.00  0.00     0.185 C 
BRANCH   5   6
HETATM    6  C           1     -20.043  -4.870  -6.405  0.00  0.00     0.196 C 
HETATM    7  O           1     -19.080  -4.841  -7.200  0.00  0.00    -0.646 OA
HETATM    8  O           1     -19.959  -4.295  -5.299  0.00  0.00    -0.646 OA
ENDBRANCH   5   6
BRANCH   5   9
HETATM    9  C           1     -22.363  -4.598  -7.227  0.00  0.00     0.036 C 
BRANCH   9  10
HETATM   10  C           1     -21.786  -3.707  -8.319  0.00  0.00     0.004 C 
BRANCH  10  11
HETATM   11  C           1     -21.875  -4.423  -9.660  0.00  0.00     0.027 C 
BRANCH  11  12
HETATM   12  C           1     -20.557  -4.267 -10.406  0.00  0.00     0.229 C 
BRANCH  12  13
HETATM   13  N           1     -20.736  -3.308 -11.546  0.00  0.00    -0.079 N 
HETATM   14  H           1     -20.167  -2.450 -11.371  0.00  0.00     0.274 HD
HETATM   15  H           1     -21.745  -3.048 -11.625  0.00  0.00     0.274 HD
HETATM   16  H           1     -20.422  -3.759 -12.434  0.00  0.00     0.274 HD
ENDBRANCH  12  13
ENDBRANCH  11  12
ENDBRANCH  10  11
ENDBRANCH   9  10
ENDBRANCH   5   9
ENDBRANCH   4   5
BRANCH   3  17
HETATM   17  C           1     -21.765  -8.319  -4.116  0.00  0.00     0.274 C 
BRANCH  17  18
HETATM   18  N           1     -21.524  -9.785  -4.321  0.00  0.00    -0.067 N 
HETATM   19  H           1     -20.881  -9.922  -5.133  0.00  0.00     0.275 HD
HETATM   20  H           1     -21.091 -10.190  -3.460  0.00  0.00     0.275 HD
HETATM   21  H           1     -22.434 -10.263  -4.513  0.00  0.00     0.275 HD
ENDBRANCH  17  18
BRANCH  17  22
HETATM   22  C           1     -21.033  -7.853  -2.865  0.00  0.00     0.045 C 
BRANCH  22  23
HETATM   23 Se           1     -22.058  -6.440  -2.000  0.00  0.00     0.000 Se
HETATM   24  H           1     -22.470  -7.277  -0.861  0.00  0.00     0.000 HD
ENDBRANCH  22  23
ENDBRANCH  17  22
ENDBRANCH   3  17
TORSDOF 11
ENDMDL
