MODEL 1
REMARK VINA RESULT:      -6.4      0.000      0.000
REMARK  8 active torsions:
REMARK  status: ('A' for Active; 'I' for Inactive)
REMARK    1  A    between atoms: C_1  and  C_9 
REMARK    2  A    between atoms: C_1  and  C_18 
REMARK       I    between atoms: C_2  and  N_3 
REMARK    3  A    between atoms: C_2  and  C_9 
REMARK    4  A    between atoms: N_3  and  C_12 
REMARK    5  A    between atoms: C_7  and  C_12 
REMARK    6  A    between atoms: C_9  and  N_16 
REMARK    7  A    between atoms: C_10  and  C_20 
REMARK    8  A    between atoms: C_12  and  C_20 
ROOT
HETATM    1  C           1     -26.326  -6.393 -18.265  0.00  0.00     0.249 C 
HETATM    2  N           1     -27.530  -6.710 -18.834  0.00  0.00    -0.345 N 
HETATM    3  H           1     -27.560  -7.118 -19.760  0.00  0.00     0.163 HD
HETATM    4  O           1     -26.289  -5.906 -17.161  0.00  0.00    -0.271 OA
ENDROOT
BRANCH   1   5
HETATM    5  C           1     -25.044  -6.650 -19.019  0.00  0.00     0.278 C 
BRANCH   5   6
HETATM    6  C           1     -25.368  -7.211 -20.398  0.00  0.00     0.021 C 
HETATM    7  C           1     -25.468  -6.068 -21.400  0.00  0.00     0.012 C 
BRANCH   6   8
HETATM    8  C           1     -24.264  -8.167 -20.829  0.00  0.00     0.002 C 
HETATM    9  C           1     -23.928  -7.928 -22.295  0.00  0.00     0.005 C 
ENDBRANCH   6   8
ENDBRANCH   5   6
BRANCH   5  10
HETATM   10  N           1     -24.208  -7.638 -18.262  0.00  0.00    -0.066 N 
HETATM   11  H           1     -23.350  -7.863 -18.814  0.00  0.00     0.275 HD
HETATM   12  H           1     -24.759  -8.510 -18.101  0.00  0.00     0.275 HD
HETATM   13  H           1     -23.931  -7.226 -17.341  0.00  0.00     0.275 HD
ENDBRANCH   5  10
ENDBRANCH   1   5
BRANCH   2  14
HETATM   14  C           1     -28.761  -6.462 -18.110  0.00  0.00     0.185 C 
BRANCH  14  15
HETATM   15  C           1     -29.749  -7.564 -18.407  0.00  0.00     0.196 C 
HETATM   16  O           1     -29.465  -8.449 -19.243  0.00  0.00    -0.646 OA
HETATM   17  O           1     -30.851  -7.593 -17.818  0.00  0.00    -0.646 OA
ENDBRANCH  14  15
BRANCH  14  18
HETATM   18  C           1     -29.346  -5.125 -18.547  0.00  0.00     0.040 C 
BRANCH  18  19
HETATM   19  C           1     -29.720  -4.308 -17.317  0.00  0.00    -0.020 C 
HETATM   20  C           1     -28.708  -3.186 -17.126  0.00  0.00     0.009 C 
HETATM   21  C           1     -31.110  -3.713 -17.508  0.00  0.00     0.009 C 
ENDBRANCH  18  19
ENDBRANCH  14  18
ENDBRANCH   2  14
TORSDOF 8
ENDMDL
MODEL 2
REMARK VINA RESULT:      -6.3     10.517     11.915
REMARK  8 active torsions:
REMARK  status: ('A' for Active; 'I' for Inactive)
REMARK    1  A    between atoms: C_1  and  C_9 
REMARK    2  A    between atoms: C_1  and  C_18 
REMARK       I    between atoms: C_2  and  N_3 
REMARK    3  A    between atoms: C_2  and  C_9 
REMARK    4  A    between atoms: N_3  and  C_12 
REMARK    5  A    between atoms: C_7  and  C_12 
REMARK    6  A    between atoms: C_9  and  N_16 
REMARK    7  A    between atoms: C_10  and  C_20 
REMARK    8  A    between atoms: C_12  and  C_20 
ROOT
HETATM    1  C           1     -34.298  -2.399 -11.615  0.00  0.00     0.249 C 
HETATM    2  N           1     -35.382  -1.901 -12.286  0.00  0.00    -0.345 N 
HETATM    3  H           1     -35.903  -2.496 -12.918  0.00  0.00     0.163 HD
HETATM    4  O           1     -33.676  -1.688 -10.862  0.00  0.00    -0.271 OA
ENDROOT
BRANCH   1   5
HETATM    5  C           1     -33.878  -3.834 -11.818  0.00  0.00     0.278 C 
BRANCH   5   6
HETATM    6  C           1     -34.335  -4.670 -10.630  0.00  0.00     0.021 C 
HETATM    7  C           1     -35.855  -4.641 -10.542  0.00  0.00     0.012 C 
BRANCH   6   8
HETATM    8  C           1     -33.866  -6.108 -10.810  0.00  0.00     0.002 C 
HETATM    9  C           1     -34.764  -7.040 -10.009  0.00  0.00     0.005 C 
ENDBRANCH   6   8
ENDBRANCH   5   6
BRANCH   5  10
HETATM   10  N           1     -32.385  -3.907 -11.936  0.00  0.00    -0.066 N 
HETATM   11  H           1     -32.129  -4.521 -12.743  0.00  0.00     0.275 HD
HETATM   12  H           1     -31.985  -4.303 -11.056  0.00  0.00     0.275 HD
HETATM   13  H           1     -32.001  -2.947 -12.093  0.00  0.00     0.275 HD
ENDBRANCH   5  10
ENDBRANCH   1   5
BRANCH   2  14
HETATM   14  C           1     -35.784  -0.522 -12.092  0.00  0.00     0.185 C 
BRANCH  14  15
HETATM   15  C           1     -36.735  -0.436 -10.923  0.00  0.00     0.196 C 
HETATM   16  O           1     -37.787  -1.111 -10.922  0.00  0.00    -0.646 OA
HETATM   17  O           1     -36.471   0.309  -9.955  0.00  0.00    -0.646 OA
ENDBRANCH  14  15
BRANCH  14  18
HETATM   18  C           1     -36.479  -0.015 -13.350  0.00  0.00     0.040 C 
BRANCH  18  19
HETATM   19  C           1     -35.433   0.322 -14.406  0.00  0.00    -0.020 C 
HETATM   20  C           1     -36.126   0.871 -15.647  0.00  0.00     0.009 C 
HETATM   21  C           1     -34.474   1.369 -13.854  0.00  0.00     0.009 C 
ENDBRANCH  18  19
ENDBRANCH  14  18
ENDBRANCH   2  14
TORSDOF 8
ENDMDL
MODEL 3
REMARK VINA RESULT:      -6.0      9.564     11.125
REMARK  8 active torsions:
REMARK  status: ('A' for Active; 'I' for Inactive)
REMARK    1  A    between atoms: C_1  and  C_9 
REMARK    2  A    between atoms: C_1  and  C_18 
REMARK       I    between atoms: C_2  and  N_3 
REMARK    3  A    between atoms: C_2  and  C_9 
REMARK    4  A    between atoms: N_3  and  C_12 
REMARK    5  A    between atoms: C_7  and  C_12 
REMARK    6  A    between atoms: C_9  and  N_16 
REMARK    7  A    between atoms: C_10  and  C_20 
REMARK    8  A    between atoms: C_12  and  C_20 
ROOT
HETATM    1  C           1     -35.120  -1.904 -12.716  0.00  0.00     0.249 C 
HETATM    2  N           1     -34.942  -1.577 -14.033  0.00  0.00    -0.345 N 
HETATM    3  H           1     -34.019  -1.626 -14.447  0.00  0.00     0.163 HD
HETATM    4  O           1     -36.220  -1.845 -12.222  0.00  0.00    -0.271 OA
ENDROOT
BRANCH   1   5
HETATM    5  C           1     -33.940  -2.339 -11.881  0.00  0.00     0.278 C 
BRANCH   5   6
HETATM    6  C           1     -33.853  -3.860 -11.875  0.00  0.00     0.021 C 
HETATM    7  C           1     -32.407  -4.287 -12.088  0.00  0.00     0.012 C 
BRANCH   6   8
HETATM    8  C           1     -34.347  -4.391 -10.536  0.00  0.00     0.002 C 
HETATM    9  C           1     -34.234  -5.910 -10.520  0.00  0.00     0.005 C 
ENDBRANCH   6   8
ENDBRANCH   5   6
BRANCH   5  10
HETATM   10  N           1     -34.113  -1.843 -10.476  0.00  0.00    -0.066 N 
HETATM   11  H           1     -33.508  -1.004 -10.326  0.00  0.00     0.275 HD
HETATM   12  H           1     -33.838  -2.595  -9.805  0.00  0.00     0.275 HD
HETATM   13  H           1     -35.113  -1.584 -10.319  0.00  0.00     0.275 HD
ENDBRANCH   5  10
ENDBRANCH   1   5
BRANCH   2  14
HETATM   14  C           1     -36.075  -1.158 -14.835  0.00  0.00     0.185 C 
BRANCH  14  15
HETATM   15  C           1     -35.733  -1.300 -16.299  0.00  0.00     0.196 C 
HETATM   16  O           1     -34.646  -1.813 -16.639  0.00  0.00    -0.646 OA
HETATM   17  O           1     -36.537  -0.905 -17.170  0.00  0.00    -0.646 OA
ENDBRANCH  14  15
BRANCH  14  18
HETATM   18  C           1     -36.403   0.298 -14.529  0.00  0.00     0.040 C 
BRANCH  18  19
HETATM   19  C           1     -35.233   1.181 -14.947  0.00  0.00    -0.020 C 
HETATM   20  C           1     -35.746   2.323 -15.814  0.00  0.00     0.009 C 
HETATM   21  C           1     -34.557   1.748 -13.706  0.00  0.00     0.009 C 
ENDBRANCH  18  19
ENDBRANCH  14  18
ENDBRANCH   2  14
TORSDOF 8
ENDMDL
MODEL 4
REMARK VINA RESULT:      -5.9     13.561     14.930
REMARK  8 active torsions:
REMARK  status: ('A' for Active; 'I' for Inactive)
REMARK    1  A    between atoms: C_1  and  C_9 
REMARK    2  A    between atoms: C_1  and  C_18 
REMARK       I    between atoms: C_2  and  N_3 
REMARK    3  A    between atoms: C_2  and  C_9 
REMARK    4  A    between atoms: N_3  and  C_12 
REMARK    5  A    between atoms: C_7  and  C_12 
REMARK    6  A    between atoms: C_9  and  N_16 
REMARK    7  A    between atoms: C_10  and  C_20 
REMARK    8  A    between atoms: C_12  and  C_20 
ROOT
HETATM    1  C           1     -21.183  -5.231  -6.199  0.00  0.00     0.249 C 
HETATM    2  N           1     -21.538  -6.512  -5.873  0.00  0.00    -0.345 N 
HETATM    3  H           1     -22.328  -6.950  -6.331  0.00  0.00     0.163 HD
HETATM    4  O           1     -20.242  -4.707  -5.653  0.00  0.00    -0.271 OA
ENDROOT
BRANCH   1   5
HETATM    5  C           1     -21.970  -4.471  -7.240  0.00  0.00     0.278 C 
BRANCH   5   6
HETATM    6  C           1     -21.667  -5.038  -8.620  0.00  0.00     0.021 C 
HETATM    7  C           1     -22.777  -4.643  -9.586  0.00  0.00     0.012 C 
BRANCH   6   8
HETATM    8  C           1     -20.341  -4.481  -9.118  0.00  0.00     0.002 C 
HETATM    9  C           1     -20.418  -4.252 -10.622  0.00  0.00     0.005 C 
ENDBRANCH   6   8
ENDBRANCH   5   6
BRANCH   5  10
HETATM   10  N           1     -21.584  -3.022  -7.199  0.00  0.00    -0.066 N 
HETATM   11  H           1     -21.703  -2.604  -8.149  0.00  0.00     0.275 HD
HETATM   12  H           1     -20.587  -2.936  -6.902  0.00  0.00     0.275 HD
HETATM   13  H           1     -22.196  -2.519  -6.517  0.00  0.00     0.275 HD
ENDBRANCH   5  10
ENDBRANCH   1   5
BRANCH   2  14
HETATM   14  C           1     -20.783  -7.241  -4.873  0.00  0.00     0.185 C 
BRANCH  14  15
HETATM   15  C           1     -20.249  -8.516  -5.479  0.00  0.00     0.196 C 
HETATM   16  O           1     -21.034  -9.441  -5.782  0.00  0.00    -0.646 OA
HETATM   17  O           1     -19.022  -8.648  -5.678  0.00  0.00    -0.646 OA
ENDBRANCH  14  15
BRANCH  14  18
HETATM   18  C           1     -21.693  -7.579  -3.698  0.00  0.00     0.040 C 
BRANCH  18  19
HETATM   19  C           1     -21.124  -6.968  -2.424  0.00  0.00    -0.020 C 
HETATM   20  C           1     -22.244  -6.293  -1.642  0.00  0.00     0.009 C 
HETATM   21  C           1     -20.498  -8.064  -1.572  0.00  0.00     0.009 C 
ENDBRANCH  18  19
ENDBRANCH  14  18
ENDBRANCH   2  14
TORSDOF 8
ENDMDL
MODEL 5
REMARK VINA RESULT:      -5.9      1.860      2.836
REMARK  8 active torsions:
REMARK  status: ('A' for Active; 'I' for Inactive)
REMARK    1  A    between atoms: C_1  and  C_9 
REMARK    2  A    between atoms: C_1  and  C_18 
REMARK       I    between atoms: C_2  and  N_3 
REMARK    3  A    between atoms: C_2  and  C_9 
REMARK    4  A    between atoms: N_3  and  C_12 
REMARK    5  A    between atoms: C_7  and  C_12 
REMARK    6  A    between atoms: C_9  and  N_16 
REMARK    7  A    between atoms: C_10  and  C_20 
REMARK    8  A    between atoms: C_12  and  C_20 
ROOT
HETATM    1  C           1     -26.259  -6.476 -19.438  0.00  0.00     0.249 C 
HETATM    2  N           1     -26.743  -6.352 -18.163  0.00  0.00    -0.345 N 
HETATM    3  H           1     -26.121  -6.470 -17.373  0.00  0.00     0.163 HD
HETATM    4  O           1     -27.000  -6.336 -20.381  0.00  0.00    -0.271 OA
ENDROOT
BRANCH   1   5
HETATM    5  C           1     -24.799  -6.787 -19.665  0.00  0.00     0.278 C 
BRANCH   5   6
HETATM    6  C           1     -24.649  -7.635 -20.921  0.00  0.00     0.021 C 
HETATM    7  C           1     -24.556  -6.725 -22.139  0.00  0.00     0.012 C 
BRANCH   6   8
HETATM    8  C           1     -23.384  -8.475 -20.818  0.00  0.00     0.002 C 
HETATM    9  C           1     -22.704  -8.539 -22.180  0.00  0.00     0.005 C 
ENDBRANCH   6   8
ENDBRANCH   5   6
BRANCH   5  10
HETATM   10  N           1     -24.260  -7.541 -18.486  0.00  0.00    -0.066 N 
HETATM   11  H           1     -23.281  -7.229 -18.291  0.00  0.00     0.275 HD
HETATM   12  H           1     -24.264  -8.564 -18.695  0.00  0.00     0.275 HD
HETATM   13  H           1     -24.858  -7.353 -17.649  0.00  0.00     0.275 HD
ENDBRANCH   5  10
ENDBRANCH   1   5
BRANCH   2  14
HETATM   14  C           1     -28.144  -6.054 -17.946  0.00  0.00     0.185 C 
BRANCH  14  15
HETATM   15  C           1     -28.284  -4.639 -17.439  0.00  0.00     0.196 C 
HETATM   16  O           1     -29.126  -3.872 -17.953  0.00  0.00    -0.646 OA
HETATM   17  O           1     -27.559  -4.235 -16.504  0.00  0.00    -0.646 OA
ENDBRANCH  14  15
BRANCH  14  18
HETATM   18  C           1     -28.714  -7.021 -16.915  0.00  0.00     0.040 C 
BRANCH  18  19
HETATM   19  C           1     -29.985  -7.658 -17.465  0.00  0.00    -0.020 C 
HETATM   20  C           1     -31.147  -6.687 -17.308  0.00  0.00     0.009 C 
HETATM   21  C           1     -29.790  -7.985 -18.940  0.00  0.00     0.009 C 
ENDBRANCH  18  19
ENDBRANCH  14  18
ENDBRANCH   2  14
TORSDOF 8
ENDMDL
MODEL 6
REMARK VINA RESULT:      -5.6     15.953     17.297
REMARK  8 active torsions:
REMARK  status: ('A' for Active; 'I' for Inactive)
REMARK    1  A    between atoms: C_1  and  C_9 
REMARK    2  A    between atoms: C_1  and  C_18 
REMARK       I    between atoms: C_2  and  N_3 
REMARK    3  A    between atoms: C_2  and  C_9 
REMARK    4  A    between atoms: N_3  and  C_12 
REMARK    5  A    between atoms: C_7  and  C_12 
REMARK    6  A    between atoms: C_9  and  N_16 
REMARK    7  A    between atoms: C_10  and  C_20 
REMARK    8  A    between atoms: C_12  and  C_20 
ROOT
HETATM    1  C           1     -21.414  -6.808  -3.833  0.00  0.00     0.249 C 
HETATM    2  N           1     -21.152  -8.095  -3.449  0.00  0.00    -0.345 N 
HETATM    3  H           1     -21.319  -8.858  -4.093  0.00  0.00     0.163 HD
HETATM    4  O           1     -21.216  -5.897  -3.065  0.00  0.00    -0.271 OA
ENDROOT
BRANCH   1   5
HETATM    5  C           1     -21.951  -6.526  -5.216  0.00  0.00     0.278 C 
BRANCH   5   6
HETATM    6  C           1     -21.128  -5.422  -5.866  0.00  0.00     0.021 C 
HETATM    7  C           1     -19.950  -6.037  -6.611  0.00  0.00     0.012 C 
BRANCH   6   8
HETATM    8  C           1     -22.000  -4.649  -6.846  0.00  0.00     0.002 C 
HETATM    9  C           1     -21.592  -4.996  -8.272  0.00  0.00     0.005 C 
ENDBRANCH   6   8
ENDBRANCH   5   6
BRANCH   5  10
HETATM   10  N           1     -23.382  -6.091  -5.117  0.00  0.00    -0.066 N 
HETATM   11  H           1     -23.665  -6.048  -4.111  0.00  0.00     0.275 HD
HETATM   12  H           1     -23.990  -6.775  -5.621  0.00  0.00     0.275 HD
HETATM   13  H           1     -23.489  -5.145  -5.549  0.00  0.00     0.275 HD
ENDBRANCH   5  10
ENDBRANCH   1   5
BRANCH   2  14
HETATM   14  C           1     -20.638  -8.365  -2.121  0.00  0.00     0.185 C 
BRANCH  14  15
HETATM   15  C           1     -19.524  -9.380  -2.212  0.00  0.00     0.196 C 
HETATM   16  O           1     -18.436  -9.067  -2.741  0.00  0.00    -0.646 OA
HETATM   17  O           1     -19.689 -10.532  -1.756  0.00  0.00    -0.646 OA
ENDBRANCH  14  15
BRANCH  14  18
HETATM   18  C           1     -21.757  -8.917  -1.247  0.00  0.00     0.040 C 
BRANCH  18  19
HETATM   19  C           1     -21.811  -8.136   0.061  0.00  0.00    -0.020 C 
HETATM   20  C           1     -23.264  -7.936   0.472  0.00  0.00     0.009 C 
HETATM   21  C           1     -21.077  -8.914   1.146  0.00  0.00     0.009 C 
ENDBRANCH  18  19
ENDBRANCH  14  18
ENDBRANCH   2  14
TORSDOF 8
ENDMDL
MODEL 7
REMARK VINA RESULT:      -5.5     13.812     15.322
REMARK  8 active torsions:
REMARK  status: ('A' for Active; 'I' for Inactive)
REMARK    1  A    between atoms: C_1  and  C_9 
REMARK    2  A    between atoms: C_1  and  C_18 
REMARK       I    between atoms: C_2  and  N_3 
REMARK    3  A    between atoms: C_2  and  C_9 
REMARK    4  A    between atoms: N_3  and  C_12 
REMARK    5  A    between atoms: C_7  and  C_12 
REMARK    6  A    between atoms: C_9  and  N_16 
REMARK    7  A    between atoms: C_10  and  C_20 
REMARK    8  A    between atoms: C_12  and  C_20 
ROOT
HETATM    1  C           1     -21.649  -5.565  -5.801  0.00  0.00     0.249 C 
HETATM    2  N           1     -20.889  -6.371  -4.998  0.00  0.00    -0.345 N 
HETATM    3  H           1     -19.880  -6.287  -5.007  0.00  0.00     0.163 HD
HETATM    4  O           1     -22.852  -5.665  -5.792  0.00  0.00    -0.271 OA
ENDROOT
BRANCH   1   5
HETATM    5  C           1     -20.983  -4.551  -6.700  0.00  0.00     0.278 C 
BRANCH   5   6
HETATM    6  C           1     -21.353  -4.835  -8.150  0.00  0.00     0.021 C 
HETATM    7  C           1     -22.365  -3.803  -8.628  0.00  0.00     0.012 C 
BRANCH   6   8
HETATM    8  C           1     -20.103  -4.758  -9.016  0.00  0.00     0.002 C 
HETATM    9  C           1     -20.490  -4.342 -10.430  0.00  0.00     0.005 C 
ENDBRANCH   6   8
ENDBRANCH   5   6
BRANCH   5  10
HETATM   10  N           1     -19.495  -4.639  -6.537  0.00  0.00    -0.066 N 
HETATM   11  H           1     -19.271  -5.132  -5.642  0.00  0.00     0.275 HD
HETATM   12  H           1     -19.089  -3.677  -6.516  0.00  0.00     0.275 HD
HETATM   13  H           1     -19.088  -5.172  -7.339  0.00  0.00     0.275 HD
ENDBRANCH   5  10
ENDBRANCH   1   5
BRANCH   2  14
HETATM   14  C           1     -21.528  -7.346  -4.136  0.00  0.00     0.185 C 
BRANCH  14  15
HETATM   15  C           1     -21.583  -6.809  -2.726  0.00  0.00     0.196 C 
HETATM   16  O           1     -22.410  -5.920  -2.428  0.00  0.00    -0.646 OA
HETATM   17  O           1     -20.803  -7.254  -1.857  0.00  0.00    -0.646 OA
ENDBRANCH  14  15
BRANCH  14  18
HETATM   18  C           1     -20.728  -8.642  -4.155  0.00  0.00     0.040 C 
BRANCH  18  19
HETATM   19  C           1     -21.678  -9.823  -4.308  0.00  0.00    -0.020 C 
HETATM   20  C           1     -21.168 -10.746  -5.407  0.00  0.00     0.009 C 
HETATM   21  C           1     -21.749 -10.589  -2.992  0.00  0.00     0.009 C 
ENDBRANCH  18  19
ENDBRANCH  14  18
ENDBRANCH   2  14
TORSDOF 8
ENDMDL
MODEL 8
REMARK VINA RESULT:      -5.4     16.369     17.963
REMARK  8 active torsions:
REMARK  status: ('A' for Active; 'I' for Inactive)
REMARK    1  A    between atoms: C_1  and  C_9 
REMARK    2  A    between atoms: C_1  and  C_18 
REMARK       I    between atoms: C_2  and  N_3 
REMARK    3  A    between atoms: C_2  and  C_9 
REMARK    4  A    between atoms: N_3  and  C_12 
REMARK    5  A    between atoms: C_7  and  C_12 
REMARK    6  A    between atoms: C_9  and  N_16 
REMARK    7  A    between atoms: C_10  and  C_20 
REMARK    8  A    between atoms: C_12  and  C_20 
ROOT
HETATM    1  C           1     -21.222  -8.561  -2.488  0.00  0.00     0.249 C 
HETATM    2  N           1     -20.377  -7.921  -3.354  0.00  0.00    -0.345 N 
HETATM    3  H           1     -19.840  -7.123  -3.040  0.00  0.00     0.163 HD
HETATM    4  O           1     -21.864  -9.513  -2.863  0.00  0.00    -0.271 OA
ENDROOT
BRANCH   1   5
HETATM    5  C           1     -21.353  -8.076  -1.064  0.00  0.00     0.278 C 
BRANCH   5   6
HETATM    6  C           1     -21.760  -9.236  -0.167  0.00  0.00     0.021 C 
HETATM    7  C           1     -21.004  -9.148   1.153  0.00  0.00     0.012 C 
BRANCH   6   8
HETATM    8  C           1     -23.257  -9.168   0.103  0.00  0.00     0.002 C 
HETATM    9  C           1     -23.875 -10.545  -0.108  0.00  0.00     0.005 C 
ENDBRANCH   6   8
ENDBRANCH   5   6
BRANCH   5  10
HETATM   10  N           1     -22.396  -7.001  -0.996  0.00  0.00    -0.066 N 
HETATM   11  H           1     -22.373  -6.437  -1.876  0.00  0.00     0.275 HD
HETATM   12  H           1     -22.203  -6.379  -0.179  0.00  0.00     0.275 HD
HETATM   13  H           1     -23.339  -7.438  -0.887  0.00  0.00     0.275 HD
ENDBRANCH   5  10
ENDBRANCH   1   5
BRANCH   2  14
HETATM   14  C           1     -20.253  -8.386  -4.722  0.00  0.00     0.185 C 
BRANCH  14  15
HETATM   15  C           1     -19.012  -9.236  -4.852  0.00  0.00     0.196 C 
HETATM   16  O           1     -18.165  -9.250  -3.933  0.00  0.00    -0.646 OA
HETATM   17  O           1     -18.832  -9.928  -5.877  0.00  0.00    -0.646 OA
ENDBRANCH  14  15
BRANCH  14  18
HETATM   18  C           1     -20.148  -7.188  -5.657  0.00  0.00     0.040 C 
BRANCH  18  19
HETATM   19  C           1     -20.900  -6.008  -5.057  0.00  0.00    -0.020 C 
HETATM   20  C           1     -20.262  -4.707  -5.527  0.00  0.00     0.009 C 
HETATM   21  C           1     -22.355  -6.052  -5.507  0.00  0.00     0.009 C 
ENDBRANCH  18  19
ENDBRANCH  14  18
ENDBRANCH   2  14
TORSDOF 8
ENDMDL
MODEL 9
REMARK VINA RESULT:      -5.3     17.245     18.393
REMARK  8 active torsions:
REMARK  status: ('A' for Active; 'I' for Inactive)
REMARK    1  A    between atoms: C_1  and  C_9 
REMARK    2  A    between atoms: C_1  and  C_18 
REMARK       I    between atoms: C_2  and  N_3 
REMARK    3  A    between atoms: C_2  and  C_9 
REMARK    4  A    between atoms: N_3  and  C_12 
REMARK    5  A    between atoms: C_7  and  C_12 
REMARK    6  A    between atoms: C_9  and  N_16 
REMARK    7  A    between atoms: C_10  and  C_20 
REMARK    8  A    between atoms: C_12  and  C_20 
ROOT
HETATM    1  C           1     -19.740  -9.885  -2.571  0.00  0.00     0.249 C 
HETATM    2  N           1     -19.966  -8.571  -2.259  0.00  0.00    -0.345 N 
HETATM    3  H           1     -19.188  -7.963  -2.037  0.00  0.00     0.163 HD
HETATM    4  O           1     -20.667 -10.611  -2.836  0.00  0.00    -0.271 OA
ENDROOT
BRANCH   1   5
HETATM    5  C           1     -18.330 -10.426  -2.582  0.00  0.00     0.278 C 
BRANCH   5   6
HETATM    6  C           1     -17.434  -9.493  -3.386  0.00  0.00     0.021 C 
HETATM    7  C           1     -16.013  -9.557  -2.838  0.00  0.00     0.012 C 
BRANCH   6   8
HETATM    8  C           1     -17.433  -9.924  -4.846  0.00  0.00     0.002 C 
HETATM    9  C           1     -16.008  -9.901  -5.383  0.00  0.00     0.005 C 
ENDBRANCH   6   8
ENDBRANCH   5   6
BRANCH   5  10
HETATM   10  N           1     -18.323 -11.789  -3.207  0.00  0.00    -0.066 N 
HETATM   11  H           1     -17.831 -11.746  -4.129  0.00  0.00     0.275 HD
HETATM   12  H           1     -19.306 -12.112  -3.351  0.00  0.00     0.275 HD
HETATM   13  H           1     -17.824 -12.458  -2.577  0.00  0.00     0.275 HD
ENDBRANCH   5  10
ENDBRANCH   1   5
BRANCH   2  14
HETATM   14  C           1     -21.320  -8.052  -2.248  0.00  0.00     0.185 C 
BRANCH  14  15
HETATM   15  C           1     -21.458  -6.989  -3.310  0.00  0.00     0.196 C 
HETATM   16  O           1     -20.814  -7.083  -4.377  0.00  0.00    -0.646 OA
HETATM   17  O           1     -22.218  -6.014  -3.124  0.00  0.00    -0.646 OA
ENDBRANCH  14  15
BRANCH  14  18
HETATM   18  C           1     -21.619  -7.448  -0.882  0.00  0.00     0.040 C 
BRANCH  18  19
HETATM   19  C           1     -22.054  -8.549   0.077  0.00  0.00    -0.020 C 
HETATM   20  C           1     -21.087  -8.609   1.252  0.00  0.00     0.009 C 
HETATM   21  C           1     -23.458  -8.251   0.588  0.00  0.00     0.009 C 
ENDBRANCH  18  19
ENDBRANCH  14  18
ENDBRANCH   2  14
TORSDOF 8
ENDMDL
