MODEL 1
REMARK VINA RESULT:      -7.7      0.000      0.000
REMARK  6 active torsions:
REMARK  status: ('A' for Active; 'I' for Inactive)
REMARK    1  A    between atoms: C_1  and  C_2 
REMARK    2  A    between atoms: C_2  and  C_18 
REMARK    3  A    between atoms: C_3  and  C_4 
REMARK    4  A    between atoms: C_4  and  N_11 
REMARK       I    between atoms: C_9  and  N_11 
REMARK    5  A    between atoms: C_9  and  C_18 
REMARK    6  A    between atoms: N_14  and  C_18 
ROOT
HETATM    1  C           1     -35.821  -0.584 -11.475  0.00  0.00     0.278 C 
ENDROOT
BRANCH   1   2
HETATM    2  C           1     -36.267  -1.912 -10.876  0.00  0.00     0.081 C 
BRANCH   2   3
HETATM    3  C           1     -35.181  -2.928 -11.047  0.00  0.00    -0.056 A 
HETATM    4  C           1     -35.469  -4.285 -10.906  0.00  0.00     0.007 A 
HETATM    5  C           1     -34.457  -5.232 -11.064  0.00  0.00     0.001 A 
HETATM    6  C           1     -33.158  -4.822 -11.363  0.00  0.00     0.000 A 
HETATM    7  C           1     -32.871  -3.464 -11.504  0.00  0.00     0.001 A 
HETATM    8  C           1     -33.882  -2.517 -11.345  0.00  0.00     0.007 A 
ENDBRANCH   2   3
ENDBRANCH   1   2
BRANCH   1   9
HETATM    9  C           1     -36.481  -0.389 -12.817  0.00  0.00     0.249 C 
HETATM   10  O           1     -37.624  -0.745 -12.985  0.00  0.00    -0.271 OA
HETATM   11  N           1     -35.787   0.191 -13.844  0.00  0.00    -0.345 N 
HETATM   12  H           1     -34.830   0.489 -13.703  0.00  0.00     0.163 HD
BRANCH  11  13
HETATM   13  C           1     -36.422   0.378 -15.133  0.00  0.00     0.181 C 
HETATM   14  C           1     -35.963   1.699 -15.740  0.00  0.00     0.043 C 
BRANCH  13  15
HETATM   15  C           1     -36.039  -0.755 -16.052  0.00  0.00     0.196 C 
HETATM   16  O           1     -35.152  -1.567 -15.709  0.00  0.00    -0.646 OA
HETATM   17  O           1     -36.607  -0.883 -17.159  0.00  0.00    -0.646 OA
ENDBRANCH  13  15
ENDBRANCH  11  13
ENDBRANCH   1   9
BRANCH   1  18
HETATM   18  N           1     -36.214   0.535 -10.557  0.00  0.00    -0.066 N 
HETATM   19  H           1     -35.443   1.240 -10.519  0.00  0.00     0.275 HD
HETATM   20  H           1     -36.386   0.156  -9.599  0.00  0.00     0.275 HD
HETATM   21  H           1     -37.085   0.988 -10.914  0.00  0.00     0.275 HD
ENDBRANCH   1  18
TORSDOF 6
ENDMDL
MODEL 2
REMARK VINA RESULT:      -7.0     14.564     16.887
REMARK  6 active torsions:
REMARK  status: ('A' for Active; 'I' for Inactive)
REMARK    1  A    between atoms: C_1  and  C_2 
REMARK    2  A    between atoms: C_2  and  C_18 
REMARK    3  A    between atoms: C_3  and  C_4 
REMARK    4  A    between atoms: C_4  and  N_11 
REMARK       I    between atoms: C_9  and  N_11 
REMARK    5  A    between atoms: C_9  and  C_18 
REMARK    6  A    between atoms: N_14  and  C_18 
ROOT
HETATM    1  C           1     -22.246  -5.140  -6.754  0.00  0.00     0.278 C 
ENDROOT
BRANCH   1   2
HETATM    2  C           1     -21.663  -3.880  -7.382  0.00  0.00     0.081 C 
BRANCH   2   3
HETATM    3  C           1     -21.628  -4.034  -8.871  0.00  0.00    -0.056 A 
HETATM    4  C           1     -20.404  -4.115  -9.534  0.00  0.00     0.007 A 
HETATM    5  C           1     -20.371  -4.258 -10.921  0.00  0.00     0.001 A 
HETATM    6  C           1     -21.562  -4.320 -11.644  0.00  0.00     0.000 A 
HETATM    7  C           1     -22.787  -4.240 -10.980  0.00  0.00     0.001 A 
HETATM    8  C           1     -22.820  -4.097  -9.594  0.00  0.00     0.007 A 
ENDBRANCH   2   3
ENDBRANCH   1   2
BRANCH   1   9
HETATM    9  C           1     -21.470  -5.486  -5.507  0.00  0.00     0.249 C 
HETATM   10  O           1     -20.308  -5.166  -5.410  0.00  0.00    -0.271 OA
HETATM   11  N           1     -22.081  -6.163  -4.486  0.00  0.00    -0.345 N 
HETATM   12  H           1     -23.053  -6.430  -4.567  0.00  0.00     0.163 HD
BRANCH  11  13
HETATM   13  C           1     -21.336  -6.495  -3.288  0.00  0.00     0.181 C 
HETATM   14  C           1     -22.167  -6.151  -2.059  0.00  0.00     0.043 C 
BRANCH  13  15
HETATM   15  C           1     -21.022  -7.970  -3.284  0.00  0.00     0.196 C 
HETATM   16  O           1     -21.637  -8.743  -4.052  0.00  0.00    -0.646 OA
HETATM   17  O           1     -20.147  -8.422  -2.513  0.00  0.00    -0.646 OA
ENDBRANCH  13  15
ENDBRANCH  11  13
ENDBRANCH   1   9
BRANCH   1  18
HETATM   18  N           1     -23.683  -4.901  -6.398  0.00  0.00    -0.066 N 
HETATM   19  H           1     -23.925  -5.449  -5.541  0.00  0.00     0.275 HD
HETATM   20  H           1     -24.294  -5.205  -7.189  0.00  0.00     0.275 HD
HETATM   21  H           1     -23.832  -3.883  -6.215  0.00  0.00     0.275 HD
ENDBRANCH   1  18
TORSDOF 6
ENDMDL
MODEL 3
REMARK VINA RESULT:      -6.9     13.533     15.446
REMARK  6 active torsions:
REMARK  status: ('A' for Active; 'I' for Inactive)
REMARK    1  A    between atoms: C_1  and  C_2 
REMARK    2  A    between atoms: C_2  and  C_18 
REMARK    3  A    between atoms: C_3  and  C_4 
REMARK    4  A    between atoms: C_4  and  N_11 
REMARK       I    between atoms: C_9  and  N_11 
REMARK    5  A    between atoms: C_9  and  C_18 
REMARK    6  A    between atoms: N_14  and  C_18 
ROOT
HETATM    1  C           1     -21.180  -5.680  -6.900  0.00  0.00     0.278 C 
ENDROOT
BRANCH   1   2
HETATM    2  C           1     -20.873  -5.220  -5.481  0.00  0.00     0.081 C 
BRANCH   2   3
HETATM    3  C           1     -21.143  -6.339  -4.523  0.00  0.00    -0.056 A 
HETATM    4  C           1     -21.240  -7.648  -4.991  0.00  0.00     0.007 A 
HETATM    5  C           1     -21.491  -8.690  -4.099  0.00  0.00     0.001 A 
HETATM    6  C           1     -21.646  -8.422  -2.739  0.00  0.00     0.000 A 
HETATM    7  C           1     -21.549  -7.111  -2.271  0.00  0.00     0.001 A 
HETATM    8  C           1     -21.298  -6.069  -3.163  0.00  0.00     0.007 A 
ENDBRANCH   2   3
ENDBRANCH   1   2
BRANCH   1   9
HETATM    9  C           1     -21.716  -4.520  -7.702  0.00  0.00     0.249 C 
HETATM   10  O           1     -21.608  -3.393  -7.279  0.00  0.00    -0.271 OA
HETATM   11  N           1     -22.324  -4.744  -8.907  0.00  0.00    -0.345 N 
HETATM   12  H           1     -22.414  -5.688  -9.261  0.00  0.00     0.163 HD
BRANCH  11  13
HETATM   13  C           1     -22.839  -3.629  -9.678  0.00  0.00     0.181 C 
HETATM   14  C           1     -21.954  -3.402 -10.897  0.00  0.00     0.043 C 
BRANCH  13  15
HETATM   15  C           1     -24.245  -3.936 -10.129  0.00  0.00     0.196 C 
HETATM   16  O           1     -24.789  -5.012  -9.794  0.00  0.00    -0.646 OA
HETATM   17  O           1     -24.868  -3.116 -10.838  0.00  0.00    -0.646 OA
ENDBRANCH  13  15
ENDBRANCH  11  13
ENDBRANCH   1   9
BRANCH   1  18
HETATM   18  N           1     -19.924  -6.193  -7.541  0.00  0.00    -0.066 N 
HETATM   19  H           1     -20.110  -6.410  -8.546  0.00  0.00     0.275 HD
HETATM   20  H           1     -19.609  -7.059  -7.049  0.00  0.00     0.275 HD
HETATM   21  H           1     -19.178  -5.464  -7.474  0.00  0.00     0.275 HD
ENDBRANCH   1  18
TORSDOF 6
ENDMDL
MODEL 4
REMARK VINA RESULT:      -6.7      5.435      7.042
REMARK  6 active torsions:
REMARK  status: ('A' for Active; 'I' for Inactive)
REMARK    1  A    between atoms: C_1  and  C_2 
REMARK    2  A    between atoms: C_2  and  C_18 
REMARK    3  A    between atoms: C_3  and  C_4 
REMARK    4  A    between atoms: C_4  and  N_11 
REMARK       I    between atoms: C_9  and  N_11 
REMARK    5  A    between atoms: C_9  and  C_18 
REMARK    6  A    between atoms: N_14  and  C_18 
ROOT
HETATM    1  C           1     -32.899  -4.489 -16.635  0.00  0.00     0.278 C 
ENDROOT
BRANCH   1   2
HETATM    2  C           1     -31.448  -4.524 -16.171  0.00  0.00     0.081 C 
BRANCH   2   3
HETATM    3  C           1     -30.654  -5.407 -17.083  0.00  0.00    -0.056 A 
HETATM    4  C           1     -29.469  -4.938 -17.650  0.00  0.00     0.007 A 
HETATM    5  C           1     -28.729  -5.761 -18.498  0.00  0.00     0.001 A 
HETATM    6  C           1     -29.174  -7.052 -18.781  0.00  0.00     0.000 A 
HETATM    7  C           1     -30.359  -7.521 -18.213  0.00  0.00     0.001 A 
HETATM    8  C           1     -31.099  -6.699 -17.365  0.00  0.00     0.007 A 
ENDBRANCH   2   3
ENDBRANCH   1   2
BRANCH   1   9
HETATM    9  C           1     -33.811  -4.464 -15.433  0.00  0.00     0.249 C 
HETATM   10  O           1     -34.967  -4.799 -15.545  0.00  0.00    -0.271 OA
HETATM   11  N           1     -33.330  -4.062 -14.216  0.00  0.00    -0.345 N 
HETATM   12  H           1     -32.362  -3.781 -14.123  0.00  0.00     0.163 HD
BRANCH  11  13
HETATM   13  C           1     -34.206  -4.039 -13.062  0.00  0.00     0.181 C 
HETATM   14  C           1     -33.478  -4.624 -11.858  0.00  0.00     0.043 C 
BRANCH  13  15
HETATM   15  C           1     -34.606  -2.615 -12.762  0.00  0.00     0.196 C 
HETATM   16  O           1     -34.531  -2.177 -11.593  0.00  0.00    -0.646 OA
HETATM   17  O           1     -35.012  -1.873 -13.683  0.00  0.00    -0.646 OA
ENDBRANCH  13  15
ENDBRANCH  11  13
ENDBRANCH   1   9
BRANCH   1  18
HETATM   18  N           1     -33.129  -3.259 -17.462  0.00  0.00    -0.066 N 
HETATM   19  H           1     -32.506  -3.284 -18.301  0.00  0.00     0.275 HD
HETATM   20  H           1     -32.914  -2.410 -16.893  0.00  0.00     0.275 HD
HETATM   21  H           1     -34.128  -3.229 -17.769  0.00  0.00     0.275 HD
ENDBRANCH   1  18
TORSDOF 6
ENDMDL
MODEL 5
REMARK VINA RESULT:      -6.6     14.751     17.248
REMARK  6 active torsions:
REMARK  status: ('A' for Active; 'I' for Inactive)
REMARK    1  A    between atoms: C_1  and  C_2 
REMARK    2  A    between atoms: C_2  and  C_18 
REMARK    3  A    between atoms: C_3  and  C_4 
REMARK    4  A    between atoms: C_4  and  N_11 
REMARK       I    between atoms: C_9  and  N_11 
REMARK    5  A    between atoms: C_9  and  C_18 
REMARK    6  A    between atoms: N_14  and  C_18 
ROOT
HETATM    1  C           1     -20.977  -4.958  -6.356  0.00  0.00     0.278 C 
ENDROOT
BRANCH   1   2
HETATM    2  C           1     -20.623  -5.697  -7.640  0.00  0.00     0.081 C 
BRANCH   2   3
HETATM    3  C           1     -21.034  -4.873  -8.821  0.00  0.00    -0.056 A 
HETATM    4  C           1     -22.328  -4.358  -8.895  0.00  0.00     0.007 A 
HETATM    5  C           1     -22.712  -3.591  -9.994  0.00  0.00     0.001 A 
HETATM    6  C           1     -21.801  -3.340 -11.021  0.00  0.00     0.000 A 
HETATM    7  C           1     -20.507  -3.854 -10.946  0.00  0.00     0.001 A 
HETATM    8  C           1     -20.123  -4.621  -9.847  0.00  0.00     0.007 A 
ENDBRANCH   2   3
ENDBRANCH   1   2
BRANCH   1   9
HETATM    9  C           1     -21.685  -5.898  -5.412  0.00  0.00     0.249 C 
HETATM   10  O           1     -22.893  -5.956  -5.411  0.00  0.00    -0.271 OA
HETATM   11  N           1     -20.961  -6.684  -4.558  0.00  0.00    -0.345 N 
HETATM   12  H           1     -19.950  -6.635  -4.559  0.00  0.00     0.163 HD
BRANCH  11  13
HETATM   13  C           1     -21.642  -7.588  -3.652  0.00  0.00     0.181 C 
HETATM   14  C           1     -20.904  -8.921  -3.612  0.00  0.00     0.043 C 
BRANCH  13  15
HETATM   15  C           1     -21.668  -6.988  -2.268  0.00  0.00     0.196 C 
HETATM   16  O           1     -21.003  -7.510  -1.346  0.00  0.00    -0.646 OA
HETATM   17  O           1     -22.354  -5.968  -2.041  0.00  0.00    -0.646 OA
ENDBRANCH  13  15
ENDBRANCH  11  13
ENDBRANCH   1   9
BRANCH   1  18
HETATM   18  N           1     -19.721  -4.452  -5.709  0.00  0.00    -0.066 N 
HETATM   19  H           1     -19.498  -5.042  -4.876  0.00  0.00     0.275 HD
HETATM   20  H           1     -19.859  -3.461  -5.407  0.00  0.00     0.275 HD
HETATM   21  H           1     -18.934  -4.501  -6.393  0.00  0.00     0.275 HD
ENDBRANCH   1  18
TORSDOF 6
ENDMDL
MODEL 6
REMARK VINA RESULT:      -6.4     15.414     17.531
REMARK  6 active torsions:
REMARK  status: ('A' for Active; 'I' for Inactive)
REMARK    1  A    between atoms: C_1  and  C_2 
REMARK    2  A    between atoms: C_2  and  C_18 
REMARK    3  A    between atoms: C_3  and  C_4 
REMARK    4  A    between atoms: C_4  and  N_11 
REMARK       I    between atoms: C_9  and  N_11 
REMARK    5  A    between atoms: C_9  and  C_18 
REMARK    6  A    between atoms: N_14  and  C_18 
ROOT
HETATM    1  C           1     -21.500  -7.930  -4.397  0.00  0.00     0.278 C 
ENDROOT
BRANCH   1   2
HETATM    2  C           1     -20.632  -8.223  -3.179  0.00  0.00     0.081 C 
BRANCH   2   3
HETATM    3  C           1     -21.507  -8.462  -1.987  0.00  0.00    -0.056 A 
HETATM    4  C           1     -21.864  -7.398  -1.161  0.00  0.00     0.007 A 
HETATM    5  C           1     -22.679  -7.621  -0.051  0.00  0.00     0.001 A 
HETATM    6  C           1     -23.135  -8.908   0.233  0.00  0.00     0.000 A 
HETATM    7  C           1     -22.777  -9.973  -0.595  0.00  0.00     0.001 A 
HETATM    8  C           1     -21.963  -9.750  -1.705  0.00  0.00     0.007 A 
ENDBRANCH   2   3
ENDBRANCH   1   2
BRANCH   1   9
HETATM    9  C           1     -21.289  -6.502  -4.834  0.00  0.00     0.249 C 
HETATM   10  O           1     -21.381  -5.604  -4.030  0.00  0.00    -0.271 OA
HETATM   11  N           1     -20.993  -6.223  -6.141  0.00  0.00    -0.345 N 
HETATM   12  H           1     -20.916  -6.975  -6.814  0.00  0.00     0.163 HD
BRANCH  11  13
HETATM   13  C           1     -20.790  -4.851  -6.561  0.00  0.00     0.181 C 
HETATM   14  C           1     -19.435  -4.723  -7.246  0.00  0.00     0.043 C 
BRANCH  13  15
HETATM   15  C           1     -21.879  -4.454  -7.527  0.00  0.00     0.196 C 
HETATM   16  O           1     -21.588  -4.124  -8.698  0.00  0.00    -0.646 OA
HETATM   17  O           1     -23.074  -4.454  -7.157  0.00  0.00    -0.646 OA
ENDBRANCH  13  15
ENDBRANCH  11  13
ENDBRANCH   1   9
BRANCH   1  18
HETATM   18  N           1     -21.121  -8.857  -5.514  0.00  0.00    -0.066 N 
HETATM   19  H           1     -20.105  -9.092  -5.441  0.00  0.00     0.275 HD
HETATM   20  H           1     -21.306  -8.392  -6.431  0.00  0.00     0.275 HD
HETATM   21  H           1     -21.688  -9.732  -5.447  0.00  0.00     0.275 HD
ENDBRANCH   1  18
TORSDOF 6
ENDMDL
MODEL 7
REMARK VINA RESULT:      -6.0     15.734     17.806
REMARK  6 active torsions:
REMARK  status: ('A' for Active; 'I' for Inactive)
REMARK    1  A    between atoms: C_1  and  C_2 
REMARK    2  A    between atoms: C_2  and  C_18 
REMARK    3  A    between atoms: C_3  and  C_4 
REMARK    4  A    between atoms: C_4  and  N_11 
REMARK       I    between atoms: C_9  and  N_11 
REMARK    5  A    between atoms: C_9  and  C_18 
REMARK    6  A    between atoms: N_14  and  C_18 
ROOT
HETATM    1  C           1     -21.902  -7.903  -3.976  0.00  0.00     0.278 C 
ENDROOT
BRANCH   1   2
HETATM    2  C           1     -20.855  -7.437  -2.972  0.00  0.00     0.081 C 
BRANCH   2   3
HETATM    3  C           1     -21.323  -7.744  -1.583  0.00  0.00    -0.056 A 
HETATM    4  C           1     -20.705  -8.756  -0.848  0.00  0.00     0.007 A 
HETATM    5  C           1     -21.140  -9.042   0.446  0.00  0.00     0.001 A 
HETATM    6  C           1     -22.193  -8.317   1.004  0.00  0.00     0.000 A 
HETATM    7  C           1     -22.811  -7.305   0.268  0.00  0.00     0.001 A 
HETATM    8  C           1     -22.376  -7.019  -1.026  0.00  0.00     0.007 A 
ENDBRANCH   2   3
ENDBRANCH   1   2
BRANCH   1   9
HETATM    9  C           1     -21.642  -7.255  -5.313  0.00  0.00     0.249 C 
HETATM   10  O           1     -21.121  -7.890  -6.201  0.00  0.00    -0.271 OA
HETATM   11  N           1     -21.995  -5.950  -5.522  0.00  0.00    -0.345 N 
HETATM   12  H           1     -22.432  -5.419  -4.779  0.00  0.00     0.163 HD
BRANCH  11  13
HETATM   13  C           1     -21.746  -5.328  -6.807  0.00  0.00     0.181 C 
HETATM   14  C           1     -22.941  -4.466  -7.197  0.00  0.00     0.043 C 
BRANCH  13  15
HETATM   15  C           1     -20.513  -4.463  -6.716  0.00  0.00     0.196 C 
HETATM   16  O           1     -19.762  -4.546  -5.719  0.00  0.00    -0.646 OA
HETATM   17  O           1     -20.242  -3.662  -7.637  0.00  0.00    -0.646 OA
ENDBRANCH  13  15
ENDBRANCH  11  13
ENDBRANCH   1   9
BRANCH   1  18
HETATM   18  N           1     -21.827  -9.395  -4.120  0.00  0.00    -0.066 N 
HETATM   19  H           1     -22.756  -9.813  -3.888  0.00  0.00     0.275 HD
HETATM   20  H           1     -21.102  -9.772  -3.468  0.00  0.00     0.275 HD
HETATM   21  H           1     -21.570  -9.636  -5.103  0.00  0.00     0.275 HD
ENDBRANCH   1  18
TORSDOF 6
ENDMDL
MODEL 8
REMARK VINA RESULT:      -6.0      6.311      7.751
REMARK  6 active torsions:
REMARK  status: ('A' for Active; 'I' for Inactive)
REMARK    1  A    between atoms: C_1  and  C_2 
REMARK    2  A    between atoms: C_2  and  C_18 
REMARK    3  A    between atoms: C_3  and  C_4 
REMARK    4  A    between atoms: C_4  and  N_11 
REMARK       I    between atoms: C_9  and  N_11 
REMARK    5  A    between atoms: C_9  and  C_18 
REMARK    6  A    between atoms: N_14  and  C_18 
ROOT
HETATM    1  C           1     -31.016  -3.990 -17.444  0.00  0.00     0.278 C 
ENDROOT
BRANCH   1   2
HETATM    2  C           1     -30.314  -4.936 -16.477  0.00  0.00     0.081 C 
BRANCH   2   3
HETATM    3  C           1     -29.029  -5.408 -17.084  0.00  0.00    -0.056 A 
HETATM    4  C           1     -27.880  -5.499 -16.300  0.00  0.00     0.007 A 
HETATM    5  C           1     -26.684  -5.939 -16.865  0.00  0.00     0.001 A 
HETATM    6  C           1     -26.636  -6.288 -18.214  0.00  0.00     0.000 A 
HETATM    7  C           1     -27.786  -6.197 -18.999  0.00  0.00     0.001 A 
HETATM    8  C           1     -28.983  -5.757 -18.434  0.00  0.00     0.007 A 
ENDBRANCH   2   3
ENDBRANCH   1   2
BRANCH   1   9
HETATM    9  C           1     -32.438  -3.769 -16.989  0.00  0.00     0.249 C 
HETATM   10  O           1     -33.145  -2.985 -17.578  0.00  0.00    -0.271 OA
HETATM   11  N           1     -32.926  -4.455 -15.910  0.00  0.00    -0.345 N 
HETATM   12  H           1     -32.334  -5.111 -15.417  0.00  0.00     0.163 HD
BRANCH  11  13
HETATM   13  C           1     -34.292  -4.243 -15.474  0.00  0.00     0.181 C 
HETATM   14  C           1     -35.030  -5.575 -15.445  0.00  0.00     0.043 C 
BRANCH  13  15
HETATM   15  C           1     -34.290  -3.640 -14.091  0.00  0.00     0.196 C 
HETATM   16  O           1     -33.795  -4.273 -13.133  0.00  0.00    -0.646 OA
HETATM   17  O           1     -34.785  -2.508 -13.902  0.00  0.00    -0.646 OA
ENDBRANCH  13  15
ENDBRANCH  11  13
ENDBRANCH   1   9
BRANCH   1  18
HETATM   18  N           1     -30.291  -2.678 -17.473  0.00  0.00    -0.066 N 
HETATM   19  H           1     -30.750  -2.011 -16.813  0.00  0.00     0.275 HD
HETATM   20  H           1     -30.319  -2.285 -18.441  0.00  0.00     0.275 HD
HETATM   21  H           1     -29.296  -2.824 -17.187  0.00  0.00     0.275 HD
ENDBRANCH   1  18
TORSDOF 6
ENDMDL
MODEL 9
REMARK VINA RESULT:      -5.9     16.554     18.647
REMARK  6 active torsions:
REMARK  status: ('A' for Active; 'I' for Inactive)
REMARK    1  A    between atoms: C_1  and  C_2 
REMARK    2  A    between atoms: C_2  and  C_18 
REMARK    3  A    between atoms: C_3  and  C_4 
REMARK    4  A    between atoms: C_4  and  N_11 
REMARK       I    between atoms: C_9  and  N_11 
REMARK    5  A    between atoms: C_9  and  C_18 
REMARK    6  A    between atoms: N_14  and  C_18 
ROOT
HETATM    1  C           1     -20.521  -7.491  -4.779  0.00  0.00     0.278 C 
ENDROOT
BRANCH   1   2
HETATM    2  C           1     -21.267  -6.164  -4.757  0.00  0.00     0.081 C 
BRANCH   2   3
HETATM    3  C           1     -20.993  -5.414  -6.024  0.00  0.00    -0.056 A 
HETATM    4  C           1     -19.678  -5.186  -6.428  0.00  0.00     0.007 A 
HETATM    5  C           1     -19.422  -4.488  -7.608  0.00  0.00     0.001 A 
HETATM    6  C           1     -20.482  -4.017  -8.383  0.00  0.00     0.000 A 
HETATM    7  C           1     -21.797  -4.245  -7.979  0.00  0.00     0.001 A 
HETATM    8  C           1     -22.053  -4.943  -6.799  0.00  0.00     0.007 A 
ENDBRANCH   2   3
ENDBRANCH   1   2
BRANCH   1   9
HETATM    9  C           1     -20.504  -8.083  -3.392  0.00  0.00     0.249 C 
HETATM   10  O           1     -19.524  -8.673  -2.999  0.00  0.00    -0.271 OA
HETATM   11  N           1     -21.596  -7.952  -2.577  0.00  0.00    -0.345 N 
HETATM   12  H           1     -22.415  -7.457  -2.906  0.00  0.00     0.163 HD
BRANCH  11  13
HETATM   13  C           1     -21.579  -8.519  -1.244  0.00  0.00     0.181 C 
HETATM   14  C           1     -22.170  -7.521  -0.257  0.00  0.00     0.043 C 
BRANCH  13  15
HETATM   15  C           1     -22.397  -9.787  -1.227  0.00  0.00     0.196 C 
HETATM   16  O           1     -22.105 -10.731  -1.993  0.00  0.00    -0.646 OA
HETATM   17  O           1     -23.368  -9.893  -0.447  0.00  0.00    -0.646 OA
ENDBRANCH  13  15
ENDBRANCH  11  13
ENDBRANCH   1   9
BRANCH   1  18
HETATM   18  N           1     -21.212  -8.436  -5.717  0.00  0.00    -0.066 N 
HETATM   19  H           1     -22.043  -8.853  -5.241  0.00  0.00     0.275 HD
HETATM   20  H           1     -20.552  -9.197  -5.995  0.00  0.00     0.275 HD
HETATM   21  H           1     -21.521  -7.916  -6.569  0.00  0.00     0.275 HD
ENDBRANCH   1  18
TORSDOF 6
ENDMDL
