MODEL 1
REMARK VINA RESULT:      -6.4      0.000      0.000
REMARK  12 active torsions:
REMARK  status: ('A' for Active; 'I' for Inactive)
REMARK    1  A    between atoms: C_1  and  C_20 
REMARK    2  A    between atoms: C_1  and  C_2 
REMARK    3  A    between atoms: C_2  and  C_3 
REMARK    4  A    between atoms: C_3  and  C_4 
REMARK    5  A    between atoms: C_3  and  N_7 
REMARK       I    between atoms: N_7  and  C_8 
REMARK    6  A    between atoms: C_8  and  C_9 
REMARK    7  A    between atoms: C_9  and  C_10 
REMARK    8  A    between atoms: C_9  and  N_23 
REMARK    9  A    between atoms: C_10  and  O_11 
REMARK   10  A    between atoms: O_11  and  P_12 
REMARK   11  A    between atoms: P_12  and  O_13 
REMARK   12  A    between atoms: N_19  and  C_20 
ROOT
HETATM    1  N           1     -35.565  -3.185 -11.169  0.00  0.00    -0.345 N 
HETATM    2  C           1     -35.372  -1.928 -10.664  0.00  0.00     0.251 C 
HETATM    3  H           1     -36.468  -3.448 -11.541  0.00  0.00     0.163 HD
HETATM    4  O           1     -34.293  -1.614 -10.220  0.00  0.00    -0.271 OA
ENDROOT
BRANCH   2   5
HETATM    5  C           1     -36.507  -0.934 -10.661  0.00  0.00     0.298 C 
BRANCH   5   6
HETATM    6  C           1     -36.473  -0.121 -11.949  0.00  0.00     0.224 C 
BRANCH   6   7
HETATM    7  O           1     -36.453  -0.990 -13.050  0.00  0.00    -0.287 OA
BRANCH   7   8
HETATM    8  P           1     -35.748  -0.420 -14.387  0.00  0.00     0.406 P 
HETATM    9  O           1     -34.568   0.392 -14.015  0.00  0.00    -0.624 OA
HETATM   10  O           1     -36.712   0.419 -15.134  0.00  0.00    -0.624 OA
BRANCH   8  11
HETATM   11  O           1     -35.278  -1.655 -15.316  0.00  0.00    -0.300 OA
HETATM   12  H           1     -35.895  -1.673 -16.028  0.00  0.00     0.223 HD
ENDBRANCH   8  11
ENDBRANCH   7   8
ENDBRANCH   6   7
ENDBRANCH   5   6
BRANCH   5  13
HETATM   13  N           1     -36.362  -0.013  -9.487  0.00  0.00    -0.064 N 
HETATM   14  H           1     -36.330  -0.573  -8.606  0.00  0.00     0.275 HD
HETATM   15  H           1     -35.477   0.536  -9.582  0.00  0.00     0.275 HD
HETATM   16  H           1     -37.176   0.641  -9.454  0.00  0.00     0.275 HD
ENDBRANCH   5  13
ENDBRANCH   2   5
BRANCH   1  17
HETATM   17  C           1     -34.474  -4.141 -11.171  0.00  0.00     0.185 C 
BRANCH  17  18
HETATM   18  C           1     -35.037  -5.554 -11.101  0.00  0.00     0.038 C 
BRANCH  18  19
HETATM   19  C           1     -33.976  -6.497 -10.550  0.00  0.00     0.030 C 
BRANCH  19  20
HETATM   20  C           1     -34.631  -7.807 -10.130  0.00  0.00     0.230 C 
BRANCH  20  21
HETATM   21  N           1     -33.616  -8.911 -10.172  0.00  0.00    -0.079 N 
HETATM   22  H           1     -33.691  -9.487  -9.304  0.00  0.00     0.274 HD
HETATM   23  H           1     -33.793  -9.515 -11.006  0.00  0.00     0.274 HD
HETATM   24  H           1     -32.657  -8.500 -10.236  0.00  0.00     0.274 HD
ENDBRANCH  20  21
ENDBRANCH  19  20
ENDBRANCH  18  19
ENDBRANCH  17  18
BRANCH  17  25
HETATM   25  C           1     -33.669  -3.981 -12.438  0.00  0.00     0.196 C 
HETATM   26  O           1     -32.430  -4.142 -12.415  0.00  0.00    -0.646 OA
HETATM   27  O           1     -34.242  -3.687 -13.509  0.00  0.00    -0.646 OA
ENDBRANCH  17  25
ENDBRANCH   1  17
TORSDOF 12
ENDMDL
MODEL 2
REMARK VINA RESULT:      -6.2      9.377     11.621
REMARK  12 active torsions:
REMARK  status: ('A' for Active; 'I' for Inactive)
REMARK    1  A    between atoms: C_1  and  C_20 
REMARK    2  A    between atoms: C_1  and  C_2 
REMARK    3  A    between atoms: C_2  and  C_3 
REMARK    4  A    between atoms: C_3  and  C_4 
REMARK    5  A    between atoms: C_3  and  N_7 
REMARK       I    between atoms: N_7  and  C_8 
REMARK    6  A    between atoms: C_8  and  C_9 
REMARK    7  A    between atoms: C_9  and  C_10 
REMARK    8  A    between atoms: C_9  and  N_23 
REMARK    9  A    between atoms: C_10  and  O_11 
REMARK   10  A    between atoms: O_11  and  P_12 
REMARK   11  A    between atoms: P_12  and  O_13 
REMARK   12  A    between atoms: N_19  and  C_20 
ROOT
HETATM    1  N           1     -27.384  -6.568 -17.670  0.00  0.00    -0.345 N 
HETATM    2  C           1     -26.563  -6.064 -16.698  0.00  0.00     0.251 C 
HETATM    3  H           1     -27.005  -7.166 -18.393  0.00  0.00     0.163 HD
HETATM    4  O           1     -27.015  -5.350 -15.835  0.00  0.00    -0.271 OA
ENDROOT
BRANCH   2   5
HETATM    5  C           1     -25.091  -6.400 -16.705  0.00  0.00     0.298 C 
BRANCH   5   6
HETATM    6  C           1     -24.756  -7.187 -17.965  0.00  0.00     0.224 C 
BRANCH   6   7
HETATM    7  O           1     -24.886  -6.354 -19.085  0.00  0.00    -0.287 OA
BRANCH   7   8
HETATM    8  P           1     -25.178  -7.097 -20.490  0.00  0.00     0.406 P 
HETATM    9  O           1     -24.198  -8.190 -20.683  0.00  0.00    -0.624 OA
HETATM   10  O           1     -25.058  -6.123 -21.598  0.00  0.00    -0.624 OA
BRANCH   8  11
HETATM   11  O           1     -26.672  -7.712 -20.474  0.00  0.00    -0.300 OA
HETATM   12  H           1     -26.617  -8.471 -19.917  0.00  0.00     0.223 HD
ENDBRANCH   8  11
ENDBRANCH   7   8
ENDBRANCH   6   7
ENDBRANCH   5   6
BRANCH   5  13
HETATM   13  N           1     -24.762  -7.227 -15.498  0.00  0.00    -0.064 N 
HETATM   14  H           1     -23.955  -6.799 -14.991  0.00  0.00     0.275 HD
HETATM   15  H           1     -25.593  -7.262 -14.864  0.00  0.00     0.275 HD
HETATM   16  H           1     -24.512  -8.196 -15.797  0.00  0.00     0.275 HD
ENDBRANCH   5  13
ENDBRANCH   2   5
BRANCH   1  17
HETATM   17  C           1     -28.798  -6.246 -17.663  0.00  0.00     0.185 C 
BRANCH  17  18
HETATM   18  C           1     -29.051  -5.058 -18.582  0.00  0.00     0.038 C 
BRANCH  18  19
HETATM   19  C           1     -29.571  -3.883 -17.764  0.00  0.00     0.030 C 
BRANCH  19  20
HETATM   20  C           1     -30.951  -4.221 -17.211  0.00  0.00     0.230 C 
BRANCH  20  21
HETATM   21  N           1     -31.913  -3.126 -17.565  0.00  0.00    -0.079 N 
HETATM   22  H           1     -31.402  -2.355 -18.050  0.00  0.00     0.274 HD
HETATM   23  H           1     -32.653  -3.505 -18.198  0.00  0.00     0.274 HD
HETATM   24  H           1     -32.356  -2.757 -16.693  0.00  0.00     0.274 HD
ENDBRANCH  20  21
ENDBRANCH  19  20
ENDBRANCH  18  19
ENDBRANCH  17  18
BRANCH  17  25
HETATM   25  C           1     -29.587  -7.437 -18.149  0.00  0.00     0.196 C 
HETATM   26  O           1     -30.578  -7.836 -17.501  0.00  0.00    -0.646 OA
HETATM   27  O           1     -29.248  -8.024 -19.200  0.00  0.00    -0.646 OA
ENDBRANCH  17  25
ENDBRANCH   1  17
TORSDOF 12
ENDMDL
MODEL 3
REMARK VINA RESULT:      -5.8     13.245     14.961
REMARK  12 active torsions:
REMARK  status: ('A' for Active; 'I' for Inactive)
REMARK    1  A    between atoms: C_1  and  C_20 
REMARK    2  A    between atoms: C_1  and  C_2 
REMARK    3  A    between atoms: C_2  and  C_3 
REMARK    4  A    between atoms: C_3  and  C_4 
REMARK    5  A    between atoms: C_3  and  N_7 
REMARK       I    between atoms: N_7  and  C_8 
REMARK    6  A    between atoms: C_8  and  C_9 
REMARK    7  A    between atoms: C_9  and  C_10 
REMARK    8  A    between atoms: C_9  and  N_23 
REMARK    9  A    between atoms: C_10  and  O_11 
REMARK   10  A    between atoms: O_11  and  P_12 
REMARK   11  A    between atoms: P_12  and  O_13 
REMARK   12  A    between atoms: N_19  and  C_20 
ROOT
HETATM    1  N           1     -21.541  -5.608  -5.763  0.00  0.00    -0.345 N 
HETATM    2  C           1     -20.672  -4.726  -6.346  0.00  0.00     0.251 C 
HETATM    3  H           1     -22.470  -5.731  -6.145  0.00  0.00     0.163 HD
HETATM    4  O           1     -19.563  -4.580  -5.891  0.00  0.00    -0.271 OA
ENDROOT
BRANCH   2   5
HETATM    5  C           1     -21.100  -3.938  -7.560  0.00  0.00     0.298 C 
BRANCH   5   6
HETATM    6  C           1     -22.184  -4.704  -8.308  0.00  0.00     0.224 C 
BRANCH   6   7
HETATM    7  O           1     -23.328  -3.903  -8.423  0.00  0.00    -0.287 OA
BRANCH   7   8
HETATM    8  P           1     -24.036  -3.883  -9.875  0.00  0.00     0.406 P 
HETATM    9  O           1     -24.068  -5.256 -10.426  0.00  0.00    -0.624 OA
HETATM   10  O           1     -23.270  -3.002 -10.785  0.00  0.00    -0.624 OA
BRANCH   8  11
HETATM   11  O           1     -25.545  -3.326  -9.732  0.00  0.00    -0.300 OA
HETATM   12  H           1     -26.017  -4.013  -9.292  0.00  0.00     0.223 HD
ENDBRANCH   8  11
ENDBRANCH   7   8
ENDBRANCH   6   7
ENDBRANCH   5   6
BRANCH   5  13
HETATM   13  N           1     -19.921  -3.732  -8.463  0.00  0.00    -0.064 N 
HETATM   14  H           1     -20.048  -4.291  -9.337  0.00  0.00     0.275 HD
HETATM   15  H           1     -19.843  -2.718  -8.708  0.00  0.00     0.275 HD
HETATM   16  H           1     -19.050  -4.041  -7.976  0.00  0.00     0.275 HD
ENDBRANCH   5  13
ENDBRANCH   2   5
BRANCH   1  17
HETATM   17  C           1     -21.130  -6.366  -4.597  0.00  0.00     0.185 C 
BRANCH  17  18
HETATM   18  C           1     -22.312  -6.518  -3.648  0.00  0.00     0.038 C 
BRANCH  18  19
HETATM   19  C           1     -21.880  -6.148  -2.235  0.00  0.00     0.030 C 
BRANCH  19  20
HETATM   20  C           1     -21.877  -7.397  -1.363  0.00  0.00     0.230 C 
BRANCH  20  21
HETATM   21  N           1     -20.513  -8.020  -1.383  0.00  0.00    -0.079 N 
HETATM   22  H           1     -20.175  -8.087  -2.370  0.00  0.00     0.274 HD
HETATM   23  H           1     -19.852  -7.430  -0.829  0.00  0.00     0.274 HD
HETATM   24  H           1     -20.560  -8.977  -0.966  0.00  0.00     0.274 HD
ENDBRANCH  20  21
ENDBRANCH  19  20
ENDBRANCH  18  19
ENDBRANCH  17  18
BRANCH  17  25
HETATM   25  C           1     -20.651  -7.731  -5.029  0.00  0.00     0.196 C 
HETATM   26  O           1     -21.156  -8.282  -6.030  0.00  0.00    -0.646 OA
HETATM   27  O           1     -19.750  -8.309  -4.383  0.00  0.00    -0.646 OA
ENDBRANCH  17  25
ENDBRANCH   1  17
TORSDOF 12
ENDMDL
MODEL 4
REMARK VINA RESULT:      -5.3     14.866     17.112
REMARK  12 active torsions:
REMARK  status: ('A' for Active; 'I' for Inactive)
REMARK    1  A    between atoms: C_1  and  C_20 
REMARK    2  A    between atoms: C_1  and  C_2 
REMARK    3  A    between atoms: C_2  and  C_3 
REMARK    4  A    between atoms: C_3  and  C_4 
REMARK    5  A    between atoms: C_3  and  N_7 
REMARK       I    between atoms: N_7  and  C_8 
REMARK    6  A    between atoms: C_8  and  C_9 
REMARK    7  A    between atoms: C_9  and  C_10 
REMARK    8  A    between atoms: C_9  and  N_23 
REMARK    9  A    between atoms: C_10  and  O_11 
REMARK   10  A    between atoms: O_11  and  P_12 
REMARK   11  A    between atoms: P_12  and  O_13 
REMARK   12  A    between atoms: N_19  and  C_20 
ROOT
HETATM    1  N           1     -20.871  -5.221  -5.043  0.00  0.00    -0.345 N 
HETATM    2  C           1     -21.416  -6.283  -4.374  0.00  0.00     0.251 C 
HETATM    3  H           1     -20.379  -4.499  -4.532  0.00  0.00     0.163 HD
HETATM    4  O           1     -22.003  -7.144  -4.984  0.00  0.00    -0.271 OA
ENDROOT
BRANCH   2   5
HETATM    5  C           1     -21.281  -6.380  -2.874  0.00  0.00     0.298 C 
BRANCH   5   6
HETATM    6  C           1     -21.098  -7.838  -2.473  0.00  0.00     0.224 C 
BRANCH   6   7
HETATM    7  O           1     -20.837  -7.916  -1.098  0.00  0.00    -0.287 OA
BRANCH   7   8
HETATM    8  P           1     -21.908  -8.747  -0.220  0.00  0.00     0.406 P 
HETATM    9  O           1     -21.235  -9.318   0.968  0.00  0.00    -0.624 OA
HETATM   10  O           1     -22.476  -9.840  -1.040  0.00  0.00    -0.624 OA
BRANCH   8  11
HETATM   11  O           1     -23.095  -7.761   0.258  0.00  0.00    -0.300 OA
HETATM   12  H           1     -22.931  -6.948  -0.190  0.00  0.00     0.223 HD
ENDBRANCH   8  11
ENDBRANCH   7   8
ENDBRANCH   6   7
ENDBRANCH   5   6
BRANCH   5  13
HETATM   13  N           1     -22.519  -5.835  -2.225  0.00  0.00    -0.064 N 
HETATM   14  H           1     -22.345  -4.856  -1.908  0.00  0.00     0.275 HD
HETATM   15  H           1     -23.305  -5.843  -2.915  0.00  0.00     0.275 HD
HETATM   16  H           1     -22.771  -6.429  -1.403  0.00  0.00     0.275 HD
ENDBRANCH   5  13
ENDBRANCH   2   5
BRANCH   1  17
HETATM   17  C           1     -21.000  -5.128  -6.484  0.00  0.00     0.185 C 
BRANCH  17  18
HETATM   18  C           1     -21.378  -3.704  -6.869  0.00  0.00     0.038 C 
BRANCH  18  19
HETATM   19  C           1     -22.001  -3.701  -8.259  0.00  0.00     0.030 C 
BRANCH  19  20
HETATM   20  C           1     -23.401  -4.298  -8.189  0.00  0.00     0.230 C 
BRANCH  20  21
HETATM   21  N           1     -24.368  -3.391  -8.891  0.00  0.00    -0.079 N 
HETATM   22  H           1     -24.909  -3.939  -9.598  0.00  0.00     0.274 HD
HETATM   23  H           1     -25.027  -2.978  -8.193  0.00  0.00     0.274 HD
HETATM   24  H           1     -23.842  -2.626  -9.370  0.00  0.00     0.274 HD
ENDBRANCH  20  21
ENDBRANCH  19  20
ENDBRANCH  18  19
ENDBRANCH  17  18
BRANCH  17  25
HETATM   25  C           1     -19.686  -5.494  -7.131  0.00  0.00     0.196 C 
HETATM   26  O           1     -18.885  -4.596  -7.468  0.00  0.00    -0.646 OA
HETATM   27  O           1     -19.401  -6.695  -7.328  0.00  0.00    -0.646 OA
ENDBRANCH  17  25
ENDBRANCH   1  17
TORSDOF 12
ENDMDL
MODEL 5
REMARK VINA RESULT:      -5.2     13.225     15.039
REMARK  12 active torsions:
REMARK  status: ('A' for Active; 'I' for Inactive)
REMARK    1  A    between atoms: C_1  and  C_20 
REMARK    2  A    between atoms: C_1  and  C_2 
REMARK    3  A    between atoms: C_2  and  C_3 
REMARK    4  A    between atoms: C_3  and  C_4 
REMARK    5  A    between atoms: C_3  and  N_7 
REMARK       I    between atoms: N_7  and  C_8 
REMARK    6  A    between atoms: C_8  and  C_9 
REMARK    7  A    between atoms: C_9  and  C_10 
REMARK    8  A    between atoms: C_9  and  N_23 
REMARK    9  A    between atoms: C_10  and  O_11 
REMARK   10  A    between atoms: O_11  and  P_12 
REMARK   11  A    between atoms: P_12  and  O_13 
REMARK   12  A    between atoms: N_19  and  C_20 
ROOT
HETATM    1  N           1     -21.034  -6.457  -5.155  0.00  0.00    -0.345 N 
HETATM    2  C           1     -21.800  -5.621  -5.922  0.00  0.00     0.251 C 
HETATM    3  H           1     -20.026  -6.441  -5.241  0.00  0.00     0.163 HD
HETATM    4  O           1     -23.004  -5.641  -5.819  0.00  0.00    -0.271 OA
ENDROOT
BRANCH   2   5
HETATM    5  C           1     -21.141  -4.675  -6.895  0.00  0.00     0.298 C 
BRANCH   5   6
HETATM    6  C           1     -21.839  -4.767  -8.245  0.00  0.00     0.224 C 
BRANCH   6   7
HETATM    7  O           1     -22.654  -3.641  -8.428  0.00  0.00    -0.287 OA
BRANCH   7   8
HETATM    8  P           1     -23.689  -3.710  -9.667  0.00  0.00     0.406 P 
HETATM    9  O           1     -24.027  -5.123  -9.949  0.00  0.00    -0.624 OA
HETATM   10  O           1     -23.067  -3.101 -10.864  0.00  0.00    -0.624 OA
BRANCH   8  11
HETATM   11  O           1     -25.035  -2.900  -9.290  0.00  0.00    -0.300 OA
HETATM   12  H           1     -25.615  -3.548  -8.927  0.00  0.00     0.223 HD
ENDBRANCH   8  11
ENDBRANCH   7   8
ENDBRANCH   6   7
ENDBRANCH   5   6
BRANCH   5  13
HETATM   13  N           1     -19.697  -5.049  -7.054  0.00  0.00    -0.064 N 
HETATM   14  H           1     -19.333  -4.663  -7.954  0.00  0.00     0.275 HD
HETATM   15  H           1     -19.146  -4.653  -6.258  0.00  0.00     0.275 HD
HETATM   16  H           1     -19.604  -6.089  -7.058  0.00  0.00     0.275 HD
ENDBRANCH   5  13
ENDBRANCH   2   5
BRANCH   1  17
HETATM   17  C           1     -21.668  -7.366  -4.219  0.00  0.00     0.185 C 
BRANCH  17  18
HETATM   18  C           1     -20.928  -8.697  -4.225  0.00  0.00     0.038 C 
BRANCH  18  19
HETATM   19  C           1     -21.917  -9.830  -3.986  0.00  0.00     0.030 C 
BRANCH  19  20
HETATM   20  C           1     -21.628 -10.480  -2.638  0.00  0.00     0.230 C 
BRANCH  20  21
HETATM   21  N           1     -20.245 -10.113  -2.191  0.00  0.00    -0.079 N 
HETATM   22  H           1     -20.294  -9.302  -1.534  0.00  0.00     0.274 HD
HETATM   23  H           1     -19.808 -10.929  -1.704  0.00  0.00     0.274 HD
HETATM   24  H           1     -19.667  -9.853  -3.022  0.00  0.00     0.274 HD
ENDBRANCH  20  21
ENDBRANCH  19  20
ENDBRANCH  18  19
ENDBRANCH  17  18
BRANCH  17  25
HETATM   25  C           1     -21.625  -6.771  -2.833  0.00  0.00     0.196 C 
HETATM   26  O           1     -20.752  -7.143  -2.020  0.00  0.00    -0.646 OA
HETATM   27  O           1     -22.463  -5.905  -2.500  0.00  0.00    -0.646 OA
ENDBRANCH  17  25
ENDBRANCH   1  17
TORSDOF 12
ENDMDL
MODEL 6
REMARK VINA RESULT:      -5.1     13.736     16.120
REMARK  12 active torsions:
REMARK  status: ('A' for Active; 'I' for Inactive)
REMARK    1  A    between atoms: C_1  and  C_20 
REMARK    2  A    between atoms: C_1  and  C_2 
REMARK    3  A    between atoms: C_2  and  C_3 
REMARK    4  A    between atoms: C_3  and  C_4 
REMARK    5  A    between atoms: C_3  and  N_7 
REMARK       I    between atoms: N_7  and  C_8 
REMARK    6  A    between atoms: C_8  and  C_9 
REMARK    7  A    between atoms: C_9  and  C_10 
REMARK    8  A    between atoms: C_9  and  N_23 
REMARK    9  A    between atoms: C_10  and  O_11 
REMARK   10  A    between atoms: O_11  and  P_12 
REMARK   11  A    between atoms: P_12  and  O_13 
REMARK   12  A    between atoms: N_19  and  C_20 
ROOT
HETATM    1  N           1     -21.375  -5.020  -6.739  0.00  0.00    -0.345 N 
HETATM    2  C           1     -21.179  -6.230  -6.130  0.00  0.00     0.251 C 
HETATM    3  H           1     -21.421  -4.175  -6.184  0.00  0.00     0.163 HD
HETATM    4  O           1     -21.125  -7.239  -6.793  0.00  0.00    -0.271 OA
ENDROOT
BRANCH   2   5
HETATM    5  C           1     -21.030  -6.304  -4.630  0.00  0.00     0.298 C 
BRANCH   5   6
HETATM    6  C           1     -20.354  -7.615  -4.250  0.00  0.00     0.224 C 
BRANCH   6   7
HETATM    7  O           1     -21.294  -8.473  -3.663  0.00  0.00    -0.287 OA
BRANCH   7   8
HETATM    8  P           1     -21.290  -9.998  -4.195  0.00  0.00     0.406 P 
HETATM    9  O           1     -22.571 -10.648  -3.839  0.00  0.00    -0.624 OA
HETATM   10  O           1     -20.170 -10.736  -3.568  0.00  0.00    -0.624 OA
BRANCH   8  11
HETATM   11  O           1     -21.109 -10.009  -5.800  0.00  0.00    -0.300 OA
HETATM   12  H           1     -21.019 -10.918  -6.029  0.00  0.00     0.223 HD
ENDBRANCH   8  11
ENDBRANCH   7   8
ENDBRANCH   6   7
ENDBRANCH   5   6
BRANCH   5  13
HETATM   13  N           1     -22.385  -6.238  -3.990  0.00  0.00    -0.064 N 
HETATM   14  H           1     -23.115  -6.498  -4.689  0.00  0.00     0.275 HD
HETATM   15  H           1     -22.422  -6.905  -3.185  0.00  0.00     0.275 HD
HETATM   16  H           1     -22.561  -5.267  -3.646  0.00  0.00     0.275 HD
ENDBRANCH   5  13
ENDBRANCH   2   5
BRANCH   1  17
HETATM   17  C           1     -21.518  -4.949  -8.180  0.00  0.00     0.185 C 
BRANCH  17  18
HETATM   18  C           1     -22.596  -3.934  -8.534  0.00  0.00     0.038 C 
BRANCH  18  19
HETATM   19  C           1     -23.532  -4.529  -9.579  0.00  0.00     0.030 C 
BRANCH  19  20
HETATM   20  C           1     -24.392  -3.423 -10.178  0.00  0.00     0.230 C 
BRANCH  20  21
HETATM   21  N           1     -25.803  -3.565  -9.691  0.00  0.00    -0.079 N 
HETATM   22  H           1     -26.307  -2.658  -9.810  0.00  0.00     0.274 HD
HETATM   23  H           1     -26.289  -4.308 -10.244  0.00  0.00     0.274 HD
HETATM   24  H           1     -25.797  -3.830  -8.680  0.00  0.00     0.274 HD
ENDBRANCH  20  21
ENDBRANCH  19  20
ENDBRANCH  18  19
ENDBRANCH  17  18
BRANCH  17  25
HETATM   25  C           1     -20.206  -4.526  -8.795  0.00  0.00     0.196 C 
HETATM   26  O           1     -19.342  -3.959  -8.093  0.00  0.00    -0.646 OA
HETATM   27  O           1     -19.985  -4.743 -10.006  0.00  0.00    -0.646 OA
ENDBRANCH  17  25
ENDBRANCH   1  17
TORSDOF 12
ENDMDL
MODEL 7
REMARK VINA RESULT:      -5.1     13.831     15.623
REMARK  12 active torsions:
REMARK  status: ('A' for Active; 'I' for Inactive)
REMARK    1  A    between atoms: C_1  and  C_20 
REMARK    2  A    between atoms: C_1  and  C_2 
REMARK    3  A    between atoms: C_2  and  C_3 
REMARK    4  A    between atoms: C_3  and  C_4 
REMARK    5  A    between atoms: C_3  and  N_7 
REMARK       I    between atoms: N_7  and  C_8 
REMARK    6  A    between atoms: C_8  and  C_9 
REMARK    7  A    between atoms: C_9  and  C_10 
REMARK    8  A    between atoms: C_9  and  N_23 
REMARK    9  A    between atoms: C_10  and  O_11 
REMARK   10  A    between atoms: O_11  and  P_12 
REMARK   11  A    between atoms: P_12  and  O_13 
REMARK   12  A    between atoms: N_19  and  C_20 
ROOT
HETATM    1  N           1     -21.142  -6.835  -6.119  0.00  0.00    -0.345 N 
HETATM    2  C           1     -21.102  -5.506  -6.443  0.00  0.00     0.251 C 
HETATM    3  H           1     -21.564  -7.499  -6.755  0.00  0.00     0.163 HD
HETATM    4  O           1     -20.598  -4.714  -5.683  0.00  0.00    -0.271 OA
ENDROOT
BRANCH   2   5
HETATM    5  C           1     -21.688  -5.031  -7.750  0.00  0.00     0.298 C 
BRANCH   5   6
HETATM    6  C           1     -20.654  -4.198  -8.497  0.00  0.00     0.224 C 
BRANCH   6   7
HETATM    7  O           1     -20.547  -4.658  -9.817  0.00  0.00    -0.287 OA
BRANCH   7   8
HETATM    8  P           1     -21.338  -3.798 -10.932  0.00  0.00     0.406 P 
HETATM    9  O           1     -22.497  -3.124 -10.305  0.00  0.00    -0.624 OA
HETATM   10  O           1     -21.811  -4.700 -12.006  0.00  0.00    -0.624 OA
BRANCH   8  11
HETATM   11  O           1     -20.347  -2.688 -11.560  0.00  0.00    -0.300 OA
HETATM   12  H           1     -20.221  -2.057 -10.872  0.00  0.00     0.223 HD
ENDBRANCH   8  11
ENDBRANCH   7   8
ENDBRANCH   6   7
ENDBRANCH   5   6
BRANCH   5  13
HETATM   13  N           1     -22.902  -4.194  -7.479  0.00  0.00    -0.064 N 
HETATM   14  H           1     -23.138  -4.240  -6.463  0.00  0.00     0.275 HD
HETATM   15  H           1     -22.707  -3.202  -7.747  0.00  0.00     0.275 HD
HETATM   16  H           1     -23.706  -4.554  -8.040  0.00  0.00     0.275 HD
ENDBRANCH   5  13
ENDBRANCH   2   5
BRANCH   1  17
HETATM   17  C           1     -20.579  -7.292  -4.863  0.00  0.00     0.185 C 
BRANCH  17  18
HETATM   18  C           1     -21.684  -7.399  -3.821  0.00  0.00     0.038 C 
BRANCH  18  19
HETATM   19  C           1     -21.130  -7.028  -2.451  0.00  0.00     0.030 C 
BRANCH  19  20
HETATM   20  C           1     -21.371  -8.175  -1.478  0.00  0.00     0.230 C 
BRANCH  20  21
HETATM   21  N           1     -20.250  -9.166  -1.585  0.00  0.00    -0.079 N 
HETATM   22  H           1     -19.353  -8.661  -1.766  0.00  0.00     0.274 HD
HETATM   23  H           1     -20.172  -9.702  -0.691  0.00  0.00     0.274 HD
HETATM   24  H           1     -20.443  -9.827  -2.372  0.00  0.00     0.274 HD
ENDBRANCH  20  21
ENDBRANCH  19  20
ENDBRANCH  18  19
ENDBRANCH  17  18
BRANCH  17  25
HETATM   25  C           1     -19.940  -8.645  -5.061  0.00  0.00     0.196 C 
HETATM   26  O           1     -20.463  -9.475  -5.834  0.00  0.00    -0.646 OA
HETATM   27  O           1     -18.888  -8.934  -4.450  0.00  0.00    -0.646 OA
ENDBRANCH  17  25
ENDBRANCH   1  17
TORSDOF 12
ENDMDL
MODEL 8
REMARK VINA RESULT:      -5.0     14.478     16.545
REMARK  12 active torsions:
REMARK  status: ('A' for Active; 'I' for Inactive)
REMARK    1  A    between atoms: C_1  and  C_20 
REMARK    2  A    between atoms: C_1  and  C_2 
REMARK    3  A    between atoms: C_2  and  C_3 
REMARK    4  A    between atoms: C_3  and  C_4 
REMARK    5  A    between atoms: C_3  and  N_7 
REMARK       I    between atoms: N_7  and  C_8 
REMARK    6  A    between atoms: C_8  and  C_9 
REMARK    7  A    between atoms: C_9  and  C_10 
REMARK    8  A    between atoms: C_9  and  N_23 
REMARK    9  A    between atoms: C_10  and  O_11 
REMARK   10  A    between atoms: O_11  and  P_12 
REMARK   11  A    between atoms: P_12  and  O_13 
REMARK   12  A    between atoms: N_19  and  C_20 
ROOT
HETATM    1  N           1     -21.462  -8.123  -3.569  0.00  0.00    -0.345 N 
HETATM    2  C           1     -20.896  -7.716  -4.746  0.00  0.00     0.251 C 
HETATM    3  H           1     -22.429  -7.901  -3.369  0.00  0.00     0.163 HD
HETATM    4  O           1     -19.741  -7.981  -4.985  0.00  0.00    -0.271 OA
ENDROOT
BRANCH   2   5
HETATM    5  C           1     -21.714  -6.936  -5.747  0.00  0.00     0.298 C 
BRANCH   5   6
HETATM    6  C           1     -20.809  -5.968  -6.498  0.00  0.00     0.224 C 
BRANCH   6   7
HETATM    7  O           1     -21.378  -5.667  -7.743  0.00  0.00    -0.287 OA
BRANCH   7   8
HETATM    8  P           1     -22.051  -4.204  -7.879  0.00  0.00     0.406 P 
HETATM    9  O           1     -21.986  -3.761  -9.290  0.00  0.00    -0.624 OA
HETATM   10  O           1     -21.319  -3.243  -7.025  0.00  0.00    -0.624 OA
BRANCH   8  11
HETATM   11  O           1     -23.594  -4.275  -7.409  0.00  0.00    -0.300 OA
HETATM   12  H           1     -23.700  -3.554  -6.811  0.00  0.00     0.223 HD
ENDBRANCH   8  11
ENDBRANCH   7   8
ENDBRANCH   6   7
ENDBRANCH   5   6
BRANCH   5  13
HETATM   13  N           1     -22.781  -6.166  -5.028  0.00  0.00    -0.064 N 
HETATM   14  H           1     -23.456  -5.774  -5.721  0.00  0.00     0.275 HD
HETATM   15  H           1     -23.288  -6.804  -4.372  0.00  0.00     0.275 HD
HETATM   16  H           1     -22.344  -5.387  -4.487  0.00  0.00     0.275 HD
ENDBRANCH   5  13
ENDBRANCH   2   5
BRANCH   1  17
HETATM   17  C           1     -20.676  -8.872  -2.608  0.00  0.00     0.185 C 
BRANCH  17  18
HETATM   18  C           1     -20.568  -8.078  -1.313  0.00  0.00     0.038 C 
BRANCH  18  19
HETATM   19  C           1     -21.956  -7.637  -0.868  0.00  0.00     0.030 C 
BRANCH  19  20
HETATM   20  C           1     -22.111  -7.878   0.628  0.00  0.00     0.230 C 
BRANCH  20  21
HETATM   21  N           1     -21.187  -8.979   1.056  0.00  0.00    -0.079 N 
HETATM   22  H           1     -20.199  -8.641   1.017  0.00  0.00     0.274 HD
HETATM   23  H           1     -21.417  -9.267   2.034  0.00  0.00     0.274 HD
HETATM   24  H           1     -21.300  -9.797   0.416  0.00  0.00     0.274 HD
ENDBRANCH  20  21
ENDBRANCH  19  20
ENDBRANCH  18  19
ENDBRANCH  17  18
BRANCH  17  25
HETATM   25  C           1     -21.347 -10.196  -2.333  0.00  0.00     0.196 C 
HETATM   26  O           1     -22.314 -10.563  -3.034  0.00  0.00    -0.646 OA
HETATM   27  O           1     -20.935 -10.924  -1.404  0.00  0.00    -0.646 OA
ENDBRANCH  17  25
ENDBRANCH   1  17
TORSDOF 12
ENDMDL
MODEL 9
REMARK VINA RESULT:      -4.9     14.397     16.715
REMARK  12 active torsions:
REMARK  status: ('A' for Active; 'I' for Inactive)
REMARK    1  A    between atoms: C_1  and  C_20 
REMARK    2  A    between atoms: C_1  and  C_2 
REMARK    3  A    between atoms: C_2  and  C_3 
REMARK    4  A    between atoms: C_3  and  C_4 
REMARK    5  A    between atoms: C_3  and  N_7 
REMARK       I    between atoms: N_7  and  C_8 
REMARK    6  A    between atoms: C_8  and  C_9 
REMARK    7  A    between atoms: C_9  and  C_10 
REMARK    8  A    between atoms: C_9  and  N_23 
REMARK    9  A    between atoms: C_10  and  O_11 
REMARK   10  A    between atoms: O_11  and  P_12 
REMARK   11  A    between atoms: P_12  and  O_13 
REMARK   12  A    between atoms: N_19  and  C_20 
ROOT
HETATM    1  N           1     -20.880  -5.716  -5.493  0.00  0.00    -0.345 N 
HETATM    2  C           1     -21.787  -6.132  -4.556  0.00  0.00     0.251 C 
HETATM    3  H           1     -19.921  -5.537  -5.225  0.00  0.00     0.163 HD
HETATM    4  O           1     -22.932  -6.346  -4.875  0.00  0.00    -0.271 OA
ENDROOT
BRANCH   2   5
HETATM    5  C           1     -21.355  -6.325  -3.122  0.00  0.00     0.298 C 
BRANCH   5   6
HETATM    6  C           1     -21.052  -7.797  -2.877  0.00  0.00     0.224 C 
BRANCH   6   7
HETATM    7  O           1     -20.961  -8.467  -4.105  0.00  0.00    -0.287 OA
BRANCH   7   8
HETATM    8  P           1     -19.592  -9.285  -4.365  0.00  0.00     0.406 P 
HETATM    9  O           1     -19.884 -10.735  -4.410  0.00  0.00    -0.624 OA
HETATM   10  O           1     -18.635  -9.006  -3.271  0.00  0.00    -0.624 OA
BRANCH   8  11
HETATM   11  O           1     -18.948  -8.823  -5.773  0.00  0.00    -0.300 OA
HETATM   12  H           1     -19.127  -7.899  -5.831  0.00  0.00     0.223 HD
ENDBRANCH   8  11
ENDBRANCH   7   8
ENDBRANCH   6   7
ENDBRANCH   5   6
BRANCH   5  13
HETATM   13  N           1     -22.455  -5.882  -2.205  0.00  0.00    -0.064 N 
HETATM   14  H           1     -22.753  -6.683  -1.604  0.00  0.00     0.275 HD
HETATM   15  H           1     -22.110  -5.102  -1.599  0.00  0.00     0.275 HD
HETATM   16  H           1     -23.268  -5.550  -2.771  0.00  0.00     0.275 HD
ENDBRANCH   5  13
ENDBRANCH   2   5
BRANCH   1  17
HETATM   17  C           1     -21.295  -5.531  -6.870  0.00  0.00     0.185 C 
BRANCH  17  18
HETATM   18  C           1     -21.860  -4.128  -7.046  0.00  0.00     0.038 C 
BRANCH  18  19
HETATM   19  C           1     -23.222  -4.208  -7.722  0.00  0.00     0.030 C 
BRANCH  19  20
HETATM   20  C           1     -23.123  -3.641  -9.133  0.00  0.00     0.230 C 
BRANCH  20  21
HETATM   21  N           1     -22.820  -4.749 -10.098  0.00  0.00    -0.079 N 
HETATM   22  H           1     -22.519  -4.343 -11.012  0.00  0.00     0.274 HD
HETATM   23  H           1     -22.053  -5.346  -9.713  0.00  0.00     0.274 HD
HETATM   24  H           1     -23.676  -5.331 -10.240  0.00  0.00     0.274 HD
ENDBRANCH  20  21
ENDBRANCH  19  20
ENDBRANCH  18  19
ENDBRANCH  17  18
BRANCH  17  25
HETATM   25  C           1     -20.106  -5.714  -7.782  0.00  0.00     0.196 C 
HETATM   26  O           1     -19.996  -5.016  -8.812  0.00  0.00    -0.646 OA
HETATM   27  O           1     -19.233  -6.565  -7.505  0.00  0.00    -0.646 OA
ENDBRANCH  17  25
ENDBRANCH   1  17
TORSDOF 12
ENDMDL
