MODEL 1
REMARK VINA RESULT:      -7.4      0.000      0.000
REMARK  11 active torsions:
REMARK  status: ('A' for Active; 'I' for Inactive)
REMARK       I    between atoms: C_1  and  N_2 
REMARK    1  A    between atoms: C_1  and  C_30 
REMARK    2  A    between atoms: N_2  and  C_6 
REMARK    3  A    between atoms: C_5  and  C_6 
REMARK    4  A    between atoms: C_6  and  C_8 
REMARK    5  A    between atoms: C_8  and  C_9 
REMARK    6  A    between atoms: O_11  and  P_23 
REMARK    7  A    between atoms: N_16  and  C_30 
REMARK    8  A    between atoms: P_23  and  O_24 
REMARK    9  A    between atoms: O_24  and  C_25 
REMARK   10  A    between atoms: C_28  and  C_29 
REMARK   11  A    between atoms: C_29  and  C_30 
ROOT
HETATM    1  C           1     -20.991  -5.863  -5.173  0.00  0.00     0.278 C 
ENDROOT
BRANCH   1   2
HETATM    2  C           1     -20.345  -7.218  -5.331  0.00  0.00     0.249 C 
HETATM    3  N           1     -20.514  -8.174  -4.366  0.00  0.00    -0.344 N 
HETATM    4  H           1     -21.072  -7.972  -3.546  0.00  0.00     0.163 HD
HETATM    5  O           1     -19.679  -7.460  -6.310  0.00  0.00    -0.271 OA
BRANCH   3   6
HETATM    6  C           1     -19.894  -9.476  -4.517  0.00  0.00     0.189 C 
BRANCH   6   7
HETATM    7  C           1     -20.910 -10.457  -5.049  0.00  0.00     0.197 C 
HETATM    8  O           1     -21.750 -10.967  -4.278  0.00  0.00    -0.646 OA
HETATM    9  O           1     -20.909 -10.761  -6.262  0.00  0.00    -0.646 OA
ENDBRANCH   6   7
BRANCH   6  10
HETATM   10  C           1     -19.383  -9.956  -3.166  0.00  0.00     0.014 C 
HETATM   11  C           1     -17.860  -9.996  -3.185  0.00  0.00     0.012 C 
BRANCH  10  12
HETATM   12  C           1     -19.851  -9.002  -2.076  0.00  0.00     0.002 C 
HETATM   13  C           1     -20.678  -9.768  -1.051  0.00  0.00     0.005 C 
ENDBRANCH  10  12
ENDBRANCH   6  10
ENDBRANCH   3   6
ENDBRANCH   1   2
BRANCH   1  14
HETATM   14  N           1     -21.103  -5.531  -3.715  0.00  0.00    -0.066 N 
HETATM   15  H           1     -21.423  -6.375  -3.189  0.00  0.00     0.275 HD
HETATM   16  H           1     -20.170  -5.229  -3.355  0.00  0.00     0.275 HD
HETATM   17  H           1     -21.794  -4.758  -3.586  0.00  0.00     0.275 HD
ENDBRANCH   1  14
BRANCH   1  18
HETATM   18  C           1     -20.138  -4.810  -5.868  0.00  0.00     0.081 C 
BRANCH  18  19
HETATM   19  C           1     -20.745  -4.472  -7.194  0.00  0.00    -0.056 A 
HETATM   20  C           1     -20.006  -4.646  -8.364  0.00  0.00     0.010 A 
HETATM   21  C           1     -20.572  -4.329  -9.600  0.00  0.00     0.038 A 
HETATM   22  C           1     -21.875  -3.839  -9.665  0.00  0.00     0.081 A 
HETATM   23  C           1     -22.614  -3.664  -8.495  0.00  0.00     0.038 A 
HETATM   24  C           1     -22.049  -3.980  -7.259  0.00  0.00     0.010 A 
BRANCH  22  25
HETATM   25  O           1     -22.425  -3.531 -10.865  0.00  0.00    -0.247 OA
BRANCH  25  26
HETATM   26  P           1     -23.773  -4.306 -11.302  0.00  0.00     0.411 P 
HETATM   27  O           1     -23.967  -5.485 -10.430  0.00  0.00    -0.624 OA
HETATM   28  O           1     -24.930  -3.394 -11.165  0.00  0.00    -0.624 OA
BRANCH  26  29
HETATM   29  O           1     -23.645  -4.787 -12.838  0.00  0.00    -0.300 OA
HETATM   30  H           1     -23.557  -3.993 -13.336  0.00  0.00     0.223 HD
ENDBRANCH  26  29
ENDBRANCH  25  26
ENDBRANCH  22  25
ENDBRANCH  18  19
ENDBRANCH   1  18
TORSDOF 11
ENDMDL
MODEL 2
REMARK VINA RESULT:      -7.3      1.651      2.208
REMARK  11 active torsions:
REMARK  status: ('A' for Active; 'I' for Inactive)
REMARK       I    between atoms: C_1  and  N_2 
REMARK    1  A    between atoms: C_1  and  C_30 
REMARK    2  A    between atoms: N_2  and  C_6 
REMARK    3  A    between atoms: C_5  and  C_6 
REMARK    4  A    between atoms: C_6  and  C_8 
REMARK    5  A    between atoms: C_8  and  C_9 
REMARK    6  A    between atoms: O_11  and  P_23 
REMARK    7  A    between atoms: N_16  and  C_30 
REMARK    8  A    between atoms: P_23  and  O_24 
REMARK    9  A    between atoms: O_24  and  C_25 
REMARK   10  A    between atoms: C_28  and  C_29 
REMARK   11  A    between atoms: C_29  and  C_30 
ROOT
HETATM    1  C           1     -21.562  -6.915  -4.536  0.00  0.00     0.278 C 
ENDROOT
BRANCH   1   2
HETATM    2  C           1     -21.298  -8.284  -3.958  0.00  0.00     0.249 C 
HETATM    3  N           1     -21.927  -8.674  -2.806  0.00  0.00    -0.344 N 
HETATM    4  H           1     -22.568  -8.043  -2.342  0.00  0.00     0.163 HD
HETATM    5  O           1     -20.532  -9.036  -4.512  0.00  0.00    -0.271 OA
BRANCH   3   6
HETATM    6  C           1     -21.673  -9.988  -2.250  0.00  0.00     0.189 C 
BRANCH   6   7
HETATM    7  C           1     -22.745 -10.944  -2.714  0.00  0.00     0.197 C 
HETATM    8  O           1     -22.659 -11.480  -3.839  0.00  0.00    -0.646 OA
HETATM    9  O           1     -23.719 -11.199  -1.972  0.00  0.00    -0.646 OA
ENDBRANCH   6   7
BRANCH   6  10
HETATM   10  C           1     -21.686  -9.909  -0.730  0.00  0.00     0.014 C 
HETATM   11  C           1     -20.447 -10.602  -0.176  0.00  0.00     0.012 C 
BRANCH  10  12
HETATM   12  C           1     -21.687  -8.450  -0.295  0.00  0.00     0.002 C 
HETATM   13  C           1     -22.937  -8.166   0.529  0.00  0.00     0.005 C 
ENDBRANCH  10  12
ENDBRANCH   6  10
ENDBRANCH   3   6
ENDBRANCH   1   2
BRANCH   1  14
HETATM   14  N           1     -21.618  -5.907  -3.427  0.00  0.00    -0.066 N 
HETATM   15  H           1     -21.287  -6.347  -2.539  0.00  0.00     0.275 HD
HETATM   16  H           1     -21.003  -5.095  -3.663  0.00  0.00     0.275 HD
HETATM   17  H           1     -22.601  -5.576  -3.306  0.00  0.00     0.275 HD
ENDBRANCH   1  14
BRANCH   1  18
HETATM   18  C           1     -20.441  -6.546  -5.499  0.00  0.00     0.081 C 
BRANCH  18  19
HETATM   19  C           1     -20.998  -5.730  -6.624  0.00  0.00    -0.056 A 
HETATM   20  C           1     -20.256  -5.553  -7.792  0.00  0.00     0.010 A 
HETATM   21  C           1     -20.775  -4.792  -8.839  0.00  0.00     0.038 A 
HETATM   22  C           1     -22.036  -4.209  -8.720  0.00  0.00     0.081 A 
HETATM   23  C           1     -22.778  -4.385  -7.552  0.00  0.00     0.038 A 
HETATM   24  C           1     -22.260  -5.146  -6.504  0.00  0.00     0.010 A 
BRANCH  22  25
HETATM   25  O           1     -22.540  -3.469  -9.738  0.00  0.00    -0.247 OA
BRANCH  25  26
HETATM   26  P           1     -23.582  -4.180 -10.746  0.00  0.00     0.411 P 
HETATM   27  O           1     -23.981  -5.494 -10.196  0.00  0.00    -0.624 OA
HETATM   28  O           1     -24.780  -3.324 -10.900  0.00  0.00    -0.624 OA
BRANCH  26  29
HETATM   29  O           1     -22.883  -4.389 -12.186  0.00  0.00    -0.300 OA
HETATM   30  H           1     -22.390  -3.601 -12.335  0.00  0.00     0.223 HD
ENDBRANCH  26  29
ENDBRANCH  25  26
ENDBRANCH  22  25
ENDBRANCH  18  19
ENDBRANCH   1  18
TORSDOF 11
ENDMDL
MODEL 3
REMARK VINA RESULT:      -7.2      1.134      1.898
REMARK  11 active torsions:
REMARK  status: ('A' for Active; 'I' for Inactive)
REMARK       I    between atoms: C_1  and  N_2 
REMARK    1  A    between atoms: C_1  and  C_30 
REMARK    2  A    between atoms: N_2  and  C_6 
REMARK    3  A    between atoms: C_5  and  C_6 
REMARK    4  A    between atoms: C_6  and  C_8 
REMARK    5  A    between atoms: C_8  and  C_9 
REMARK    6  A    between atoms: O_11  and  P_23 
REMARK    7  A    between atoms: N_16  and  C_30 
REMARK    8  A    between atoms: P_23  and  O_24 
REMARK    9  A    between atoms: O_24  and  C_25 
REMARK   10  A    between atoms: C_28  and  C_29 
REMARK   11  A    between atoms: C_29  and  C_30 
ROOT
HETATM    1  C           1     -21.742  -6.453  -4.768  0.00  0.00     0.278 C 
ENDROOT
BRANCH   1   2
HETATM    2  C           1     -21.393  -7.921  -4.795  0.00  0.00     0.249 C 
HETATM    3  N           1     -21.307  -8.626  -3.623  0.00  0.00    -0.344 N 
HETATM    4  H           1     -21.477  -8.162  -2.740  0.00  0.00     0.163 HD
HETATM    5  O           1     -21.190  -8.475  -5.848  0.00  0.00    -0.271 OA
BRANCH   3   6
HETATM    6  C           1     -20.973 -10.036  -3.649  0.00  0.00     0.189 C 
BRANCH   6   7
HETATM    7  C           1     -22.203 -10.850  -3.331  0.00  0.00     0.197 C 
HETATM    8  O           1     -22.655 -11.652  -4.175  0.00  0.00    -0.646 OA
HETATM    9  O           1     -22.770 -10.720  -2.225  0.00  0.00    -0.646 OA
ENDBRANCH   6   7
BRANCH   6  10
HETATM   10  C           1     -19.894 -10.321  -2.613  0.00  0.00     0.014 C 
HETATM   11  C           1     -19.427 -11.765  -2.753  0.00  0.00     0.012 C 
BRANCH  10  12
HETATM   12  C           1     -18.714  -9.384  -2.835  0.00  0.00     0.002 C 
HETATM   13  C           1     -17.979  -9.785  -4.108  0.00  0.00     0.005 C 
ENDBRANCH  10  12
ENDBRANCH   6  10
ENDBRANCH   3   6
ENDBRANCH   1   2
BRANCH   1  14
HETATM   14  N           1     -21.913  -6.006  -3.346  0.00  0.00    -0.066 N 
HETATM   15  H           1     -22.824  -5.505  -3.246  0.00  0.00     0.275 HD
HETATM   16  H           1     -21.903  -6.840  -2.717  0.00  0.00     0.275 HD
HETATM   17  H           1     -21.131  -5.363  -3.087  0.00  0.00     0.275 HD
ENDBRANCH   1  14
BRANCH   1  18
HETATM   18  C           1     -20.621  -5.654  -5.418  0.00  0.00     0.081 C 
BRANCH  18  19
HETATM   19  C           1     -21.087  -5.123  -6.739  0.00  0.00    -0.056 A 
HETATM   20  C           1     -22.361  -4.568  -6.856  0.00  0.00     0.010 A 
HETATM   21  C           1     -22.795  -4.074  -8.087  0.00  0.00     0.038 A 
HETATM   22  C           1     -21.956  -4.136  -9.199  0.00  0.00     0.081 A 
HETATM   23  C           1     -20.682  -4.691  -9.081  0.00  0.00     0.038 A 
HETATM   24  C           1     -20.247  -5.185  -7.851  0.00  0.00     0.010 A 
BRANCH  22  25
HETATM   25  O           1     -22.378  -3.656 -10.394  0.00  0.00    -0.247 OA
BRANCH  25  26
HETATM   26  P           1     -23.698  -4.315 -11.052  0.00  0.00     0.411 P 
HETATM   27  O           1     -24.032  -5.566 -10.337  0.00  0.00    -0.624 OA
HETATM   28  O           1     -24.828  -3.366 -10.942  0.00  0.00    -0.624 OA
BRANCH  26  29
HETATM   29  O           1     -23.420  -4.642 -12.608  0.00  0.00    -0.300 OA
HETATM   30  H           1     -22.645  -4.153 -12.826  0.00  0.00     0.223 HD
ENDBRANCH  26  29
ENDBRANCH  25  26
ENDBRANCH  22  25
ENDBRANCH  18  19
ENDBRANCH   1  18
TORSDOF 11
ENDMDL
MODEL 4
REMARK VINA RESULT:      -7.2      1.675      2.575
REMARK  11 active torsions:
REMARK  status: ('A' for Active; 'I' for Inactive)
REMARK       I    between atoms: C_1  and  N_2 
REMARK    1  A    between atoms: C_1  and  C_30 
REMARK    2  A    between atoms: N_2  and  C_6 
REMARK    3  A    between atoms: C_5  and  C_6 
REMARK    4  A    between atoms: C_6  and  C_8 
REMARK    5  A    between atoms: C_8  and  C_9 
REMARK    6  A    between atoms: O_11  and  P_23 
REMARK    7  A    between atoms: N_16  and  C_30 
REMARK    8  A    between atoms: P_23  and  O_24 
REMARK    9  A    between atoms: O_24  and  C_25 
REMARK   10  A    between atoms: C_28  and  C_29 
REMARK   11  A    between atoms: C_29  and  C_30 
ROOT
HETATM    1  C           1     -21.467  -7.041  -4.506  0.00  0.00     0.278 C 
ENDROOT
BRANCH   1   2
HETATM    2  C           1     -21.015  -8.275  -3.765  0.00  0.00     0.249 C 
HETATM    3  N           1     -21.738  -8.736  -2.697  0.00  0.00    -0.344 N 
HETATM    4  H           1     -22.575  -8.249  -2.405  0.00  0.00     0.163 HD
HETATM    5  O           1     -20.016  -8.857  -4.114  0.00  0.00    -0.271 OA
BRANCH   3   6
HETATM    6  C           1     -21.303  -9.921  -1.985  0.00  0.00     0.189 C 
BRANCH   6   7
HETATM    7  C           1     -21.877 -11.147  -2.653  0.00  0.00     0.197 C 
HETATM    8  O           1     -21.114 -12.036  -3.087  0.00  0.00    -0.646 OA
HETATM    9  O           1     -23.115 -11.272  -2.774  0.00  0.00    -0.646 OA
ENDBRANCH   6   7
BRANCH   6  10
HETATM   10  C           1     -21.788  -9.855  -0.543  0.00  0.00     0.014 C 
HETATM   11  C           1     -20.870 -10.692   0.339  0.00  0.00     0.012 C 
BRANCH  10  12
HETATM   12  C           1     -21.769  -8.409  -0.065  0.00  0.00     0.002 C 
HETATM   13  C           1     -23.118  -8.060   0.551  0.00  0.00     0.005 C 
ENDBRANCH  10  12
ENDBRANCH   6  10
ENDBRANCH   3   6
ENDBRANCH   1   2
BRANCH   1  14
HETATM   14  N           1     -21.733  -5.938  -3.525  0.00  0.00    -0.066 N 
HETATM   15  H           1     -21.107  -6.051  -2.696  0.00  0.00     0.275 HD
HETATM   16  H           1     -21.546  -5.016  -3.979  0.00  0.00     0.275 HD
HETATM   17  H           1     -22.730  -5.980  -3.216  0.00  0.00     0.275 HD
ENDBRANCH   1  14
BRANCH   1  18
HETATM   18  C           1     -20.378  -6.604  -5.476  0.00  0.00     0.081 C 
BRANCH  18  19
HETATM   19  C           1     -20.981  -5.760  -6.557  0.00  0.00    -0.056 A 
HETATM   20  C           1     -22.261  -5.231  -6.396  0.00  0.00     0.010 A 
HETATM   21  C           1     -22.822  -4.446  -7.404  0.00  0.00     0.038 A 
HETATM   22  C           1     -22.104  -4.191  -8.571  0.00  0.00     0.081 A 
HETATM   23  C           1     -20.824  -4.721  -8.733  0.00  0.00     0.038 A 
HETATM   24  C           1     -20.262  -5.506  -7.725  0.00  0.00     0.010 A 
BRANCH  22  25
HETATM   25  O           1     -22.649  -3.428  -9.550  0.00  0.00    -0.247 OA
BRANCH  25  26
HETATM   26  P           1     -23.573  -4.160 -10.654  0.00  0.00     0.411 P 
HETATM   27  O           1     -22.821  -4.282 -11.922  0.00  0.00    -0.624 OA
HETATM   28  O           1     -23.947  -5.507 -10.169  0.00  0.00    -0.624 OA
BRANCH  26  29
HETATM   29  O           1     -24.909  -3.289 -10.903  0.00  0.00    -0.300 OA
HETATM   30  H           1     -24.860  -2.583 -10.282  0.00  0.00     0.223 HD
ENDBRANCH  26  29
ENDBRANCH  25  26
ENDBRANCH  22  25
ENDBRANCH  18  19
ENDBRANCH   1  18
TORSDOF 11
ENDMDL
MODEL 5
REMARK VINA RESULT:      -7.1      2.066      2.647
REMARK  11 active torsions:
REMARK  status: ('A' for Active; 'I' for Inactive)
REMARK       I    between atoms: C_1  and  N_2 
REMARK    1  A    between atoms: C_1  and  C_30 
REMARK    2  A    between atoms: N_2  and  C_6 
REMARK    3  A    between atoms: C_5  and  C_6 
REMARK    4  A    between atoms: C_6  and  C_8 
REMARK    5  A    between atoms: C_8  and  C_9 
REMARK    6  A    between atoms: O_11  and  P_23 
REMARK    7  A    between atoms: N_16  and  C_30 
REMARK    8  A    between atoms: P_23  and  O_24 
REMARK    9  A    between atoms: O_24  and  C_25 
REMARK   10  A    between atoms: C_28  and  C_29 
REMARK   11  A    between atoms: C_29  and  C_30 
ROOT
HETATM    1  C           1     -20.092  -6.293  -5.434  0.00  0.00     0.278 C 
ENDROOT
BRANCH   1   2
HETATM    2  C           1     -21.124  -6.897  -4.513  0.00  0.00     0.249 C 
HETATM    3  N           1     -20.760  -7.330  -3.266  0.00  0.00    -0.344 N 
HETATM    4  H           1     -19.798  -7.245  -2.962  0.00  0.00     0.163 HD
HETATM    5  O           1     -22.272  -6.998  -4.875  0.00  0.00    -0.271 OA
BRANCH   3   6
HETATM    6  C           1     -21.751  -7.910  -2.381  0.00  0.00     0.189 C 
BRANCH   6   7
HETATM    7  C           1     -22.175  -6.884  -1.360  0.00  0.00     0.197 C 
HETATM    8  O           1     -22.191  -7.181  -0.146  0.00  0.00    -0.646 OA
HETATM    9  O           1     -22.510  -5.737  -1.727  0.00  0.00    -0.646 OA
ENDBRANCH   6   7
BRANCH   6  10
HETATM   10  C           1     -21.155  -9.118  -1.671  0.00  0.00     0.014 C 
HETATM   11  C           1     -22.073 -10.320  -1.858  0.00  0.00     0.012 C 
BRANCH  10  12
HETATM   12  C           1     -19.786  -9.430  -2.260  0.00  0.00     0.002 C 
HETATM   13  C           1     -19.563 -10.937  -2.257  0.00  0.00     0.005 C 
ENDBRANCH  10  12
ENDBRANCH   6  10
ENDBRANCH   3   6
ENDBRANCH   1   2
BRANCH   1  14
HETATM   14  N           1     -20.196  -6.931  -6.787  0.00  0.00    -0.066 N 
HETATM   15  H           1     -20.257  -7.969  -6.679  0.00  0.00     0.275 HD
HETATM   16  H           1     -21.053  -6.581  -7.272  0.00  0.00     0.275 HD
HETATM   17  H           1     -19.351  -6.689  -7.352  0.00  0.00     0.275 HD
ENDBRANCH   1  14
BRANCH   1  18
HETATM   18  C           1     -20.339  -4.796  -5.560  0.00  0.00     0.081 C 
BRANCH  18  19
HETATM   19  C           1     -20.869  -4.491  -6.926  0.00  0.00    -0.056 A 
HETATM   20  C           1     -19.994  -4.389  -8.008  0.00  0.00     0.010 A 
HETATM   21  C           1     -20.489  -4.104  -9.281  0.00  0.00     0.038 A 
HETATM   22  C           1     -21.858  -3.921  -9.472  0.00  0.00     0.081 A 
HETATM   23  C           1     -22.733  -4.022  -8.391  0.00  0.00     0.038 A 
HETATM   24  C           1     -22.239  -4.307  -7.118  0.00  0.00     0.010 A 
BRANCH  22  25
HETATM   25  O           1     -22.339  -3.644 -10.709  0.00  0.00    -0.247 OA
BRANCH  25  26
HETATM   26  P           1     -23.727  -4.338 -11.155  0.00  0.00     0.411 P 
HETATM   27  O           1     -23.980  -5.523 -10.306  0.00  0.00    -0.624 OA
HETATM   28  O           1     -24.835  -3.371 -10.995  0.00  0.00    -0.624 OA
BRANCH  26  29
HETATM   29  O           1     -23.630  -4.794 -12.701  0.00  0.00    -0.300 OA
HETATM   30  H           1     -22.786  -5.202 -12.782  0.00  0.00     0.223 HD
ENDBRANCH  26  29
ENDBRANCH  25  26
ENDBRANCH  22  25
ENDBRANCH  18  19
ENDBRANCH   1  18
TORSDOF 11
ENDMDL
MODEL 6
REMARK VINA RESULT:      -6.9      3.633      8.710
REMARK  11 active torsions:
REMARK  status: ('A' for Active; 'I' for Inactive)
REMARK       I    between atoms: C_1  and  N_2 
REMARK    1  A    between atoms: C_1  and  C_30 
REMARK    2  A    between atoms: N_2  and  C_6 
REMARK    3  A    between atoms: C_5  and  C_6 
REMARK    4  A    between atoms: C_6  and  C_8 
REMARK    5  A    between atoms: C_8  and  C_9 
REMARK    6  A    between atoms: O_11  and  P_23 
REMARK    7  A    between atoms: N_16  and  C_30 
REMARK    8  A    between atoms: P_23  and  O_24 
REMARK    9  A    between atoms: O_24  and  C_25 
REMARK   10  A    between atoms: C_28  and  C_29 
REMARK   11  A    between atoms: C_29  and  C_30 
ROOT
HETATM    1  C           1     -21.218  -5.535  -6.458  0.00  0.00     0.278 C 
ENDROOT
BRANCH   1   2
HETATM    2  C           1     -21.670  -4.461  -7.417  0.00  0.00     0.249 C 
HETATM    3  N           1     -22.388  -4.798  -8.534  0.00  0.00    -0.344 N 
HETATM    4  H           1     -22.615  -5.767  -8.716  0.00  0.00     0.163 HD
HETATM    5  O           1     -21.399  -3.304  -7.201  0.00  0.00    -0.271 OA
BRANCH   3   6
HETATM    6  C           1     -22.821  -3.767  -9.456  0.00  0.00     0.189 C 
BRANCH   6   7
HETATM    7  C           1     -24.321  -3.829  -9.609  0.00  0.00     0.197 C 
HETATM    8  O           1     -25.004  -2.788  -9.500  0.00  0.00    -0.646 OA
HETATM    9  O           1     -24.881  -4.922  -9.844  0.00  0.00    -0.646 OA
ENDBRANCH   6   7
BRANCH   6  10
HETATM   10  C           1     -22.162  -3.986 -10.811  0.00  0.00     0.014 C 
HETATM   11  C           1     -21.687  -2.649 -11.365  0.00  0.00     0.012 C 
BRANCH  10  12
HETATM   12  C           1     -20.971  -4.921 -10.653  0.00  0.00     0.002 C 
HETATM   13  C           1     -19.681  -4.145 -10.891  0.00  0.00     0.005 C 
ENDBRANCH  10  12
ENDBRANCH   6  10
ENDBRANCH   3   6
ENDBRANCH   1   2
BRANCH   1  14
HETATM   14  N           1     -20.114  -5.001  -5.594  0.00  0.00    -0.066 N 
HETATM   15  H           1     -20.201  -3.962  -5.521  0.00  0.00     0.275 HD
HETATM   16  H           1     -20.184  -5.424  -4.641  0.00  0.00     0.275 HD
HETATM   17  H           1     -19.191  -5.244  -6.018  0.00  0.00     0.275 HD
ENDBRANCH   1  14
BRANCH   1  18
HETATM   18  C           1     -22.389  -5.956  -5.580  0.00  0.00     0.081 C 
BRANCH  18  19
HETATM   19  C           1     -21.886  -6.786  -4.440  0.00  0.00    -0.056 A 
HETATM   20  C           1     -21.456  -8.094  -4.667  0.00  0.00     0.010 A 
HETATM   21  C           1     -20.987  -8.867  -3.604  0.00  0.00     0.038 A 
HETATM   22  C           1     -20.949  -8.334  -2.317  0.00  0.00     0.081 A 
HETATM   23  C           1     -21.380  -7.027  -2.090  0.00  0.00     0.038 A 
HETATM   24  C           1     -21.848  -6.253  -3.152  0.00  0.00     0.010 A 
BRANCH  22  25
HETATM   25  O           1     -20.494  -9.086  -1.285  0.00  0.00    -0.247 OA
BRANCH  25  26
HETATM   26  P           1     -21.558  -9.559  -0.166  0.00  0.00     0.411 P 
HETATM   27  O           1     -21.612  -8.554   0.918  0.00  0.00    -0.624 OA
HETATM   28  O           1     -22.896  -9.693  -0.783  0.00  0.00    -0.624 OA
BRANCH  26  29
HETATM   29  O           1     -21.103 -10.983   0.444  0.00  0.00    -0.300 OA
HETATM   30  H           1     -20.320 -11.212  -0.028  0.00  0.00     0.223 HD
ENDBRANCH  26  29
ENDBRANCH  25  26
ENDBRANCH  22  25
ENDBRANCH  18  19
ENDBRANCH   1  18
TORSDOF 11
ENDMDL
MODEL 7
REMARK VINA RESULT:      -6.8      1.702      2.538
REMARK  11 active torsions:
REMARK  status: ('A' for Active; 'I' for Inactive)
REMARK       I    between atoms: C_1  and  N_2 
REMARK    1  A    between atoms: C_1  and  C_30 
REMARK    2  A    between atoms: N_2  and  C_6 
REMARK    3  A    between atoms: C_5  and  C_6 
REMARK    4  A    between atoms: C_6  and  C_8 
REMARK    5  A    between atoms: C_8  and  C_9 
REMARK    6  A    between atoms: O_11  and  P_23 
REMARK    7  A    between atoms: N_16  and  C_30 
REMARK    8  A    between atoms: P_23  and  O_24 
REMARK    9  A    between atoms: O_24  and  C_25 
REMARK   10  A    between atoms: C_28  and  C_29 
REMARK   11  A    between atoms: C_29  and  C_30 
ROOT
HETATM    1  C           1     -21.380  -6.858  -5.078  0.00  0.00     0.278 C 
ENDROOT
BRANCH   1   2
HETATM    2  C           1     -20.605  -8.048  -4.566  0.00  0.00     0.249 C 
HETATM    3  N           1     -20.461  -9.161  -5.351  0.00  0.00    -0.344 N 
HETATM    4  H           1     -20.875  -9.185  -6.274  0.00  0.00     0.163 HD
HETATM    5  O           1     -20.111  -8.018  -3.464  0.00  0.00    -0.271 OA
BRANCH   3   6
HETATM    6  C           1     -19.718 -10.303  -4.860  0.00  0.00     0.189 C 
BRANCH   6   7
HETATM    7  C           1     -18.352 -10.327  -5.501  0.00  0.00     0.197 C 
HETATM    8  O           1     -17.476 -11.109  -5.075  0.00  0.00    -0.646 OA
HETATM    9  O           1     -18.097  -9.563  -6.457  0.00  0.00    -0.646 OA
ENDBRANCH   6   7
BRANCH   6  10
HETATM   10  C           1     -20.464 -11.584  -5.206  0.00  0.00     0.014 C 
HETATM   11  C           1     -21.915 -11.463  -4.757  0.00  0.00     0.012 C 
BRANCH  10  12
HETATM   12  C           1     -20.418 -11.809  -6.712  0.00  0.00     0.002 C 
HETATM   13  C           1     -21.290 -13.004  -7.074  0.00  0.00     0.005 C 
ENDBRANCH  10  12
ENDBRANCH   6  10
ENDBRANCH   3   6
ENDBRANCH   1   2
BRANCH   1  14
HETATM   14  N           1     -22.202  -6.280  -3.964  0.00  0.00    -0.066 N 
HETATM   15  H           1     -23.146  -6.726  -3.959  0.00  0.00     0.275 HD
HETATM   16  H           1     -21.726  -6.462  -3.051  0.00  0.00     0.275 HD
HETATM   17  H           1     -22.304  -5.250  -4.105  0.00  0.00     0.275 HD
ENDBRANCH   1  14
BRANCH   1  18
HETATM   18  C           1     -20.409  -5.803  -5.591  0.00  0.00     0.081 C 
BRANCH  18  19
HETATM   19  C           1     -20.933  -5.222  -6.868  0.00  0.00    -0.056 A 
HETATM   20  C           1     -20.153  -5.263  -8.024  0.00  0.00     0.010 A 
HETATM   21  C           1     -20.641  -4.721  -9.213  0.00  0.00     0.038 A 
HETATM   22  C           1     -21.907  -4.138  -9.247  0.00  0.00     0.081 A 
HETATM   23  C           1     -22.686  -4.095  -8.091  0.00  0.00     0.038 A 
HETATM   24  C           1     -22.199  -4.638  -6.901  0.00  0.00     0.010 A 
BRANCH  22  25
HETATM   25  O           1     -22.381  -3.611 -10.402  0.00  0.00    -0.247 OA
BRANCH  25  26
HETATM   26  P           1     -23.691  -4.287 -11.062  0.00  0.00     0.411 P 
HETATM   27  O           1     -24.024  -5.530 -10.332  0.00  0.00    -0.624 OA
HETATM   28  O           1     -24.827  -3.344 -10.976  0.00  0.00    -0.624 OA
BRANCH  26  29
HETATM   29  O           1     -23.397  -4.634 -12.611  0.00  0.00    -0.300 OA
HETATM   30  H           1     -24.232  -4.565 -13.039  0.00  0.00     0.223 HD
ENDBRANCH  26  29
ENDBRANCH  25  26
ENDBRANCH  22  25
ENDBRANCH  18  19
ENDBRANCH   1  18
TORSDOF 11
ENDMDL
MODEL 8
REMARK VINA RESULT:      -6.6      4.794      7.286
REMARK  11 active torsions:
REMARK  status: ('A' for Active; 'I' for Inactive)
REMARK       I    between atoms: C_1  and  N_2 
REMARK    1  A    between atoms: C_1  and  C_30 
REMARK    2  A    between atoms: N_2  and  C_6 
REMARK    3  A    between atoms: C_5  and  C_6 
REMARK    4  A    between atoms: C_6  and  C_8 
REMARK    5  A    between atoms: C_8  and  C_9 
REMARK    6  A    between atoms: O_11  and  P_23 
REMARK    7  A    between atoms: N_16  and  C_30 
REMARK    8  A    between atoms: P_23  and  O_24 
REMARK    9  A    between atoms: O_24  and  C_25 
REMARK   10  A    between atoms: C_28  and  C_29 
REMARK   11  A    between atoms: C_29  and  C_30 
ROOT
HETATM    1  C           1     -22.723 -10.469  -0.242  0.00  0.00     0.278 C 
ENDROOT
BRANCH   1   2
HETATM    2  C           1     -21.864 -11.463   0.502  0.00  0.00     0.249 C 
HETATM    3  N           1     -22.195 -12.792   0.499  0.00  0.00    -0.344 N 
HETATM    4  H           1     -23.016 -13.107  -0.002  0.00  0.00     0.163 HD
HETATM    5  O           1     -20.885 -11.087   1.100  0.00  0.00    -0.271 OA
BRANCH   3   6
HETATM    6  C           1     -21.371 -13.746   1.213  0.00  0.00     0.189 C 
BRANCH   6   7
HETATM    7  C           1     -20.364 -14.349   0.265  0.00  0.00     0.197 C 
HETATM    8  O           1     -19.152 -14.067   0.379  0.00  0.00    -0.646 OA
HETATM    9  O           1     -20.742 -15.128  -0.637  0.00  0.00    -0.646 OA
ENDBRANCH   6   7
BRANCH   6  10
HETATM   10  C           1     -22.250 -14.848   1.788  0.00  0.00     0.014 C 
HETATM   11  C           1     -21.502 -15.560   2.909  0.00  0.00     0.012 C 
BRANCH  10  12
HETATM   12  C           1     -23.532 -14.241   2.340  0.00  0.00     0.002 C 
HETATM   13  C           1     -23.899 -14.932   3.648  0.00  0.00     0.005 C 
ENDBRANCH  10  12
ENDBRANCH   6  10
ENDBRANCH   3   6
ENDBRANCH   1   2
BRANCH   1  14
HETATM   14  N           1     -24.170 -10.776   0.006  0.00  0.00    -0.066 N 
HETATM   15  H           1     -24.744 -10.419  -0.790  0.00  0.00     0.275 HD
HETATM   16  H           1     -24.296 -11.811   0.089  0.00  0.00     0.275 HD
HETATM   17  H           1     -24.477 -10.315   0.892  0.00  0.00     0.275 HD
ENDBRANCH   1  14
BRANCH   1  18
HETATM   18  C           1     -22.412  -9.062   0.250  0.00  0.00     0.081 C 
BRANCH  18  19
HETATM   19  C           1     -22.011  -8.205  -0.911  0.00  0.00    -0.056 A 
HETATM   20  C           1     -22.414  -6.871  -0.964  0.00  0.00     0.010 A 
HETATM   21  C           1     -22.040  -6.073  -2.046  0.00  0.00     0.038 A 
HETATM   22  C           1     -21.264  -6.609  -3.073  0.00  0.00     0.081 A 
HETATM   23  C           1     -20.862  -7.944  -3.020  0.00  0.00     0.038 A 
HETATM   24  C           1     -21.235  -8.742  -1.939  0.00  0.00     0.010 A 
BRANCH  22  25
HETATM   25  O           1     -20.901  -5.834  -4.124  0.00  0.00    -0.247 OA
BRANCH  25  26
HETATM   26  P           1     -21.686  -6.035  -5.521  0.00  0.00     0.411 P 
HETATM   27  O           1     -23.128  -6.227  -5.251  0.00  0.00    -0.624 OA
HETATM   28  O           1     -21.497  -4.838  -6.369  0.00  0.00    -0.624 OA
BRANCH  26  29
HETATM   29  O           1     -21.104  -7.333  -6.285  0.00  0.00    -0.300 OA
HETATM   30  H           1     -20.169  -7.233  -6.259  0.00  0.00     0.223 HD
ENDBRANCH  26  29
ENDBRANCH  25  26
ENDBRANCH  22  25
ENDBRANCH  18  19
ENDBRANCH   1  18
TORSDOF 11
ENDMDL
MODEL 9
REMARK VINA RESULT:      -6.6      3.161      4.891
REMARK  11 active torsions:
REMARK  status: ('A' for Active; 'I' for Inactive)
REMARK       I    between atoms: C_1  and  N_2 
REMARK    1  A    between atoms: C_1  and  C_30 
REMARK    2  A    between atoms: N_2  and  C_6 
REMARK    3  A    between atoms: C_5  and  C_6 
REMARK    4  A    between atoms: C_6  and  C_8 
REMARK    5  A    between atoms: C_8  and  C_9 
REMARK    6  A    between atoms: O_11  and  P_23 
REMARK    7  A    between atoms: N_16  and  C_30 
REMARK    8  A    between atoms: P_23  and  O_24 
REMARK    9  A    between atoms: O_24  and  C_25 
REMARK   10  A    between atoms: C_28  and  C_29 
REMARK   11  A    between atoms: C_29  and  C_30 
ROOT
HETATM    1  C           1     -19.633 -10.266  -3.687  0.00  0.00     0.278 C 
ENDROOT
BRANCH   1   2
HETATM    2  C           1     -20.168 -10.353  -2.279  0.00  0.00     0.249 C 
HETATM    3  N           1     -21.444  -9.938  -2.004  0.00  0.00    -0.344 N 
HETATM    4  H           1     -22.027  -9.573  -2.746  0.00  0.00     0.163 HD
HETATM    5  O           1     -19.472 -10.790  -1.394  0.00  0.00    -0.271 OA
BRANCH   3   6
HETATM    6  C           1     -21.958 -10.022  -0.652  0.00  0.00     0.189 C 
BRANCH   6   7
HETATM    7  C           1     -23.350 -10.605  -0.679  0.00  0.00     0.197 C 
HETATM    8  O           1     -24.209 -10.209   0.138  0.00  0.00    -0.646 OA
HETATM    9  O           1     -23.643 -11.485  -1.517  0.00  0.00    -0.646 OA
ENDBRANCH   6   7
BRANCH   6  10
HETATM   10  C           1     -22.003  -8.630  -0.037  0.00  0.00     0.014 C 
HETATM   11  C           1     -21.217  -8.628   1.269  0.00  0.00     0.012 C 
BRANCH  10  12
HETATM   12  C           1     -21.384  -7.627  -1.001  0.00  0.00     0.002 C 
HETATM   13  C           1     -22.393  -6.527  -1.307  0.00  0.00     0.005 C 
ENDBRANCH  10  12
ENDBRANCH   6  10
ENDBRANCH   3   6
ENDBRANCH   1   2
BRANCH   1  14
HETATM   14  N           1     -18.947 -11.552  -4.042  0.00  0.00    -0.066 N 
HETATM   15  H           1     -17.968 -11.537  -3.677  0.00  0.00     0.275 HD
HETATM   16  H           1     -19.466 -12.352  -3.613  0.00  0.00     0.275 HD
HETATM   17  H           1     -18.930 -11.663  -5.080  0.00  0.00     0.275 HD
ENDBRANCH   1  14
BRANCH   1  18
HETATM   18  C           1     -20.784 -10.024  -4.653  0.00  0.00     0.081 C 
BRANCH  18  19
HETATM   19  C           1     -20.826  -8.574  -5.027  0.00  0.00    -0.056 A 
HETATM   20  C           1     -21.978  -7.824  -4.785  0.00  0.00     0.010 A 
HETATM   21  C           1     -22.016  -6.474  -5.133  0.00  0.00     0.038 A 
HETATM   22  C           1     -20.905  -5.874  -5.724  0.00  0.00     0.081 A 
HETATM   23  C           1     -19.754  -6.623  -5.967  0.00  0.00     0.038 A 
HETATM   24  C           1     -19.714  -7.974  -5.618  0.00  0.00     0.010 A 
BRANCH  22  25
HETATM   25  O           1     -20.943  -4.562  -6.062  0.00  0.00    -0.247 OA
BRANCH  25  26
HETATM   26  P           1     -21.135  -4.187  -7.621  0.00  0.00     0.411 P 
HETATM   27  O           1     -19.857  -3.679  -8.167  0.00  0.00    -0.624 OA
HETATM   28  O           1     -21.546  -5.395  -8.371  0.00  0.00    -0.624 OA
BRANCH  26  29
HETATM   29  O           1     -22.273  -3.051  -7.767  0.00  0.00    -0.300 OA
HETATM   30  H           1     -22.013  -2.368  -7.174  0.00  0.00     0.223 HD
ENDBRANCH  26  29
ENDBRANCH  25  26
ENDBRANCH  22  25
ENDBRANCH  18  19
ENDBRANCH   1  18
TORSDOF 11
ENDMDL
