MODEL 1
REMARK VINA RESULT:      -6.8      0.000      0.000
REMARK  11 active torsions:
REMARK  status: ('A' for Active; 'I' for Inactive)
REMARK    1  A    between atoms: C_1  and  C_3 
REMARK    2  A    between atoms: C_1  and  C_18 
REMARK    3  A    between atoms: C_3  and  N_4 
REMARK    4  A    between atoms: C_9  and  C_10 
REMARK    5  A    between atoms: C_10  and  C_11 
REMARK    6  A    between atoms: C_11  and  C_12 
REMARK    7  A    between atoms: C_11  and  N_21 
REMARK       I    between atoms: C_12  and  N_17 
REMARK    8  A    between atoms: N_17  and  C_25 
REMARK    9  A    between atoms: C_18  and  C_22 
REMARK   10  A    between atoms: C_22  and  C_25 
REMARK   11  A    between atoms: C_25  and  C_26 
ROOT
HETATM    1  C           1     -25.455  -6.906 -18.943  0.00  0.00     0.249 C 
HETATM    2  O           1     -24.385  -6.514 -18.541  0.00  0.00    -0.271 OA
HETATM    3  N           1     -26.592  -6.651 -18.223  0.00  0.00    -0.345 N 
HETATM    4  H           1     -27.488  -6.980 -18.560  0.00  0.00     0.163 HD
ENDROOT
BRANCH   1   5
HETATM    5  C           1     -25.538  -7.677 -20.238  0.00  0.00     0.280 C 
BRANCH   5   6
HETATM    6  C           1     -24.687  -6.988 -21.296  0.00  0.00     0.101 C 
BRANCH   6   7
HETATM    7  C           1     -23.508  -7.849 -21.627  0.00  0.00     0.028 A 
HETATM    8  C           1     -23.178  -8.268 -22.893  0.00  0.00     0.114 A 
HETATM    9  N           1     -22.048  -9.022 -22.734  0.00  0.00    -0.360 N 
HETATM   10  H           1     -21.512  -9.507 -23.497  0.00  0.00     0.166 HD
HETATM   11  C           1     -21.744  -9.030 -21.403  0.00  0.00     0.180 A 
HETATM   12  N           1     -22.611  -8.329 -20.709  0.00  0.00    -0.355 N 
ATOM     13  HN          1     -22.615  -8.174 -19.700  1.00  0.00     0.166 HD
ENDBRANCH   6   7
ENDBRANCH   5   6
BRANCH   5  14
HETATM   14  N           1     -26.965  -7.726 -20.699  0.00  0.00    -0.066 N 
HETATM   15  H           1     -27.006  -8.129 -21.663  0.00  0.00     0.275 HD
HETATM   16  H           1     -27.522  -8.324 -20.047  0.00  0.00     0.275 HD
HETATM   17  H           1     -27.360  -6.758 -20.708  0.00  0.00     0.275 HD
ENDBRANCH   5  14
ENDBRANCH   1   5
BRANCH   3  18
HETATM   18  C           1     -26.512  -5.911 -16.979  0.00  0.00     0.185 C 
BRANCH  18  19
HETATM   19  C           1     -27.751  -5.039 -16.826  0.00  0.00     0.036 C 
BRANCH  19  20
HETATM   20  C           1     -28.684  -5.268 -18.007  0.00  0.00     0.004 C 
BRANCH  20  21
HETATM   21  C           1     -29.978  -5.903 -17.518  0.00  0.00     0.027 C 
BRANCH  21  22
HETATM   22  C           1     -30.160  -7.263 -18.179  0.00  0.00     0.229 C 
BRANCH  22  23
HETATM   23  N           1     -29.457  -8.312 -17.370  0.00  0.00    -0.079 N 
HETATM   24  H           1     -28.483  -7.996 -17.158  0.00  0.00     0.274 HD
HETATM   25  H           1     -29.975  -8.467 -16.475  0.00  0.00     0.274 HD
HETATM   26  H           1     -29.422  -9.205 -17.912  0.00  0.00     0.274 HD
ENDBRANCH  22  23
ENDBRANCH  21  22
ENDBRANCH  20  21
ENDBRANCH  19  20
ENDBRANCH  18  19
BRANCH  18  27
HETATM   27  C           1     -26.432  -6.879 -15.825  0.00  0.00     0.196 C 
HETATM   28  O           1     -27.479  -7.353 -15.333  0.00  0.00    -0.646 OA
HETATM   29  O           1     -25.319  -7.206 -15.359  0.00  0.00    -0.646 OA
ENDBRANCH  18  27
ENDBRANCH   3  18
TORSDOF 11
ENDMDL
MODEL 2
REMARK VINA RESULT:      -5.9     11.945     14.422
REMARK  11 active torsions:
REMARK  status: ('A' for Active; 'I' for Inactive)
REMARK    1  A    between atoms: C_1  and  C_3 
REMARK    2  A    between atoms: C_1  and  C_18 
REMARK    3  A    between atoms: C_3  and  N_4 
REMARK    4  A    between atoms: C_9  and  C_10 
REMARK    5  A    between atoms: C_10  and  C_11 
REMARK    6  A    between atoms: C_11  and  C_12 
REMARK    7  A    between atoms: C_11  and  N_21 
REMARK       I    between atoms: C_12  and  N_17 
REMARK    8  A    between atoms: N_17  and  C_25 
REMARK    9  A    between atoms: C_18  and  C_22 
REMARK   10  A    between atoms: C_22  and  C_25 
REMARK   11  A    between atoms: C_25  and  C_26 
ROOT
HETATM    1  C           1     -20.819  -4.921  -6.229  0.00  0.00     0.249 C 
HETATM    2  O           1     -19.995  -4.448  -5.483  0.00  0.00    -0.271 OA
HETATM    3  N           1     -21.443  -6.096  -5.901  0.00  0.00    -0.345 N 
HETATM    4  H           1     -22.133  -6.493  -6.525  0.00  0.00     0.163 HD
ENDROOT
BRANCH   1   5
HETATM    5  C           1     -21.162  -4.220  -7.520  0.00  0.00     0.280 C 
BRANCH   5   6
HETATM    6  C           1     -21.821  -5.206  -8.475  0.00  0.00     0.101 C 
BRANCH   6   7
HETATM    7  C           1     -22.990  -4.550  -9.142  0.00  0.00     0.028 A 
HETATM    8  C           1     -23.348  -4.741 -10.455  0.00  0.00     0.114 A 
HETATM    9  N           1     -24.456  -3.960 -10.637  0.00  0.00    -0.360 N 
HETATM   10  H           1     -25.004  -3.856 -11.528  0.00  0.00     0.166 HD
HETATM   11  C           1     -24.719  -3.337  -9.451  0.00  0.00     0.180 A 
HETATM   12  N           1     -23.848  -3.676  -8.528  0.00  0.00    -0.355 N 
ATOM     13  HN          1     -23.817  -3.356  -7.559  1.00  0.00     0.166 HD
ENDBRANCH   6   7
ENDBRANCH   5   6
BRANCH   5  14
HETATM   14  N           1     -19.908  -3.683  -8.145  0.00  0.00    -0.066 N 
HETATM   15  H           1     -20.037  -3.614  -9.180  0.00  0.00     0.275 HD
HETATM   16  H           1     -19.703  -2.735  -7.755  0.00  0.00     0.275 HD
HETATM   17  H           1     -19.112  -4.326  -7.934  0.00  0.00     0.275 HD
ENDBRANCH   5  14
ENDBRANCH   1   5
BRANCH   3  18
HETATM   18  C           1     -21.113  -6.770  -4.660  0.00  0.00     0.185 C 
BRANCH  18  19
HETATM   19  C           1     -22.245  -6.577  -3.660  0.00  0.00     0.036 C 
BRANCH  19  20
HETATM   20  C           1     -21.677  -6.067  -2.342  0.00  0.00     0.004 C 
BRANCH  20  21
HETATM   21  C           1     -22.318  -6.823  -1.186  0.00  0.00     0.027 C 
BRANCH  21  22
HETATM   22  C           1     -21.403  -7.962  -0.754  0.00  0.00     0.229 C 
BRANCH  22  23
HETATM   23  N           1     -21.949  -9.263  -1.264  0.00  0.00    -0.079 N 
HETATM   24  H           1     -21.240 -10.018  -1.125  0.00  0.00     0.274 HD
HETATM   25  H           1     -22.821  -9.504  -0.740  0.00  0.00     0.274 HD
HETATM   26  H           1     -22.168  -9.173  -2.282  0.00  0.00     0.274 HD
ENDBRANCH  22  23
ENDBRANCH  21  22
ENDBRANCH  20  21
ENDBRANCH  19  20
ENDBRANCH  18  19
BRANCH  18  27
HETATM   27  C           1     -20.923  -8.243  -4.926  0.00  0.00     0.196 C 
HETATM   28  O           1     -21.153  -8.708  -6.063  0.00  0.00    -0.646 OA
HETATM   29  O           1     -20.536  -8.999  -4.008  0.00  0.00    -0.646 OA
ENDBRANCH  18  27
ENDBRANCH   3  18
TORSDOF 11
ENDMDL
MODEL 3
REMARK VINA RESULT:      -5.6     12.028     14.207
REMARK  11 active torsions:
REMARK  status: ('A' for Active; 'I' for Inactive)
REMARK    1  A    between atoms: C_1  and  C_3 
REMARK    2  A    between atoms: C_1  and  C_18 
REMARK    3  A    between atoms: C_3  and  N_4 
REMARK    4  A    between atoms: C_9  and  C_10 
REMARK    5  A    between atoms: C_10  and  C_11 
REMARK    6  A    between atoms: C_11  and  C_12 
REMARK    7  A    between atoms: C_11  and  N_21 
REMARK       I    between atoms: C_12  and  N_17 
REMARK    8  A    between atoms: N_17  and  C_25 
REMARK    9  A    between atoms: C_18  and  C_22 
REMARK   10  A    between atoms: C_22  and  C_25 
REMARK   11  A    between atoms: C_25  and  C_26 
ROOT
HETATM    1  C           1     -20.907  -5.143  -6.328  0.00  0.00     0.249 C 
HETATM    2  O           1     -20.240  -4.445  -5.601  0.00  0.00    -0.271 OA
HETATM    3  N           1     -21.171  -6.441  -5.977  0.00  0.00    -0.345 N 
HETATM    4  H           1     -21.730  -7.025  -6.586  0.00  0.00     0.163 HD
ENDROOT
BRANCH   1   5
HETATM    5  C           1     -21.450  -4.585  -7.621  0.00  0.00     0.280 C 
BRANCH   5   6
HETATM    6  C           1     -20.346  -4.566  -8.669  0.00  0.00     0.101 C 
BRANCH   6   7
HETATM    7  C           1     -20.947  -4.350 -10.023  0.00  0.00     0.028 A 
HETATM    8  C           1     -20.295  -3.766 -11.083  0.00  0.00     0.114 A 
HETATM    9  N           1     -21.204  -3.771 -12.104  0.00  0.00    -0.360 N 
HETATM   10  H           1     -21.050  -3.400 -13.075  0.00  0.00     0.166 HD
HETATM   11  C           1     -22.350  -4.345 -11.632  0.00  0.00     0.180 A 
HETATM   12  N           1     -22.223  -4.705 -10.376  0.00  0.00    -0.355 N 
ATOM     13  HN          1     -22.925  -5.154  -9.787  1.00  0.00     0.166 HD
ENDBRANCH   6   7
ENDBRANCH   5   6
BRANCH   5  14
HETATM   14  N           1     -21.946  -3.187  -7.393  0.00  0.00    -0.066 N 
HETATM   15  H           1     -22.482  -2.867  -8.231  0.00  0.00     0.275 HD
HETATM   16  H           1     -22.568  -3.171  -6.553  0.00  0.00     0.275 HD
HETATM   17  H           1     -21.131  -2.552  -7.236  0.00  0.00     0.275 HD
ENDBRANCH   5  14
ENDBRANCH   1   5
BRANCH   3  18
HETATM   18  C           1     -20.649  -6.976  -4.735  0.00  0.00     0.185 C 
BRANCH  18  19
HETATM   19  C           1     -21.782  -7.119  -3.727  0.00  0.00     0.036 C 
BRANCH  19  20
HETATM   20  C           1     -21.557  -6.157  -2.569  0.00  0.00     0.004 C 
BRANCH  20  21
HETATM   21  C           1     -22.258  -6.685  -1.325  0.00  0.00     0.027 C 
BRANCH  21  22
HETATM   22  C           1     -21.585  -7.973  -0.870  0.00  0.00     0.229 C 
BRANCH  22  23
HETATM   23  N           1     -22.613  -8.894  -0.281  0.00  0.00    -0.079 N 
HETATM   24  H           1     -22.309  -9.191   0.674  0.00  0.00     0.274 HD
HETATM   25  H           1     -23.530  -8.396  -0.217  0.00  0.00     0.274 HD
HETATM   26  H           1     -22.715  -9.736  -0.892  0.00  0.00     0.274 HD
ENDBRANCH  22  23
ENDBRANCH  21  22
ENDBRANCH  20  21
ENDBRANCH  19  20
ENDBRANCH  18  19
BRANCH  18  27
HETATM   27  C           1     -20.033  -8.329  -4.993  0.00  0.00     0.196 C 
HETATM   28  O           1     -19.221  -8.477  -5.932  0.00  0.00    -0.646 OA
HETATM   29  O           1     -20.333  -9.302  -4.268  0.00  0.00    -0.646 OA
ENDBRANCH  18  27
ENDBRANCH   3  18
TORSDOF 11
ENDMDL
MODEL 4
REMARK VINA RESULT:      -5.6      2.625      7.275
REMARK  11 active torsions:
REMARK  status: ('A' for Active; 'I' for Inactive)
REMARK    1  A    between atoms: C_1  and  C_3 
REMARK    2  A    between atoms: C_1  and  C_18 
REMARK    3  A    between atoms: C_3  and  N_4 
REMARK    4  A    between atoms: C_9  and  C_10 
REMARK    5  A    between atoms: C_10  and  C_11 
REMARK    6  A    between atoms: C_11  and  C_12 
REMARK    7  A    between atoms: C_11  and  N_21 
REMARK       I    between atoms: C_12  and  N_17 
REMARK    8  A    between atoms: N_17  and  C_25 
REMARK    9  A    between atoms: C_18  and  C_22 
REMARK   10  A    between atoms: C_22  and  C_25 
REMARK   11  A    between atoms: C_25  and  C_26 
ROOT
HETATM    1  C           1     -28.277  -5.593 -16.961  0.00  0.00     0.249 C 
HETATM    2  O           1     -28.803  -6.673 -16.833  0.00  0.00    -0.271 OA
HETATM    3  N           1     -26.940  -5.512 -17.244  0.00  0.00    -0.345 N 
HETATM    4  H           1     -26.499  -4.607 -17.351  0.00  0.00     0.163 HD
ENDROOT
BRANCH   1   5
HETATM    5  C           1     -29.094  -4.333 -16.809  0.00  0.00     0.280 C 
BRANCH   5   6
HETATM    6  C           1     -30.092  -4.233 -17.954  0.00  0.00     0.101 C 
BRANCH   6   7
HETATM    7  C           1     -31.477  -4.104 -17.399  0.00  0.00     0.028 A 
HETATM    8  C           1     -32.079  -5.029 -16.580  0.00  0.00     0.114 A 
HETATM    9  N           1     -33.319  -4.517 -16.318  0.00  0.00    -0.360 N 
HETATM   10  H           1     -34.061  -4.959 -15.719  0.00  0.00     0.166 HD
HETATM   11  C           1     -33.419  -3.325 -16.978  0.00  0.00     0.180 A 
HETATM   12  N           1     -32.319  -3.050 -17.641  0.00  0.00    -0.355 N 
ATOM     13  HN          1     -32.131  -2.227 -18.213  1.00  0.00     0.166 HD
ENDBRANCH   6   7
ENDBRANCH   5   6
BRANCH   5  14
HETATM   14  N           1     -28.183  -3.141 -16.835  0.00  0.00    -0.066 N 
HETATM   15  H           1     -27.286  -3.378 -16.352  0.00  0.00     0.275 HD
HETATM   16  H           1     -27.986  -2.875 -17.826  0.00  0.00     0.275 HD
HETATM   17  H           1     -28.642  -2.341 -16.344  0.00  0.00     0.275 HD
ENDBRANCH   5  14
ENDBRANCH   1   5
BRANCH   3  18
HETATM   18  C           1     -26.155  -6.723 -17.390  0.00  0.00     0.185 C 
BRANCH  18  19
HETATM   19  C           1     -25.361  -6.661 -18.688  0.00  0.00     0.036 C 
BRANCH  19  20
HETATM   20  C           1     -26.310  -6.804 -19.871  0.00  0.00     0.004 C 
BRANCH  20  21
HETATM   21  C           1     -25.661  -7.672 -20.941  0.00  0.00     0.027 C 
BRANCH  21  22
HETATM   22  C           1     -24.193  -7.889 -20.598  0.00  0.00     0.229 C 
BRANCH  22  23
HETATM   23  N           1     -23.554  -8.745 -21.652  0.00  0.00    -0.079 N 
HETATM   24  H           1     -24.191  -9.538 -21.892  0.00  0.00     0.274 HD
HETATM   25  H           1     -23.377  -8.170 -22.507  0.00  0.00     0.274 HD
HETATM   26  H           1     -22.649  -9.122 -21.292  0.00  0.00     0.274 HD
ENDBRANCH  22  23
ENDBRANCH  21  22
ENDBRANCH  20  21
ENDBRANCH  19  20
ENDBRANCH  18  19
BRANCH  18  27
HETATM   27  C           1     -25.205  -6.847 -16.225  0.00  0.00     0.196 C 
HETATM   28  O           1     -24.561  -7.905 -16.053  0.00  0.00    -0.646 OA
HETATM   29  O           1     -25.060  -5.891 -15.431  0.00  0.00    -0.646 OA
ENDBRANCH  18  27
ENDBRANCH   3  18
TORSDOF 11
ENDMDL
MODEL 5
REMARK VINA RESULT:      -5.5     12.140     14.698
REMARK  11 active torsions:
REMARK  status: ('A' for Active; 'I' for Inactive)
REMARK    1  A    between atoms: C_1  and  C_3 
REMARK    2  A    between atoms: C_1  and  C_18 
REMARK    3  A    between atoms: C_3  and  N_4 
REMARK    4  A    between atoms: C_9  and  C_10 
REMARK    5  A    between atoms: C_10  and  C_11 
REMARK    6  A    between atoms: C_11  and  C_12 
REMARK    7  A    between atoms: C_11  and  N_21 
REMARK       I    between atoms: C_12  and  N_17 
REMARK    8  A    between atoms: N_17  and  C_25 
REMARK    9  A    between atoms: C_18  and  C_22 
REMARK   10  A    between atoms: C_22  and  C_25 
REMARK   11  A    between atoms: C_25  and  C_26 
ROOT
HETATM    1  C           1     -20.324  -5.730  -5.868  0.00  0.00     0.249 C 
HETATM    2  O           1     -20.598  -5.339  -4.758  0.00  0.00    -0.271 OA
HETATM    3  N           1     -19.982  -7.042  -6.066  0.00  0.00    -0.345 N 
HETATM    4  H           1     -19.753  -7.370  -6.995  0.00  0.00     0.163 HD
ENDROOT
BRANCH   1   5
HETATM    5  C           1     -20.358  -4.775  -7.035  0.00  0.00     0.280 C 
BRANCH   5   6
HETATM    6  C           1     -21.007  -5.457  -8.232  0.00  0.00     0.101 C 
BRANCH   6   7
HETATM    7  C           1     -22.199  -4.666  -8.673  0.00  0.00     0.028 A 
HETATM    8  C           1     -23.225  -4.273  -7.847  0.00  0.00     0.114 A 
HETATM    9  N           1     -24.086  -3.585  -8.655  0.00  0.00    -0.360 N 
HETATM   10  H           1     -24.990  -3.136  -8.360  0.00  0.00     0.166 HD
HETATM   11  C           1     -23.560  -3.588  -9.914  0.00  0.00     0.180 A 
HETATM   12  N           1     -22.418  -4.235  -9.955  0.00  0.00    -0.355 N 
ATOM     13  HN          1     -21.820  -4.385 -10.769  1.00  0.00     0.166 HD
ENDBRANCH   6   7
ENDBRANCH   5   6
BRANCH   5  14
HETATM   14  N           1     -18.958  -4.369  -7.390  0.00  0.00    -0.066 N 
HETATM   15  H           1     -18.533  -3.848  -6.590  0.00  0.00     0.275 HD
HETATM   16  H           1     -18.389  -5.222  -7.592  0.00  0.00     0.275 HD
HETATM   17  H           1     -18.977  -3.755  -8.235  0.00  0.00     0.275 HD
ENDBRANCH   5  14
ENDBRANCH   1   5
BRANCH   3  18
HETATM   18  C           1     -19.949  -7.960  -4.944  0.00  0.00     0.185 C 
BRANCH  18  19
HETATM   19  C           1     -21.285  -8.685  -4.841  0.00  0.00     0.036 C 
BRANCH  19  20
HETATM   20  C           1     -21.682  -8.813  -3.377  0.00  0.00     0.004 C 
BRANCH  20  21
HETATM   21  C           1     -20.876  -7.826  -2.543  0.00  0.00     0.027 C 
BRANCH  21  22
HETATM   22  C           1     -21.809  -7.070  -1.607  0.00  0.00     0.229 C 
BRANCH  22  23
HETATM   23  N           1     -22.422  -5.912  -2.338  0.00  0.00    -0.079 N 
HETATM   24  H           1     -22.856  -6.251  -3.226  0.00  0.00     0.274 HD
HETATM   25  H           1     -23.154  -5.470  -1.738  0.00  0.00     0.274 HD
HETATM   26  H           1     -21.681  -5.209  -2.560  0.00  0.00     0.274 HD
ENDBRANCH  22  23
ENDBRANCH  21  22
ENDBRANCH  20  21
ENDBRANCH  19  20
ENDBRANCH  18  19
BRANCH  18  27
HETATM   27  C           1     -18.845  -8.966  -5.153  0.00  0.00     0.196 C 
HETATM   28  O           1     -18.332  -9.544  -4.170  0.00  0.00    -0.646 OA
HETATM   29  O           1     -18.443  -9.223  -6.309  0.00  0.00    -0.646 OA
ENDBRANCH  18  27
ENDBRANCH   3  18
TORSDOF 11
ENDMDL
MODEL 6
REMARK VINA RESULT:      -5.3     12.841     15.309
REMARK  11 active torsions:
REMARK  status: ('A' for Active; 'I' for Inactive)
REMARK    1  A    between atoms: C_1  and  C_3 
REMARK    2  A    between atoms: C_1  and  C_18 
REMARK    3  A    between atoms: C_3  and  N_4 
REMARK    4  A    between atoms: C_9  and  C_10 
REMARK    5  A    between atoms: C_10  and  C_11 
REMARK    6  A    between atoms: C_11  and  C_12 
REMARK    7  A    between atoms: C_11  and  N_21 
REMARK       I    between atoms: C_12  and  N_17 
REMARK    8  A    between atoms: N_17  and  C_25 
REMARK    9  A    between atoms: C_18  and  C_22 
REMARK   10  A    between atoms: C_22  and  C_25 
REMARK   11  A    between atoms: C_25  and  C_26 
ROOT
HETATM    1  C           1     -20.434  -6.957  -5.534  0.00  0.00     0.249 C 
HETATM    2  O           1     -19.583  -7.554  -6.150  0.00  0.00    -0.271 OA
HETATM    3  N           1     -20.939  -7.486  -4.375  0.00  0.00    -0.345 N 
HETATM    4  H           1     -21.651  -6.987  -3.859  0.00  0.00     0.163 HD
ENDROOT
BRANCH   1   5
HETATM    5  C           1     -20.942  -5.629  -6.039  0.00  0.00     0.280 C 
BRANCH   5   6
HETATM    6  C           1     -20.776  -5.564  -7.552  0.00  0.00     0.101 C 
BRANCH   6   7
HETATM    7  C           1     -21.927  -4.815  -8.148  0.00  0.00     0.028 A 
HETATM    8  C           1     -23.064  -4.456  -7.465  0.00  0.00     0.114 A 
HETATM    9  N           1     -23.836  -3.799  -8.382  0.00  0.00    -0.360 N 
HETATM   10  H           1     -24.785  -3.380  -8.210  0.00  0.00     0.166 HD
HETATM   11  C           1     -23.151  -3.786  -9.563  0.00  0.00     0.180 A 
HETATM   12  N           1     -21.992  -4.394  -9.451  0.00  0.00    -0.355 N 
ATOM     13  HN          1     -21.290  -4.525 -10.179  1.00  0.00     0.166 HD
ENDBRANCH   6   7
ENDBRANCH   5   6
BRANCH   5  14
HETATM   14  N           1     -20.157  -4.519  -5.404  0.00  0.00    -0.066 N 
HETATM   15  H           1     -20.514  -3.599  -5.748  0.00  0.00     0.275 HD
HETATM   16  H           1     -20.263  -4.568  -4.365  0.00  0.00     0.275 HD
HETATM   17  H           1     -19.148  -4.619  -5.656  0.00  0.00     0.275 HD
ENDBRANCH   5  14
ENDBRANCH   1   5
BRANCH   3  18
HETATM   18  C           1     -20.452  -8.763  -3.890  0.00  0.00     0.185 C 
BRANCH  18  19
HETATM   19  C           1     -20.364  -8.728  -2.369  0.00  0.00     0.036 C 
BRANCH  19  20
HETATM   20  C           1     -21.034  -7.463  -1.850  0.00  0.00     0.004 C 
BRANCH  20  21
HETATM   21  C           1     -21.821  -7.786  -0.587  0.00  0.00     0.027 C 
BRANCH  21  22
HETATM   22  C           1     -21.744  -9.281  -0.308  0.00  0.00     0.229 C 
BRANCH  22  23
HETATM   23  N           1     -23.100  -9.895  -0.494  0.00  0.00    -0.079 N 
HETATM   24  H           1     -23.813  -9.140  -0.609  0.00  0.00     0.274 HD
HETATM   25  H           1     -23.093 -10.502  -1.345  0.00  0.00     0.274 HD
HETATM   26  H           1     -23.338 -10.473   0.344  0.00  0.00     0.274 HD
ENDBRANCH  22  23
ENDBRANCH  21  22
ENDBRANCH  20  21
ENDBRANCH  19  20
ENDBRANCH  18  19
BRANCH  18  27
HETATM   27  C           1     -21.401  -9.856  -4.314  0.00  0.00     0.196 C 
HETATM   28  O           1     -22.327 -10.210  -3.553  0.00  0.00    -0.646 OA
HETATM   29  O           1     -21.262 -10.407  -5.428  0.00  0.00    -0.646 OA
ENDBRANCH  18  27
ENDBRANCH   3  18
TORSDOF 11
ENDMDL
MODEL 7
REMARK VINA RESULT:      -5.2     12.179     14.506
REMARK  11 active torsions:
REMARK  status: ('A' for Active; 'I' for Inactive)
REMARK    1  A    between atoms: C_1  and  C_3 
REMARK    2  A    between atoms: C_1  and  C_18 
REMARK    3  A    between atoms: C_3  and  N_4 
REMARK    4  A    between atoms: C_9  and  C_10 
REMARK    5  A    between atoms: C_10  and  C_11 
REMARK    6  A    between atoms: C_11  and  C_12 
REMARK    7  A    between atoms: C_11  and  N_21 
REMARK       I    between atoms: C_12  and  N_17 
REMARK    8  A    between atoms: N_17  and  C_25 
REMARK    9  A    between atoms: C_18  and  C_22 
REMARK   10  A    between atoms: C_22  and  C_25 
REMARK   11  A    between atoms: C_25  and  C_26 
ROOT
HETATM    1  C           1     -21.096  -6.488  -5.648  0.00  0.00     0.249 C 
HETATM    2  O           1     -21.301  -7.360  -6.459  0.00  0.00    -0.271 OA
HETATM    3  N           1     -20.987  -5.185  -6.057  0.00  0.00    -0.345 N 
HETATM    4  H           1     -20.816  -4.455  -5.378  0.00  0.00     0.163 HD
ENDROOT
BRANCH   1   5
HETATM    5  C           1     -20.960  -6.834  -4.185  0.00  0.00     0.280 C 
BRANCH   5   6
HETATM    6  C           1     -21.016  -8.345  -4.013  0.00  0.00     0.101 C 
BRANCH   6   7
HETATM    7  C           1     -19.632  -8.876  -3.805  0.00  0.00     0.028 A 
HETATM    8  C           1     -18.784  -9.264  -4.814  0.00  0.00     0.114 A 
HETATM    9  N           1     -17.644  -9.676  -4.181  0.00  0.00    -0.360 N 
HETATM   10  H           1     -16.774 -10.042  -4.643  0.00  0.00     0.166 HD
HETATM   11  C           1     -17.842  -9.525  -2.839  0.00  0.00     0.180 A 
HETATM   12  N           1     -19.037  -9.043  -2.581  0.00  0.00    -0.355 N 
ATOM     13  HN          1     -19.436  -8.836  -1.666  1.00  0.00     0.166 HD
ENDBRANCH   6   7
ENDBRANCH   5   6
BRANCH   5  14
HETATM   14  N           1     -22.083  -6.201  -3.416  0.00  0.00    -0.066 N 
HETATM   15  H           1     -22.833  -6.911  -3.249  0.00  0.00     0.275 HD
HETATM   16  H           1     -21.724  -5.851  -2.500  0.00  0.00     0.275 HD
HETATM   17  H           1     -22.474  -5.403  -3.966  0.00  0.00     0.275 HD
ENDBRANCH   5  14
ENDBRANCH   1   5
BRANCH   3  18
HETATM   18  C           1     -21.117  -4.854  -7.462  0.00  0.00     0.185 C 
BRANCH  18  19
HETATM   19  C           1     -22.106  -3.706  -7.624  0.00  0.00     0.036 C 
BRANCH  19  20
HETATM   20  C           1     -23.353  -4.206  -8.342  0.00  0.00     0.004 C 
BRANCH  20  21
HETATM   21  C           1     -23.087  -4.268  -9.840  0.00  0.00     0.027 C 
BRANCH  21  22
HETATM   22  C           1     -24.333  -3.827 -10.596  0.00  0.00     0.229 C 
BRANCH  22  23
HETATM   23  N           1     -25.445  -3.569  -9.622  0.00  0.00    -0.079 N 
HETATM   24  H           1     -25.058  -3.118  -8.762  0.00  0.00     0.274 HD
HETATM   25  H           1     -26.151  -2.935 -10.061  0.00  0.00     0.274 HD
HETATM   26  H           1     -25.900  -4.474  -9.366  0.00  0.00     0.274 HD
ENDBRANCH  22  23
ENDBRANCH  21  22
ENDBRANCH  20  21
ENDBRANCH  19  20
ENDBRANCH  18  19
BRANCH  18  27
HETATM   27  C           1     -19.773  -4.440  -8.006  0.00  0.00     0.196 C 
HETATM   28  O           1     -19.679  -3.995  -9.171  0.00  0.00    -0.646 OA
HETATM   29  O           1     -18.751  -4.541  -7.292  0.00  0.00    -0.646 OA
ENDBRANCH  18  27
ENDBRANCH   3  18
TORSDOF 11
ENDMDL
MODEL 8
REMARK VINA RESULT:      -5.2     11.905     14.402
REMARK  11 active torsions:
REMARK  status: ('A' for Active; 'I' for Inactive)
REMARK    1  A    between atoms: C_1  and  C_3 
REMARK    2  A    between atoms: C_1  and  C_18 
REMARK    3  A    between atoms: C_3  and  N_4 
REMARK    4  A    between atoms: C_9  and  C_10 
REMARK    5  A    between atoms: C_10  and  C_11 
REMARK    6  A    between atoms: C_11  and  C_12 
REMARK    7  A    between atoms: C_11  and  N_21 
REMARK       I    between atoms: C_12  and  N_17 
REMARK    8  A    between atoms: N_17  and  C_25 
REMARK    9  A    between atoms: C_18  and  C_22 
REMARK   10  A    between atoms: C_22  and  C_25 
REMARK   11  A    between atoms: C_25  and  C_26 
ROOT
HETATM    1  C           1     -20.948  -5.560  -4.956  0.00  0.00     0.249 C 
HETATM    2  O           1     -20.151  -4.653  -4.906  0.00  0.00    -0.271 OA
HETATM    3  N           1     -21.752  -5.704  -6.055  0.00  0.00    -0.345 N 
HETATM    4  H           1     -22.420  -6.463  -6.097  0.00  0.00     0.163 HD
ENDROOT
BRANCH   1   5
HETATM    5  C           1     -21.058  -6.532  -3.807  0.00  0.00     0.280 C 
BRANCH   5   6
HETATM    6  C           1     -21.300  -7.934  -4.349  0.00  0.00     0.101 C 
BRANCH   6   7
HETATM    7  C           1     -19.991  -8.647  -4.490  0.00  0.00     0.028 A 
HETATM    8  C           1     -19.218  -9.077  -3.438  0.00  0.00     0.114 A 
HETATM    9  N           1     -18.128  -9.666  -4.016  0.00  0.00    -0.360 N 
HETATM   10  H           1     -17.321 -10.110  -3.511  0.00  0.00     0.166 HD
HETATM   11  C           1     -18.279  -9.571  -5.370  0.00  0.00     0.180 A 
HETATM   12  N           1     -19.397  -8.959  -5.686  0.00  0.00    -0.355 N 
ATOM     13  HN          1     -19.749  -8.758  -6.622  1.00  0.00     0.166 HD
ENDBRANCH   6   7
ENDBRANCH   5   6
BRANCH   5  14
HETATM   14  N           1     -22.205  -6.134  -2.924  0.00  0.00    -0.066 N 
HETATM   15  H           1     -21.835  -5.768  -2.017  0.00  0.00     0.275 HD
HETATM   16  H           1     -22.767  -5.392  -3.397  0.00  0.00     0.275 HD
HETATM   17  H           1     -22.809  -6.967  -2.743  0.00  0.00     0.275 HD
ENDBRANCH   5  14
ENDBRANCH   1   5
BRANCH   3  18
HETATM   18  C           1     -21.647  -4.769  -7.158  0.00  0.00     0.185 C 
BRANCH  18  19
HETATM   19  C           1     -20.948  -5.445  -8.332  0.00  0.00     0.036 C 
BRANCH  19  20
HETATM   20  C           1     -20.006  -4.453  -9.002  0.00  0.00     0.004 C 
BRANCH  20  21
HETATM   21  C           1     -20.038  -4.662 -10.510  0.00  0.00     0.027 C 
BRANCH  21  22
HETATM   22  C           1     -20.739  -3.483 -11.172  0.00  0.00     0.229 C 
BRANCH  22  23
HETATM   23  N           1     -21.491  -3.960 -12.379  0.00  0.00    -0.079 N 
HETATM   24  H           1     -22.251  -3.281 -12.609  0.00  0.00     0.274 HD
HETATM   25  H           1     -20.835  -4.037 -13.189  0.00  0.00     0.274 HD
HETATM   26  H           1     -21.910  -4.897 -12.179  0.00  0.00     0.274 HD
ENDBRANCH  22  23
ENDBRANCH  21  22
ENDBRANCH  20  21
ENDBRANCH  19  20
ENDBRANCH  18  19
BRANCH  18  27
HETATM   27  C           1     -23.028  -4.333  -7.579  0.00  0.00     0.196 C 
HETATM   28  O           1     -23.986  -4.437  -6.783  0.00  0.00    -0.646 OA
HETATM   29  O           1     -23.215  -3.867  -8.725  0.00  0.00    -0.646 OA
ENDBRANCH  18  27
ENDBRANCH   3  18
TORSDOF 11
ENDMDL
MODEL 9
REMARK VINA RESULT:      -5.1     12.855     15.721
REMARK  11 active torsions:
REMARK  status: ('A' for Active; 'I' for Inactive)
REMARK    1  A    between atoms: C_1  and  C_3 
REMARK    2  A    between atoms: C_1  and  C_18 
REMARK    3  A    between atoms: C_3  and  N_4 
REMARK    4  A    between atoms: C_9  and  C_10 
REMARK    5  A    between atoms: C_10  and  C_11 
REMARK    6  A    between atoms: C_11  and  C_12 
REMARK    7  A    between atoms: C_11  and  N_21 
REMARK       I    between atoms: C_12  and  N_17 
REMARK    8  A    between atoms: N_17  and  C_25 
REMARK    9  A    between atoms: C_18  and  C_22 
REMARK   10  A    between atoms: C_22  and  C_25 
REMARK   11  A    between atoms: C_25  and  C_26 
ROOT
HETATM    1  C           1     -21.353  -7.394  -5.347  0.00  0.00     0.249 C 
HETATM    2  O           1     -20.627  -7.990  -6.107  0.00  0.00    -0.271 OA
HETATM    3  N           1     -21.760  -6.121  -5.645  0.00  0.00    -0.345 N 
HETATM    4  H           1     -22.368  -5.622  -5.009  0.00  0.00     0.163 HD
ENDROOT
BRANCH   1   5
HETATM    5  C           1     -21.812  -8.053  -4.069  0.00  0.00     0.280 C 
BRANCH   5   6
HETATM    6  C           1     -20.910  -7.618  -2.921  0.00  0.00     0.101 C 
BRANCH   6   7
HETATM    7  C           1     -21.606  -7.865  -1.619  0.00  0.00     0.028 A 
HETATM    8  C           1     -22.391  -6.945  -0.966  0.00  0.00     0.114 A 
HETATM    9  N           1     -22.818  -7.582   0.166  0.00  0.00    -0.360 N 
HETATM   10  H           1     -23.442  -7.179   0.908  0.00  0.00     0.166 HD
HETATM   11  C           1     -22.284  -8.839   0.155  0.00  0.00     0.180 A 
HETATM   12  N           1     -21.546  -9.038  -0.913  0.00  0.00    -0.355 N 
ATOM     13  HN          1     -21.036  -9.885  -1.164  1.00  0.00     0.166 HD
ENDBRANCH   6   7
ENDBRANCH   5   6
BRANCH   5  14
HETATM   14  N           1     -21.740  -9.544  -4.222  0.00  0.00    -0.066 N 
HETATM   15  H           1     -22.694  -9.953  -4.092  0.00  0.00     0.275 HD
HETATM   16  H           1     -21.387  -9.779  -5.177  0.00  0.00     0.275 HD
HETATM   17  H           1     -21.091  -9.936  -3.503  0.00  0.00     0.275 HD
ENDBRANCH   5  14
ENDBRANCH   1   5
BRANCH   3  18
HETATM   18  C           1     -21.319  -5.488  -6.873  0.00  0.00     0.185 C 
BRANCH  18  19
HETATM   19  C           1     -22.392  -4.524  -7.362  0.00  0.00     0.036 C 
BRANCH  19  20
HETATM   20  C           1     -22.676  -4.783  -8.835  0.00  0.00     0.004 C 
BRANCH  20  21
HETATM   21  C           1     -22.160  -3.615  -9.665  0.00  0.00     0.027 C 
BRANCH  21  22
HETATM   22  C           1     -21.440  -4.147 -10.898  0.00  0.00     0.229 C 
BRANCH  22  23
HETATM   23  N           1     -20.112  -4.715 -10.496  0.00  0.00    -0.079 N 
HETATM   24  H           1     -19.846  -4.350  -9.553  0.00  0.00     0.274 HD
HETATM   25  H           1     -20.176  -5.758 -10.460  0.00  0.00     0.274 HD
HETATM   26  H           1     -19.387  -4.434 -11.195  0.00  0.00     0.274 HD
ENDBRANCH  22  23
ENDBRANCH  21  22
ENDBRANCH  20  21
ENDBRANCH  19  20
ENDBRANCH  18  19
BRANCH  18  27
HETATM   27  C           1     -20.041  -4.729  -6.615  0.00  0.00     0.196 C 
HETATM   28  O           1     -19.296  -4.416  -7.568  0.00  0.00    -0.646 OA
HETATM   29  O           1     -19.727  -4.413  -5.446  0.00  0.00    -0.646 OA
ENDBRANCH  18  27
ENDBRANCH   3  18
TORSDOF 11
ENDMDL
