MODEL 1
REMARK VINA RESULT:      -6.0      0.000      0.000
REMARK  6 active torsions:
REMARK  status: ('A' for Active; 'I' for Inactive)
REMARK    1  A    between atoms: N_3  and  C_16 
REMARK       I    between atoms: N_3  and  C_4 
REMARK    2  A    between atoms: C_4  and  C_5 
REMARK    3  A    between atoms: C_5  and  N_7 
REMARK    4  A    between atoms: C_14  and  C_16 
REMARK    5  A    between atoms: C_16  and  C_18 
REMARK    6  A    between atoms: C_18  and  C_19 
ROOT
HETATM    1  C           1     -27.925  -6.147 -16.636  0.00  0.00     0.191 C 
ENDROOT
BRANCH   1   2
HETATM    2  N           1     -28.678  -5.063 -16.037  0.00  0.00    -0.344 N 
HETATM    3  C           1     -29.851  -4.646 -16.608  0.00  0.00     0.248 C 
HETATM    4  O           1     -30.897  -5.151 -16.278  0.00  0.00    -0.271 OA
HETATM    5  H           1     -28.337  -4.614 -15.196  0.00  0.00     0.163 HD
BRANCH   3   6
HETATM    6  C           1     -29.835  -3.555 -17.651  0.00  0.00     0.270 C 
HETATM    7  C           1     -28.941  -2.415 -17.180  0.00  0.00     0.050 C 
BRANCH   6   8
HETATM    8  N           1     -31.230  -3.042 -17.858  0.00  0.00    -0.067 N 
HETATM    9  H           1     -31.657  -2.809 -16.933  0.00  0.00     0.275 HD
HETATM   10  H           1     -31.200  -2.183 -18.453  0.00  0.00     0.275 HD
HETATM   11  H           1     -31.804  -3.776 -18.331  0.00  0.00     0.275 HD
ENDBRANCH   6   8
ENDBRANCH   3   6
ENDBRANCH   1   2
BRANCH   1  12
HETATM   12  C           1     -28.415  -7.464 -16.086  0.00  0.00     0.197 C 
HETATM   13  O           1     -29.164  -8.189 -16.777  0.00  0.00    -0.646 OA
HETATM   14  O           1     -28.074  -7.830 -14.941  0.00  0.00    -0.646 OA
ENDBRANCH   1  12
BRANCH   1  15
HETATM   15  C           1     -26.447  -5.979 -16.309  0.00  0.00     0.094 C 
BRANCH  15  16
HETATM   16  C           1     -25.621  -6.561 -17.415  0.00  0.00     0.028 A 
HETATM   17  N           1     -25.972  -6.547 -18.739  0.00  0.00    -0.354 N 
HETATM   18  C           1     -24.988  -7.150 -19.365  0.00  0.00     0.180 A 
ATOM     19  HN          1     -26.818  -6.153 -19.151  1.00  0.00     0.166 HD
HETATM   20  N           1     -24.013  -7.552 -18.495  0.00  0.00    -0.360 N 
HETATM   21  H           1     -23.126  -8.054 -18.746  0.00  0.00     0.166 HD
HETATM   22  C           1     -24.406  -7.180 -17.238  0.00  0.00     0.114 A 
ENDBRANCH  15  16
ENDBRANCH   1  15
TORSDOF 6
ENDMDL
MODEL 2
REMARK VINA RESULT:      -6.0      9.299     10.562
REMARK  6 active torsions:
REMARK  status: ('A' for Active; 'I' for Inactive)
REMARK    1  A    between atoms: N_3  and  C_16 
REMARK       I    between atoms: N_3  and  C_4 
REMARK    2  A    between atoms: C_4  and  C_5 
REMARK    3  A    between atoms: C_5  and  N_7 
REMARK    4  A    between atoms: C_14  and  C_16 
REMARK    5  A    between atoms: C_16  and  C_18 
REMARK    6  A    between atoms: C_18  and  C_19 
ROOT
HETATM    1  C           1     -36.213  -0.986 -11.882  0.00  0.00     0.191 C 
ENDROOT
BRANCH   1   2
HETATM    2  N           1     -36.706   0.001 -12.823  0.00  0.00    -0.344 N 
HETATM    3  C           1     -36.974  -0.360 -14.116  0.00  0.00     0.248 C 
HETATM    4  O           1     -38.074  -0.753 -14.419  0.00  0.00    -0.271 OA
HETATM    5  H           1     -36.851   0.957 -12.524  0.00  0.00     0.163 HD
BRANCH   3   6
HETATM    6  C           1     -35.892  -0.265 -15.165  0.00  0.00     0.270 C 
HETATM    7  C           1     -35.156   1.061 -15.018  0.00  0.00     0.050 C 
BRANCH   6   8
HETATM    8  N           1     -36.510  -0.344 -16.530  0.00  0.00    -0.067 N 
HETATM    9  H           1     -37.288  -1.041 -16.521  0.00  0.00     0.275 HD
HETATM   10  H           1     -36.888   0.594 -16.795  0.00  0.00     0.275 HD
HETATM   11  H           1     -35.787  -0.638 -17.223  0.00  0.00     0.275 HD
ENDBRANCH   6   8
ENDBRANCH   3   6
ENDBRANCH   1   2
BRANCH   1  12
HETATM   12  C           1     -36.629  -0.599 -10.484  0.00  0.00     0.197 C 
HETATM   13  O           1     -35.809  -0.684  -9.543  0.00  0.00    -0.646 OA
HETATM   14  O           1     -37.791  -0.194 -10.267  0.00  0.00    -0.646 OA
ENDBRANCH   1  12
BRANCH   1  15
HETATM   15  C           1     -34.693  -1.048 -11.961  0.00  0.00     0.094 C 
BRANCH  15  16
HETATM   16  C           1     -34.243  -2.469 -11.813  0.00  0.00     0.028 A 
HETATM   17  N           1     -33.807  -3.029 -10.641  0.00  0.00    -0.354 N 
HETATM   18  C           1     -33.512  -4.273 -10.939  0.00  0.00     0.180 A 
ATOM     19  HN          1     -33.727  -2.575  -9.730  1.00  0.00     0.166 HD
HETATM   20  N           1     -33.741  -4.538 -12.260  0.00  0.00    -0.360 N 
HETATM   21  H           1     -33.586  -5.456 -12.745  0.00  0.00     0.166 HD
HETATM   22  C           1     -34.212  -3.388 -12.834  0.00  0.00     0.114 A 
ENDBRANCH  15  16
ENDBRANCH   1  15
TORSDOF 6
ENDMDL
MODEL 3
REMARK VINA RESULT:      -5.9      1.662      2.073
REMARK  6 active torsions:
REMARK  status: ('A' for Active; 'I' for Inactive)
REMARK    1  A    between atoms: N_3  and  C_16 
REMARK       I    between atoms: N_3  and  C_4 
REMARK    2  A    between atoms: C_4  and  C_5 
REMARK    3  A    between atoms: C_5  and  N_7 
REMARK    4  A    between atoms: C_14  and  C_16 
REMARK    5  A    between atoms: C_16  and  C_18 
REMARK    6  A    between atoms: C_18  and  C_19 
ROOT
HETATM    1  C           1     -28.231  -6.282 -18.308  0.00  0.00     0.191 C 
ENDROOT
BRANCH   1   2
HETATM    2  N           1     -29.046  -5.153 -18.713  0.00  0.00    -0.344 N 
HETATM    3  C           1     -29.677  -4.390 -17.768  0.00  0.00     0.248 C 
HETATM    4  O           1     -29.119  -3.430 -17.295  0.00  0.00    -0.271 OA
HETATM    5  H           1     -29.148  -4.929 -19.695  0.00  0.00     0.163 HD
BRANCH   3   6
HETATM    6  C           1     -31.072  -4.751 -17.317  0.00  0.00     0.270 C 
HETATM    7  C           1     -31.972  -3.526 -17.423  0.00  0.00     0.050 C 
BRANCH   6   8
HETATM    8  N           1     -31.031  -5.219 -15.892  0.00  0.00    -0.067 N 
HETATM    9  H           1     -30.575  -6.157 -15.846  0.00  0.00     0.275 HD
HETATM   10  H           1     -30.485  -4.537 -15.318  0.00  0.00     0.275 HD
HETATM   11  H           1     -32.005  -5.287 -15.520  0.00  0.00     0.275 HD
ENDBRANCH   6   8
ENDBRANCH   3   6
ENDBRANCH   1   2
BRANCH   1  12
HETATM   12  C           1     -29.123  -7.398 -17.823  0.00  0.00     0.197 C 
HETATM   13  O           1     -29.166  -7.678 -16.605  0.00  0.00    -0.646 OA
HETATM   14  O           1     -29.818  -8.042 -18.637  0.00  0.00    -0.646 OA
ENDBRANCH   1  12
BRANCH   1  15
HETATM   15  C           1     -27.295  -5.855 -17.184  0.00  0.00     0.094 C 
BRANCH  15  16
HETATM   16  C           1     -25.949  -6.479 -17.391  0.00  0.00     0.028 A 
HETATM   17  N           1     -25.375  -6.705 -18.614  0.00  0.00    -0.354 N 
HETATM   18  C           1     -24.212  -7.258 -18.355  0.00  0.00     0.180 A 
ATOM     19  HN          1     -25.767  -6.490 -19.531  1.00  0.00     0.166 HD
HETATM   20  N           1     -24.014  -7.398 -17.009  0.00  0.00    -0.360 N 
HETATM   21  H           1     -23.167  -7.810 -16.547  0.00  0.00     0.166 HD
HETATM   22  C           1     -25.121  -6.900 -16.378  0.00  0.00     0.114 A 
ENDBRANCH  15  16
ENDBRANCH   1  15
TORSDOF 6
ENDMDL
MODEL 4
REMARK VINA RESULT:      -5.9      9.521     12.086
REMARK  6 active torsions:
REMARK  status: ('A' for Active; 'I' for Inactive)
REMARK    1  A    between atoms: N_3  and  C_16 
REMARK       I    between atoms: N_3  and  C_4 
REMARK    2  A    between atoms: C_4  and  C_5 
REMARK    3  A    between atoms: C_5  and  N_7 
REMARK    4  A    between atoms: C_14  and  C_16 
REMARK    5  A    between atoms: C_16  and  C_18 
REMARK    6  A    between atoms: C_18  and  C_19 
ROOT
HETATM    1  C           1     -36.301  -0.157 -10.794  0.00  0.00     0.191 C 
ENDROOT
BRANCH   1   2
HETATM    2  N           1     -35.664  -1.277 -10.128  0.00  0.00    -0.344 N 
HETATM    3  C           1     -34.650  -1.956 -10.749  0.00  0.00     0.248 C 
HETATM    4  O           1     -33.505  -1.606 -10.597  0.00  0.00    -0.271 OA
HETATM    5  H           1     -35.969  -1.556  -9.204  0.00  0.00     0.163 HD
BRANCH   3   6
HETATM    6  C           1     -34.965  -3.145 -11.625  0.00  0.00     0.270 C 
HETATM    7  C           1     -34.389  -4.407 -10.995  0.00  0.00     0.050 C 
BRANCH   6   8
HETATM    8  N           1     -34.357  -2.942 -12.981  0.00  0.00    -0.067 N 
HETATM    9  H           1     -35.084  -2.579 -13.638  0.00  0.00     0.275 HD
HETATM   10  H           1     -33.576  -2.251 -12.911  0.00  0.00     0.275 HD
HETATM   11  H           1     -33.988  -3.852 -13.337  0.00  0.00     0.275 HD
ENDBRANCH   6   8
ENDBRANCH   3   6
ENDBRANCH   1   2
BRANCH   1  12
HETATM   12  C           1     -36.937   0.744  -9.764  0.00  0.00     0.197 C 
HETATM   13  O           1     -38.075   1.221  -9.970  0.00  0.00    -0.646 OA
HETATM   14  O           1     -36.328   1.014  -8.707  0.00  0.00    -0.646 OA
ENDBRANCH   1  12
BRANCH   1  15
HETATM   15  C           1     -37.371  -0.676 -11.746  0.00  0.00     0.094 C 
BRANCH  15  16
HETATM   16  C           1     -37.102  -0.162 -13.127  0.00  0.00     0.028 A 
HETATM   17  N           1     -35.864   0.179 -13.604  0.00  0.00    -0.354 N 
HETATM   18  C           1     -36.065   0.575 -14.840  0.00  0.00     0.180 A 
ATOM     19  HN          1     -34.975   0.135 -13.105  1.00  0.00     0.166 HD
HETATM   20  N           1     -37.387   0.503 -15.179  0.00  0.00    -0.360 N 
HETATM   21  H           1     -37.804   0.761 -16.107  0.00  0.00     0.166 HD
HETATM   22  C           1     -38.065   0.030 -14.089  0.00  0.00     0.114 A 
ENDBRANCH  15  16
ENDBRANCH   1  15
TORSDOF 6
ENDMDL
MODEL 5
REMARK VINA RESULT:      -5.6     11.243     12.851
REMARK  6 active torsions:
REMARK  status: ('A' for Active; 'I' for Inactive)
REMARK    1  A    between atoms: N_3  and  C_16 
REMARK       I    between atoms: N_3  and  C_4 
REMARK    2  A    between atoms: C_4  and  C_5 
REMARK    3  A    between atoms: C_5  and  N_7 
REMARK    4  A    between atoms: C_14  and  C_16 
REMARK    5  A    between atoms: C_16  and  C_18 
REMARK    6  A    between atoms: C_18  and  C_19 
ROOT
HETATM    1  C           1     -21.280  -5.945  -7.184  0.00  0.00     0.191 C 
ENDROOT
BRANCH   1   2
HETATM    2  N           1     -21.858  -6.873  -6.232  0.00  0.00    -0.344 N 
HETATM    3  C           1     -22.349  -6.414  -5.039  0.00  0.00     0.248 C 
HETATM    4  O           1     -23.504  -6.075  -4.951  0.00  0.00    -0.271 OA
HETATM    5  H           1     -21.899  -7.861  -6.450  0.00  0.00     0.163 HD
BRANCH   3   6
HETATM    6  C           1     -21.444  -6.331  -3.833  0.00  0.00     0.270 C 
HETATM    7  C           1     -20.742  -7.669  -3.633  0.00  0.00     0.050 C 
BRANCH   6   8
HETATM    8  N           1     -22.260  -6.009  -2.617  0.00  0.00    -0.067 N 
HETATM    9  H           1     -23.270  -5.955  -2.879  0.00  0.00     0.275 HD
HETATM   10  H           1     -22.127  -6.758  -1.900  0.00  0.00     0.275 HD
HETATM   11  H           1     -21.953  -5.091  -2.225  0.00  0.00     0.275 HD
ENDBRANCH   6   8
ENDBRANCH   3   6
ENDBRANCH   1   2
BRANCH   1  12
HETATM   12  C           1     -19.785  -5.888  -6.986  0.00  0.00     0.197 C 
HETATM   13  O           1     -19.139  -6.943  -6.801  0.00  0.00    -0.646 OA
HETATM   14  O           1     -19.193  -4.788  -7.006  0.00  0.00    -0.646 OA
ENDBRANCH   1  12
BRANCH   1  15
HETATM   15  C           1     -21.874  -4.559  -6.966  0.00  0.00     0.094 C 
BRANCH  15  16
HETATM   16  C           1     -22.623  -4.138  -8.193  0.00  0.00     0.028 A 
HETATM   17  N           1     -23.978  -3.943  -8.248  0.00  0.00    -0.354 N 
HETATM   18  C           1     -24.227  -3.585  -9.487  0.00  0.00     0.180 A 
ATOM     19  HN          1     -24.651  -4.053  -7.489  1.00  0.00     0.166 HD
HETATM   20  N           1     -23.083  -3.542 -10.234  0.00  0.00    -0.360 N 
HETATM   21  H           1     -23.014  -3.284 -11.249  0.00  0.00     0.166 HD
HETATM   22  C           1     -22.045  -3.894  -9.415  0.00  0.00     0.114 A 
ENDBRANCH  15  16
ENDBRANCH   1  15
TORSDOF 6
ENDMDL
MODEL 6
REMARK VINA RESULT:      -5.6      9.705     11.460
REMARK  6 active torsions:
REMARK  status: ('A' for Active; 'I' for Inactive)
REMARK    1  A    between atoms: N_3  and  C_16 
REMARK       I    between atoms: N_3  and  C_4 
REMARK    2  A    between atoms: C_4  and  C_5 
REMARK    3  A    between atoms: C_5  and  N_7 
REMARK    4  A    between atoms: C_14  and  C_16 
REMARK    5  A    between atoms: C_16  and  C_18 
REMARK    6  A    between atoms: C_18  and  C_19 
ROOT
HETATM    1  C           1     -35.242  -1.835 -11.957  0.00  0.00     0.191 C 
ENDROOT
BRANCH   1   2
HETATM    2  N           1     -36.232  -2.068 -10.924  0.00  0.00    -0.344 N 
HETATM    3  C           1     -37.018  -1.037 -10.483  0.00  0.00     0.248 C 
HETATM    4  O           1     -38.074  -0.809 -11.021  0.00  0.00    -0.271 OA
HETATM    5  H           1     -36.343  -2.993 -10.528  0.00  0.00     0.163 HD
BRANCH   3   6
HETATM    6  C           1     -36.562  -0.183  -9.324  0.00  0.00     0.270 C 
HETATM    7  C           1     -37.522  -0.360  -8.155  0.00  0.00     0.050 C 
BRANCH   6   8
HETATM    8  N           1     -36.542   1.257  -9.742  0.00  0.00    -0.067 N 
HETATM    9  H           1     -37.179   1.393 -10.559  0.00  0.00     0.275 HD
HETATM   10  H           1     -36.865   1.854  -8.947  0.00  0.00     0.275 HD
HETATM   11  H           1     -35.570   1.529 -10.010  0.00  0.00     0.275 HD
ENDBRANCH   6   8
ENDBRANCH   3   6
ENDBRANCH   1   2
BRANCH   1  12
HETATM   12  C           1     -33.939  -2.486 -11.560  0.00  0.00     0.197 C 
HETATM   13  O           1     -33.216  -1.955 -10.689  0.00  0.00    -0.646 OA
HETATM   14  O           1     -33.583  -3.554 -12.102  0.00  0.00    -0.646 OA
ENDBRANCH   1  12
BRANCH   1  15
HETATM   15  C           1     -35.029  -0.337 -12.127  0.00  0.00     0.094 C 
BRANCH  15  16
HETATM   16  C           1     -35.610   0.104 -13.436  0.00  0.00     0.028 A 
HETATM   17  N           1     -36.787  -0.360 -13.962  0.00  0.00    -0.354 N 
HETATM   18  C           1     -36.930   0.273 -15.103  0.00  0.00     0.180 A 
ATOM     19  HN          1     -37.417  -1.050 -13.553  1.00  0.00     0.166 HD
HETATM   20  N           1     -35.890   1.128 -15.335  0.00  0.00    -0.360 N 
HETATM   21  H           1     -35.771   1.747 -16.174  0.00  0.00     0.166 HD
HETATM   22  C           1     -35.034   1.031 -14.272  0.00  0.00     0.114 A 
ENDBRANCH  15  16
ENDBRANCH   1  15
TORSDOF 6
ENDMDL
MODEL 7
REMARK VINA RESULT:      -5.5      8.685     10.339
REMARK  6 active torsions:
REMARK  status: ('A' for Active; 'I' for Inactive)
REMARK    1  A    between atoms: N_3  and  C_16 
REMARK       I    between atoms: N_3  and  C_4 
REMARK    2  A    between atoms: C_4  and  C_5 
REMARK    3  A    between atoms: C_5  and  N_7 
REMARK    4  A    between atoms: C_14  and  C_16 
REMARK    5  A    between atoms: C_16  and  C_18 
REMARK    6  A    between atoms: C_18  and  C_19 
ROOT
HETATM    1  C           1     -34.706  -3.753 -11.414  0.00  0.00     0.191 C 
ENDROOT
BRANCH   1   2
HETATM    2  N           1     -34.055  -4.599 -10.432  0.00  0.00    -0.344 N 
HETATM    3  C           1     -33.755  -5.898 -10.740  0.00  0.00     0.248 C 
HETATM    4  O           1     -32.688  -6.171 -11.236  0.00  0.00    -0.271 OA
HETATM    5  H           1     -33.823  -4.228  -9.519  0.00  0.00     0.163 HD
BRANCH   3   6
HETATM    6  C           1     -34.758  -6.991 -10.459  0.00  0.00     0.270 C 
HETATM    7  C           1     -34.068  -8.139  -9.733  0.00  0.00     0.050 C 
BRANCH   6   8
HETATM    8  N           1     -35.328  -7.491 -11.754  0.00  0.00    -0.067 N 
HETATM    9  H           1     -35.951  -8.308 -11.569  0.00  0.00     0.275 HD
HETATM   10  H           1     -35.880  -6.728 -12.208  0.00  0.00     0.275 HD
HETATM   11  H           1     -34.550  -7.782 -12.387  0.00  0.00     0.275 HD
ENDBRANCH   6   8
ENDBRANCH   3   6
ENDBRANCH   1   2
BRANCH   1  12
HETATM   12  C           1     -34.367  -4.240 -12.802  0.00  0.00     0.197 C 
HETATM   13  O           1     -35.127  -5.044 -13.384  0.00  0.00    -0.646 OA
HETATM   14  O           1     -33.327  -3.841 -13.368  0.00  0.00    -0.646 OA
ENDBRANCH   1  12
BRANCH   1  15
HETATM   15  C           1     -34.222  -2.318 -11.247  0.00  0.00     0.094 C 
BRANCH  15  16
HETATM   16  C           1     -35.119  -1.396 -12.014  0.00  0.00     0.028 A 
HETATM   17  N           1     -34.910  -1.005 -13.310  0.00  0.00    -0.354 N 
HETATM   18  C           1     -35.913  -0.208 -13.599  0.00  0.00     0.180 A 
ATOM     19  HN          1     -34.139  -1.276 -13.921  1.00  0.00     0.166 HD
HETATM   20  N           1     -36.762  -0.070 -12.537  0.00  0.00    -0.360 N 
HETATM   21  H           1     -37.636   0.511 -12.513  0.00  0.00     0.166 HD
HETATM   22  C           1     -36.265  -0.827 -11.512  0.00  0.00     0.114 A 
ENDBRANCH  15  16
ENDBRANCH   1  15
TORSDOF 6
ENDMDL
MODEL 8
REMARK VINA RESULT:      -5.4      2.147      2.637
REMARK  6 active torsions:
REMARK  status: ('A' for Active; 'I' for Inactive)
REMARK    1  A    between atoms: N_3  and  C_16 
REMARK       I    between atoms: N_3  and  C_4 
REMARK    2  A    between atoms: C_4  and  C_5 
REMARK    3  A    between atoms: C_5  and  N_7 
REMARK    4  A    between atoms: C_14  and  C_16 
REMARK    5  A    between atoms: C_16  and  C_18 
REMARK    6  A    between atoms: C_18  and  C_19 
ROOT
HETATM    1  C           1     -27.450  -6.615 -17.488  0.00  0.00     0.191 C 
ENDROOT
BRANCH   1   2
HETATM    2  N           1     -28.766  -6.832 -16.919  0.00  0.00    -0.344 N 
HETATM    3  C           1     -29.864  -6.252 -17.494  0.00  0.00     0.248 C 
HETATM    4  O           1     -30.474  -6.835 -18.357  0.00  0.00    -0.271 OA
HETATM    5  H           1     -28.872  -7.413 -16.097  0.00  0.00     0.163 HD
BRANCH   3   6
HETATM    6  C           1     -30.313  -4.881 -17.047  0.00  0.00     0.270 C 
HETATM    7  C           1     -31.825  -4.878 -16.859  0.00  0.00     0.050 C 
BRANCH   6   8
HETATM    8  N           1     -29.938  -3.869 -18.088  0.00  0.00    -0.067 N 
HETATM    9  H           1     -30.295  -4.177 -19.020  0.00  0.00     0.275 HD
HETATM   10  H           1     -30.360  -2.944 -17.843  0.00  0.00     0.275 HD
HETATM   11  H           1     -28.898  -3.778 -18.126  0.00  0.00     0.275 HD
ENDBRANCH   6   8
ENDBRANCH   3   6
ENDBRANCH   1   2
BRANCH   1  12
HETATM   12  C           1     -26.717  -5.573 -16.678  0.00  0.00     0.197 C 
HETATM   13  O           1     -27.149  -4.401 -16.634  0.00  0.00    -0.646 OA
HETATM   14  O           1     -25.680  -5.882 -16.053  0.00  0.00    -0.646 OA
ENDBRANCH   1  12
BRANCH   1  15
HETATM   15  C           1     -27.592  -6.133 -18.926  0.00  0.00     0.094 C 
BRANCH  15  16
HETATM   16  C           1     -26.627  -6.875 -19.800  0.00  0.00     0.028 A 
HETATM   17  N           1     -26.980  -7.846 -20.699  0.00  0.00    -0.354 N 
HETATM   18  C           1     -25.853  -8.234 -21.251  0.00  0.00     0.180 A 
ATOM     19  HN          1     -27.918  -8.195 -20.898  1.00  0.00     0.166 HD
HETATM   20  N           1     -24.786  -7.549 -20.742  0.00  0.00    -0.360 N 
HETATM   21  H           1     -23.781  -7.673 -21.017  0.00  0.00     0.166 HD
HETATM   22  C           1     -25.268  -6.672 -19.809  0.00  0.00     0.114 A 
ENDBRANCH  15  16
ENDBRANCH   1  15
TORSDOF 6
ENDMDL
MODEL 9
REMARK VINA RESULT:      -5.1     10.851     12.615
REMARK  6 active torsions:
REMARK  status: ('A' for Active; 'I' for Inactive)
REMARK    1  A    between atoms: N_3  and  C_16 
REMARK       I    between atoms: N_3  and  C_4 
REMARK    2  A    between atoms: C_4  and  C_5 
REMARK    3  A    between atoms: C_5  and  N_7 
REMARK    4  A    between atoms: C_14  and  C_16 
REMARK    5  A    between atoms: C_16  and  C_18 
REMARK    6  A    between atoms: C_18  and  C_19 
ROOT
HETATM    1  C           1     -20.931  -5.068  -7.517  0.00  0.00     0.191 C 
ENDROOT
BRANCH   1   2
HETATM    2  N           1     -20.463  -5.483  -6.209  0.00  0.00    -0.344 N 
HETATM    3  C           1     -20.532  -6.800  -5.842  0.00  0.00     0.248 C 
HETATM    4  O           1     -19.606  -7.540  -6.072  0.00  0.00    -0.271 OA
HETATM    5  H           1     -20.086  -4.797  -5.566  0.00  0.00     0.163 HD
BRANCH   3   6
HETATM    6  C           1     -21.766  -7.327  -5.150  0.00  0.00     0.270 C 
HETATM    7  C           1     -22.037  -6.502  -3.899  0.00  0.00     0.050 C 
BRANCH   6   8
HETATM    8  N           1     -21.549  -8.761  -4.766  0.00  0.00    -0.067 N 
HETATM    9  H           1     -21.527  -9.353  -5.625  0.00  0.00     0.275 HD
HETATM   10  H           1     -20.639  -8.850  -4.259  0.00  0.00     0.275 HD
HETATM   11  H           1     -22.327  -9.076  -4.144  0.00  0.00     0.275 HD
ENDBRANCH   6   8
ENDBRANCH   3   6
ENDBRANCH   1   2
BRANCH   1  12
HETATM   12  C           1     -19.746  -4.741  -8.394  0.00  0.00     0.197 C 
HETATM   13  O           1     -18.761  -4.141  -7.912  0.00  0.00    -0.646 OA
HETATM   14  O           1     -19.751  -5.069  -9.599  0.00  0.00    -0.646 OA
ENDBRANCH   1  12
BRANCH   1  15
HETATM   15  C           1     -21.812  -3.834  -7.373  0.00  0.00     0.094 C 
BRANCH  15  16
HETATM   16  C           1     -22.827  -3.814  -8.475  0.00  0.00     0.028 A 
HETATM   17  N           1     -24.167  -4.037  -8.303  0.00  0.00    -0.354 N 
HETATM   18  C           1     -24.694  -3.929  -9.502  0.00  0.00     0.180 A 
ATOM     19  HN          1     -24.654  -4.244  -7.430  1.00  0.00     0.166 HD
HETATM   20  N           1     -23.743  -3.644 -10.441  0.00  0.00    -0.360 N 
HETATM   21  H           1     -23.907  -3.509 -11.469  0.00  0.00     0.166 HD
HETATM   22  C           1     -22.539  -3.567  -9.796  0.00  0.00     0.114 A 
ENDBRANCH  15  16
ENDBRANCH   1  15
TORSDOF 6
ENDMDL
