MODEL 1
REMARK VINA RESULT:      -6.3      0.000      0.000
REMARK  7 active torsions:
REMARK  status: ('A' for Active; 'I' for Inactive)
REMARK    1  A    between atoms: C_3  and  C_24 
REMARK    2  A    between atoms: C_8  and  C_9 
REMARK    3  A    between atoms: C_8  and  C_22 
REMARK    4  A    between atoms: C_9  and  C_18 
REMARK    5  A    between atoms: C_12  and  C_22 
REMARK    6  A    between atoms: N_17  and  C_18 
REMARK    7  A    between atoms: C_22  and  N_23 
REMARK       I    between atoms: N_23  and  C_24 
ROOT
HETATM    1  O           1     -36.291  -2.564 -11.204  0.00  0.00    -0.271 OA
HETATM    2  H           1     -33.614  -1.435 -12.386  0.00  0.00     0.163 HD
HETATM    3  N           1     -34.273  -2.128 -12.055  0.00  0.00    -0.345 N 
HETATM    4  C           1     -35.504  -1.738 -11.600  0.00  0.00     0.249 C 
ENDROOT
BRANCH   3   5
HETATM    5  C           1     -33.914  -3.532 -12.059  0.00  0.00     0.185 C 
BRANCH   5   6
HETATM    6  C           1     -34.487  -4.206 -10.820  0.00  0.00     0.038 C 
BRANCH   6   7
HETATM    7  C           1     -33.762  -5.524 -10.575  0.00  0.00     0.030 C 
BRANCH   7   8
HETATM    8  C           1     -34.754  -6.565 -10.076  0.00  0.00     0.230 C 
BRANCH   8   9
HETATM    9  N           1     -34.837  -7.691 -11.064  0.00  0.00    -0.079 N 
HETATM   10  H           1     -34.070  -7.594 -11.767  0.00  0.00     0.274 HD
HETATM   11  H           1     -35.762  -7.661 -11.549  0.00  0.00     0.274 HD
HETATM   12  H           1     -34.736  -8.603 -10.563  0.00  0.00     0.274 HD
ENDBRANCH   8   9
ENDBRANCH   7   8
ENDBRANCH   6   7
ENDBRANCH   5   6
BRANCH   5  13
HETATM   13  C           1     -34.474  -4.191 -13.295  0.00  0.00     0.196 C 
HETATM   14  O           1     -34.278  -3.680 -14.420  0.00  0.00    -0.646 OA
HETATM   15  O           1     -35.134  -5.248 -13.196  0.00  0.00    -0.646 OA
ENDBRANCH   5  13
ENDBRANCH   3   5
BRANCH   4  16
HETATM   16  C           1     -35.878  -0.276 -11.594  0.00  0.00     0.274 C 
HETATM   17  C           1     -37.222  -0.092 -12.286  0.00  0.00     0.042 C 
HETATM   18  C           1     -37.125  -0.585 -13.724  0.00  0.00     0.003 C 
HETATM   19 Se           1     -35.763   0.436 -14.672  0.00  0.00     0.000 Se
HETATM   20  C           1     -35.999  -0.506 -16.362  0.00  0.00     0.000 C 
HETATM   21  H           1     -34.763   0.171 -13.310  0.00  0.00     0.275 HD
HETATM   22  N           1     -34.829   0.511 -12.324  0.00  0.00    -0.067 N 
HETATM   23  H           1     -33.907   0.384 -11.849  0.00  0.00     0.275 HD
HETATM   24  H           1     -35.087   1.523 -12.321  0.00  0.00     0.275 HD
ENDBRANCH   4  16
TORSDOF 7
ENDMDL
MODEL 2
REMARK VINA RESULT:      -6.2      2.821      6.009
REMARK  7 active torsions:
REMARK  status: ('A' for Active; 'I' for Inactive)
REMARK    1  A    between atoms: C_3  and  C_24 
REMARK    2  A    between atoms: C_8  and  C_9 
REMARK    3  A    between atoms: C_8  and  C_22 
REMARK    4  A    between atoms: C_9  and  C_18 
REMARK    5  A    between atoms: C_12  and  C_22 
REMARK    6  A    between atoms: N_17  and  C_18 
REMARK    7  A    between atoms: C_22  and  N_23 
REMARK       I    between atoms: N_23  and  C_24 
ROOT
HETATM    1  O           1     -33.421  -2.620 -10.972  0.00  0.00    -0.271 OA
HETATM    2  H           1     -35.048  -2.068 -13.597  0.00  0.00     0.163 HD
HETATM    3  N           1     -34.721  -1.926 -12.650  0.00  0.00    -0.345 N 
HETATM    4  C           1     -33.810  -2.789 -12.104  0.00  0.00     0.249 C 
ENDROOT
BRANCH   3   5
HETATM    5  C           1     -35.220  -0.810 -11.871  0.00  0.00     0.185 C 
BRANCH   5   6
HETATM    6  C           1     -35.294   0.431 -12.751  0.00  0.00     0.038 C 
BRANCH   6   7
HETATM    7  C           1     -35.167   0.025 -14.214  0.00  0.00     0.030 C 
BRANCH   7   8
HETATM    8  C           1     -36.465   0.343 -14.944  0.00  0.00     0.230 C 
BRANCH   8   9
HETATM    9  N           1     -36.254   1.521 -15.849  0.00  0.00    -0.079 N 
HETATM   10  H           1     -35.318   1.943 -15.658  0.00  0.00     0.274 HD
HETATM   11  H           1     -37.001   2.231 -15.675  0.00  0.00     0.274 HD
HETATM   12  H           1     -36.297   1.208 -16.845  0.00  0.00     0.274 HD
ENDBRANCH   8   9
ENDBRANCH   7   8
ENDBRANCH   6   7
ENDBRANCH   5   6
BRANCH   5  13
HETATM   13  C           1     -36.596  -1.138 -11.346  0.00  0.00     0.196 C 
HETATM   14  O           1     -37.585  -0.475 -11.726  0.00  0.00    -0.646 OA
HETATM   15  O           1     -36.748  -2.074 -10.531  0.00  0.00    -0.646 OA
ENDBRANCH   5  13
ENDBRANCH   3   5
BRANCH   4  16
HETATM   16  C           1     -33.291  -3.951 -12.915  0.00  0.00     0.274 C 
HETATM   17  C           1     -34.446  -4.877 -13.271  0.00  0.00     0.042 C 
HETATM   18  C           1     -35.092  -5.398 -11.994  0.00  0.00     0.003 C 
HETATM   19 Se           1     -33.771  -6.380 -10.950  0.00  0.00     0.000 Se
HETATM   20  C           1     -35.002  -6.821  -9.504  0.00  0.00     0.000 C 
HETATM   21  H           1     -32.719  -5.063 -11.235  0.00  0.00     0.275 HD
HETATM   22  N           1     -32.274  -4.707 -12.111  0.00  0.00    -0.067 N 
HETATM   23  H           1     -31.482  -4.070 -11.867  0.00  0.00     0.275 HD
HETATM   24  H           1     -31.915  -5.511 -12.672  0.00  0.00     0.275 HD
ENDBRANCH   4  16
TORSDOF 7
ENDMDL
MODEL 3
REMARK VINA RESULT:      -6.1      2.721      5.812
REMARK  7 active torsions:
REMARK  status: ('A' for Active; 'I' for Inactive)
REMARK    1  A    between atoms: C_3  and  C_24 
REMARK    2  A    between atoms: C_8  and  C_9 
REMARK    3  A    between atoms: C_8  and  C_22 
REMARK    4  A    between atoms: C_9  and  C_18 
REMARK    5  A    between atoms: C_12  and  C_22 
REMARK    6  A    between atoms: N_17  and  C_18 
REMARK    7  A    between atoms: C_22  and  N_23 
REMARK       I    between atoms: N_23  and  C_24 
ROOT
HETATM    1  O           1     -33.661  -1.464 -10.508  0.00  0.00    -0.271 OA
HETATM    2  H           1     -36.408  -2.400 -11.700  0.00  0.00     0.163 HD
HETATM    3  N           1     -35.673  -1.758 -11.432  0.00  0.00    -0.345 N 
HETATM    4  C           1     -34.538  -2.230 -10.830  0.00  0.00     0.249 C 
ENDROOT
BRANCH   3   5
HETATM    5  C           1     -35.824  -0.338 -11.682  0.00  0.00     0.185 C 
BRANCH   5   6
HETATM    6  C           1     -36.339  -0.125 -13.100  0.00  0.00     0.038 C 
BRANCH   6   7
HETATM    7  C           1     -35.304   0.651 -13.906  0.00  0.00     0.030 C 
BRANCH   7   8
HETATM    8  C           1     -35.585   0.479 -15.392  0.00  0.00     0.230 C 
BRANCH   8   9
HETATM    9  N           1     -36.281   1.701 -15.914  0.00  0.00    -0.079 N 
HETATM   10  H           1     -36.061   1.821 -16.928  0.00  0.00     0.274 HD
HETATM   11  H           1     -35.955   2.541 -15.384  0.00  0.00     0.274 HD
HETATM   12  H           1     -37.313   1.593 -15.793  0.00  0.00     0.274 HD
ENDBRANCH   8   9
ENDBRANCH   7   8
ENDBRANCH   6   7
ENDBRANCH   5   6
BRANCH   5  13
HETATM   13  C           1     -36.805   0.246 -10.697  0.00  0.00     0.196 C 
HETATM   14  O           1     -38.005   0.386 -11.018  0.00  0.00    -0.646 OA
HETATM   15  O           1     -36.419   0.589  -9.558  0.00  0.00    -0.646 OA
ENDBRANCH   5  13
ENDBRANCH   3   5
BRANCH   4  16
HETATM   16  C           1     -34.383  -3.708 -10.568  0.00  0.00     0.274 C 
HETATM   17  C           1     -33.082  -4.200 -11.190  0.00  0.00     0.042 C 
HETATM   18  C           1     -33.111  -3.951 -12.692  0.00  0.00     0.003 C 
HETATM   19 Se           1     -34.612  -4.911 -13.483  0.00  0.00     0.000 Se
HETATM   20  C           1     -34.246  -4.316 -15.303  0.00  0.00     0.000 C 
HETATM   21  H           1     -35.557  -4.276 -12.207  0.00  0.00     0.275 HD
HETATM   22  N           1     -35.538  -4.448 -11.177  0.00  0.00    -0.067 N 
HETATM   23  H           1     -36.430  -4.110 -10.750  0.00  0.00     0.275 HD
HETATM   24  H           1     -35.431  -5.471 -10.996  0.00  0.00     0.275 HD
ENDBRANCH   4  16
TORSDOF 7
ENDMDL
MODEL 4
REMARK VINA RESULT:      -6.1     14.808     16.217
REMARK  7 active torsions:
REMARK  status: ('A' for Active; 'I' for Inactive)
REMARK    1  A    between atoms: C_3  and  C_24 
REMARK    2  A    between atoms: C_8  and  C_9 
REMARK    3  A    between atoms: C_8  and  C_22 
REMARK    4  A    between atoms: C_9  and  C_18 
REMARK    5  A    between atoms: C_12  and  C_22 
REMARK    6  A    between atoms: N_17  and  C_18 
REMARK    7  A    between atoms: C_22  and  N_23 
REMARK       I    between atoms: N_23  and  C_24 
ROOT
HETATM    1  O           1     -21.058  -6.676  -7.150  0.00  0.00    -0.271 OA
HETATM    2  H           1     -20.460  -5.012  -4.559  0.00  0.00     0.163 HD
HETATM    3  N           1     -20.758  -5.802  -5.117  0.00  0.00    -0.345 N 
HETATM    4  C           1     -20.702  -5.734  -6.483  0.00  0.00     0.249 C 
ENDROOT
BRANCH   3   5
HETATM    5  C           1     -21.246  -7.004  -4.471  0.00  0.00     0.185 C 
BRANCH   5   6
HETATM    6  C           1     -20.177  -8.087  -4.540  0.00  0.00     0.038 C 
BRANCH   6   7
HETATM    7  C           1     -20.825  -9.421  -4.887  0.00  0.00     0.030 C 
BRANCH   7   8
HETATM    8  C           1     -20.493 -10.443  -3.809  0.00  0.00     0.230 C 
BRANCH   8   9
HETATM    9  N           1     -19.557  -9.830  -2.809  0.00  0.00    -0.079 N 
HETATM   10  H           1     -19.597  -8.790  -2.888  0.00  0.00     0.274 HD
HETATM   11  H           1     -18.583 -10.159  -2.998  0.00  0.00     0.274 HD
HETATM   12  H           1     -19.840 -10.117  -1.845  0.00  0.00     0.274 HD
ENDBRANCH   8   9
ENDBRANCH   7   8
ENDBRANCH   6   7
ENDBRANCH   5   6
BRANCH   5  13
HETATM   13  C           1     -21.567  -6.705  -3.028  0.00  0.00     0.196 C 
HETATM   14  O           1     -22.518  -5.946  -2.742  0.00  0.00    -0.646 OA
HETATM   15  O           1     -20.881  -7.216  -2.115  0.00  0.00    -0.646 OA
ENDBRANCH   5  13
ENDBRANCH   3   5
BRANCH   4  16
HETATM   16  C           1     -20.195  -4.482  -7.156  0.00  0.00     0.274 C 
HETATM   17  C           1     -21.291  -3.424  -7.153  0.00  0.00     0.042 C 
HETATM   18  C           1     -22.505  -3.949  -7.906  0.00  0.00     0.003 C 
HETATM   19 Se           1     -22.005  -4.358  -9.745  0.00  0.00     0.000 Se
HETATM   20  C           1     -23.784  -4.957 -10.270  0.00  0.00     0.000 C 
HETATM   21  H           1     -20.643  -5.157  -9.087  0.00  0.00     0.275 HD
HETATM   22  N           1     -19.809  -4.797  -8.572  0.00  0.00    -0.067 N 
HETATM   23  H           1     -19.057  -5.523  -8.573  0.00  0.00     0.275 HD
HETATM   24  H           1     -19.458  -3.931  -9.038  0.00  0.00     0.275 HD
ENDBRANCH   4  16
TORSDOF 7
ENDMDL
MODEL 5
REMARK VINA RESULT:      -6.0      3.076      5.889
REMARK  7 active torsions:
REMARK  status: ('A' for Active; 'I' for Inactive)
REMARK    1  A    between atoms: C_3  and  C_24 
REMARK    2  A    between atoms: C_8  and  C_9 
REMARK    3  A    between atoms: C_8  and  C_22 
REMARK    4  A    between atoms: C_9  and  C_18 
REMARK    5  A    between atoms: C_12  and  C_22 
REMARK    6  A    between atoms: N_17  and  C_18 
REMARK    7  A    between atoms: C_22  and  N_23 
REMARK       I    between atoms: N_23  and  C_24 
ROOT
HETATM    1  O           1     -34.812  -2.723 -13.337  0.00  0.00    -0.271 OA
HETATM    2  H           1     -36.519  -0.536 -11.874  0.00  0.00     0.163 HD
HETATM    3  N           1     -36.053  -1.002 -12.642  0.00  0.00    -0.345 N 
HETATM    4  C           1     -35.369  -2.167 -12.421  0.00  0.00     0.249 C 
ENDROOT
BRANCH   3   5
HETATM    5  C           1     -36.108  -0.435 -13.975  0.00  0.00     0.185 C 
BRANCH   5   6
HETATM    6  C           1     -37.447   0.265 -14.173  0.00  0.00     0.038 C 
BRANCH   6   7
HETATM    7  C           1     -37.745   0.379 -15.663  0.00  0.00     0.030 C 
BRANCH   7   8
HETATM    8  C           1     -37.405  -0.936 -16.351  0.00  0.00     0.230 C 
BRANCH   8   9
HETATM    9  N           1     -36.250  -0.728 -17.285  0.00  0.00    -0.079 N 
HETATM   10  H           1     -35.357  -0.751 -16.745  0.00  0.00     0.274 HD
HETATM   11  H           1     -36.348   0.199 -17.759  0.00  0.00     0.274 HD
HETATM   12  H           1     -36.242  -1.486 -18.004  0.00  0.00     0.274 HD
ENDBRANCH   8   9
ENDBRANCH   7   8
ENDBRANCH   6   7
ENDBRANCH   5   6
BRANCH   5  13
HETATM   13  C           1     -34.989   0.561 -14.145  0.00  0.00     0.196 C 
HETATM   14  O           1     -34.810   1.454 -13.288  0.00  0.00    -0.646 OA
HETATM   15  O           1     -34.238   0.494 -15.142  0.00  0.00    -0.646 OA
ENDBRANCH   5  13
ENDBRANCH   3   5
BRANCH   4  16
HETATM   16  C           1     -35.311  -2.756 -11.032  0.00  0.00     0.274 C 
HETATM   17  C           1     -33.974  -2.412 -10.390  0.00  0.00     0.042 C 
HETATM   18  C           1     -32.843  -2.986 -11.232  0.00  0.00     0.003 C 
HETATM   19 Se           1     -33.031  -4.923 -11.342  0.00  0.00     0.000 Se
HETATM   20  C           1     -31.449  -5.178 -12.451  0.00  0.00     0.000 C 
HETATM   21  H           1     -34.680  -4.640 -11.695  0.00  0.00     0.275 HD
HETATM   22  N           1     -35.456  -4.248 -11.117  0.00  0.00    -0.067 N 
HETATM   23  H           1     -36.374  -4.483 -11.557  0.00  0.00     0.275 HD
HETATM   24  H           1     -35.416  -4.656 -10.156  0.00  0.00     0.275 HD
ENDBRANCH   4  16
TORSDOF 7
ENDMDL
MODEL 6
REMARK VINA RESULT:      -5.9     15.553     17.920
REMARK  7 active torsions:
REMARK  status: ('A' for Active; 'I' for Inactive)
REMARK    1  A    between atoms: C_3  and  C_24 
REMARK    2  A    between atoms: C_8  and  C_9 
REMARK    3  A    between atoms: C_8  and  C_22 
REMARK    4  A    between atoms: C_9  and  C_18 
REMARK    5  A    between atoms: C_12  and  C_22 
REMARK    6  A    between atoms: N_17  and  C_18 
REMARK    7  A    between atoms: C_22  and  N_23 
REMARK       I    between atoms: N_23  and  C_24 
ROOT
HETATM    1  O           1     -19.322  -8.611  -4.226  0.00  0.00    -0.271 OA
HETATM    2  H           1     -21.646  -8.575  -6.333  0.00  0.00     0.163 HD
HETATM    3  N           1     -20.968  -8.204  -5.680  0.00  0.00    -0.345 N 
HETATM    4  C           1     -20.131  -9.053  -5.007  0.00  0.00     0.249 C 
ENDROOT
BRANCH   3   5
HETATM    5  C           1     -20.884  -6.774  -5.455  0.00  0.00     0.185 C 
BRANCH   5   6
HETATM    6  C           1     -20.950  -6.046  -6.792  0.00  0.00     0.038 C 
BRANCH   6   7
HETATM    7  C           1     -20.511  -4.599  -6.605  0.00  0.00     0.030 C 
BRANCH   7   8
HETATM    8  C           1     -21.409  -3.686  -7.428  0.00  0.00     0.230 C 
BRANCH   8   9
HETATM    9  N           1     -22.822  -4.186  -7.367  0.00  0.00    -0.079 N 
HETATM   10  H           1     -22.828  -5.168  -7.013  0.00  0.00     0.274 HD
HETATM   11  H           1     -23.243  -4.156  -8.323  0.00  0.00     0.274 HD
HETATM   12  H           1     -23.379  -3.580  -6.723  0.00  0.00     0.274 HD
ENDBRANCH   8   9
ENDBRANCH   7   8
ENDBRANCH   6   7
ENDBRANCH   5   6
BRANCH   5  13
HETATM   13  C           1     -22.033  -6.333  -4.584  0.00  0.00     0.196 C 
HETATM   14  O           1     -23.164  -6.153  -5.085  0.00  0.00    -0.646 OA
HETATM   15  O           1     -21.856  -6.149  -3.360  0.00  0.00    -0.646 OA
ENDBRANCH   5  13
ENDBRANCH   3   5
BRANCH   4  16
HETATM   16  C           1     -20.220 -10.541  -5.240  0.00  0.00     0.274 C 
HETATM   17  C           1     -21.625 -11.025  -4.906  0.00  0.00     0.042 C 
HETATM   18  C           1     -21.933 -10.722  -3.446  0.00  0.00     0.003 C 
HETATM   19 Se           1     -20.644 -11.634  -2.304  0.00  0.00     0.000 Se
HETATM   20  C           1     -21.410 -10.978  -0.636  0.00  0.00     0.000 C 
HETATM   21  H           1     -19.440 -11.035  -3.360  0.00  0.00     0.275 HD
HETATM   22  N           1     -19.227 -11.245  -4.361  0.00  0.00    -0.067 N 
HETATM   23  H           1     -18.263 -10.912  -4.590  0.00  0.00     0.275 HD
HETATM   24  H           1     -19.288 -12.275  -4.522  0.00  0.00     0.275 HD
ENDBRANCH   4  16
TORSDOF 7
ENDMDL
MODEL 7
REMARK VINA RESULT:      -5.9     17.555     19.088
REMARK  7 active torsions:
REMARK  status: ('A' for Active; 'I' for Inactive)
REMARK    1  A    between atoms: C_3  and  C_24 
REMARK    2  A    between atoms: C_8  and  C_9 
REMARK    3  A    between atoms: C_8  and  C_22 
REMARK    4  A    between atoms: C_9  and  C_18 
REMARK    5  A    between atoms: C_12  and  C_22 
REMARK    6  A    between atoms: N_17  and  C_18 
REMARK    7  A    between atoms: C_22  and  N_23 
REMARK       I    between atoms: N_23  and  C_24 
ROOT
HETATM    1  O           1     -21.951 -10.369  -3.553  0.00  0.00    -0.271 OA
HETATM    2  H           1     -20.102  -7.879  -4.026  0.00  0.00     0.163 HD
HETATM    3  N           1     -20.814  -8.447  -3.585  0.00  0.00    -0.345 N 
HETATM    4  C           1     -21.100  -9.691  -4.078  0.00  0.00     0.249 C 
ENDROOT
BRANCH   3   5
HETATM    5  C           1     -21.534  -7.941  -2.433  0.00  0.00     0.185 C 
BRANCH   5   6
HETATM    6  C           1     -20.651  -8.050  -1.196  0.00  0.00     0.038 C 
BRANCH   6   7
HETATM    7  C           1     -21.342  -8.919  -0.152  0.00  0.00     0.030 C 
BRANCH   7   8
HETATM    8  C           1     -22.021  -8.031   0.880  0.00  0.00     0.230 C 
BRANCH   8   9
HETATM    9  N           1     -23.487  -7.939   0.575  0.00  0.00    -0.079 N 
HETATM   10  H           1     -23.942  -8.858   0.769  0.00  0.00     0.274 HD
HETATM   11  H           1     -23.617  -7.690  -0.432  0.00  0.00     0.274 HD
HETATM   12  H           1     -23.922  -7.201   1.174  0.00  0.00     0.274 HD
ENDBRANCH   8   9
ENDBRANCH   7   8
ENDBRANCH   6   7
ENDBRANCH   5   6
BRANCH   5  13
HETATM   13  C           1     -21.903  -6.497  -2.663  0.00  0.00     0.196 C 
HETATM   14  O           1     -21.600  -5.938  -3.740  0.00  0.00    -0.646 OA
HETATM   15  O           1     -22.512  -5.858  -1.778  0.00  0.00    -0.646 OA
ENDBRANCH   5  13
ENDBRANCH   3   5
BRANCH   4  16
HETATM   16  C           1     -20.351 -10.217  -5.279  0.00  0.00     0.274 C 
HETATM   17  C           1     -19.613 -11.494  -4.897  0.00  0.00     0.042 C 
HETATM   18  C           1     -18.627 -11.195  -3.776  0.00  0.00     0.003 C 
HETATM   19 Se           1     -17.343  -9.857  -4.376  0.00  0.00     0.000 Se
HETATM   20  C           1     -16.355  -9.814  -2.696  0.00  0.00     0.000 C 
HETATM   21  H           1     -18.687  -8.983  -4.970  0.00  0.00     0.275 HD
HETATM   22  N           1     -19.362  -9.187  -5.741  0.00  0.00    -0.067 N 
HETATM   23  H           1     -19.870  -8.312  -6.002  0.00  0.00     0.275 HD
HETATM   24  H           1     -18.844  -9.550  -6.571  0.00  0.00     0.275 HD
ENDBRANCH   4  16
TORSDOF 7
ENDMDL
MODEL 8
REMARK VINA RESULT:      -5.8     15.968     18.260
REMARK  7 active torsions:
REMARK  status: ('A' for Active; 'I' for Inactive)
REMARK    1  A    between atoms: C_3  and  C_24 
REMARK    2  A    between atoms: C_8  and  C_9 
REMARK    3  A    between atoms: C_8  and  C_22 
REMARK    4  A    between atoms: C_9  and  C_18 
REMARK    5  A    between atoms: C_12  and  C_22 
REMARK    6  A    between atoms: N_17  and  C_18 
REMARK    7  A    between atoms: C_22  and  N_23 
REMARK       I    between atoms: N_23  and  C_24 
ROOT
HETATM    1  O           1     -20.184  -8.715  -3.387  0.00  0.00    -0.271 OA
HETATM    2  H           1     -21.089  -8.503  -6.383  0.00  0.00     0.163 HD
HETATM    3  N           1     -20.809  -8.185  -5.465  0.00  0.00    -0.345 N 
HETATM    4  C           1     -20.518  -9.095  -4.484  0.00  0.00     0.249 C 
ENDROOT
BRANCH   3   5
HETATM    5  C           1     -20.718  -6.765  -5.186  0.00  0.00     0.185 C 
BRANCH   5   6
HETATM    6  C           1     -20.558  -6.001  -6.494  0.00  0.00     0.038 C 
BRANCH   6   7
HETATM    7  C           1     -20.385  -4.516  -6.197  0.00  0.00     0.030 C 
BRANCH   7   8
HETATM    8  C           1     -21.140  -3.699  -7.237  0.00  0.00     0.230 C 
BRANCH   8   9
HETATM    9  N           1     -22.566  -4.162  -7.298  0.00  0.00    -0.079 N 
HETATM   10  H           1     -22.600  -5.200  -7.191  0.00  0.00     0.274 HD
HETATM   11  H           1     -22.980  -3.892  -8.219  0.00  0.00     0.274 HD
HETATM   12  H           1     -23.111  -3.715  -6.527  0.00  0.00     0.274 HD
ENDBRANCH   8   9
ENDBRANCH   7   8
ENDBRANCH   6   7
ENDBRANCH   5   6
BRANCH   5  13
HETATM   13  C           1     -21.974  -6.308  -4.486  0.00  0.00     0.196 C 
HETATM   14  O           1     -21.926  -5.941  -3.292  0.00  0.00    -0.646 OA
HETATM   15  O           1     -23.063  -6.296  -5.099  0.00  0.00    -0.646 OA
ENDBRANCH   5  13
ENDBRANCH   3   5
BRANCH   4  16
HETATM   16  C           1     -20.614 -10.573  -4.775  0.00  0.00     0.274 C 
HETATM   17  C           1     -19.623 -11.328  -3.897  0.00  0.00     0.042 C 
HETATM   18  C           1     -18.210 -10.843  -4.193  0.00  0.00     0.003 C 
HETATM   19 Se           1     -17.791 -11.164  -6.069  0.00  0.00     0.000 Se
HETATM   20  C           1     -15.991 -10.423  -5.964  0.00  0.00     0.000 C 
HETATM   21  H           1     -19.321 -10.487  -6.421  0.00  0.00     0.275 HD
HETATM   22  N           1     -20.291 -10.820  -6.219  0.00  0.00    -0.067 N 
HETATM   23  H           1     -20.970 -10.302  -6.820  0.00  0.00     0.275 HD
HETATM   24  H           1     -20.357 -11.842  -6.421  0.00  0.00     0.275 HD
ENDBRANCH   4  16
TORSDOF 7
ENDMDL
MODEL 9
REMARK VINA RESULT:      -5.7     18.093     20.300
REMARK  7 active torsions:
REMARK  status: ('A' for Active; 'I' for Inactive)
REMARK    1  A    between atoms: C_3  and  C_24 
REMARK    2  A    between atoms: C_8  and  C_9 
REMARK    3  A    between atoms: C_8  and  C_22 
REMARK    4  A    between atoms: C_9  and  C_18 
REMARK    5  A    between atoms: C_12  and  C_22 
REMARK    6  A    between atoms: N_17  and  C_18 
REMARK    7  A    between atoms: C_22  and  N_23 
REMARK       I    between atoms: N_23  and  C_24 
ROOT
HETATM    1  O           1     -18.968 -11.162  -3.860  0.00  0.00    -0.271 OA
HETATM    2  H           1     -18.912  -8.307  -2.560  0.00  0.00     0.163 HD
HETATM    3  N           1     -19.251  -9.070  -3.132  0.00  0.00    -0.345 N 
HETATM    4  C           1     -18.563 -10.252  -3.176  0.00  0.00     0.249 C 
ENDROOT
BRANCH   3   5
HETATM    5  C           1     -20.466  -8.909  -3.907  0.00  0.00     0.185 C 
BRANCH   5   6
HETATM    6  C           1     -21.618  -8.554  -2.977  0.00  0.00     0.038 C 
BRANCH   6   7
HETATM    7  C           1     -21.066  -7.957  -1.688  0.00  0.00     0.030 C 
BRANCH   7   8
HETATM    8  C           1     -22.063  -6.955  -1.124  0.00  0.00     0.230 C 
BRANCH   8   9
HETATM    9  N           1     -22.373  -5.918  -2.162  0.00  0.00    -0.079 N 
HETATM   10  H           1     -23.388  -5.673  -2.118  0.00  0.00     0.274 HD
HETATM   11  H           1     -22.146  -6.296  -3.110  0.00  0.00     0.274 HD
HETATM   12  H           1     -21.801  -5.062  -1.983  0.00  0.00     0.274 HD
ENDBRANCH   8   9
ENDBRANCH   7   8
ENDBRANCH   6   7
ENDBRANCH   5   6
BRANCH   5  13
HETATM   13  C           1     -20.276  -7.806  -4.918  0.00  0.00     0.196 C 
HETATM   14  O           1     -19.490  -7.964  -5.877  0.00  0.00    -0.646 OA
HETATM   15  O           1     -20.905  -6.732  -4.797  0.00  0.00    -0.646 OA
ENDBRANCH   5  13
ENDBRANCH   3   5
BRANCH   4  16
HETATM   16  C           1     -17.298 -10.418  -2.369  0.00  0.00     0.274 C 
HETATM   17  C           1     -16.212  -9.513  -2.936  0.00  0.00     0.042 C 
HETATM   18  C           1     -15.942  -9.890  -4.386  0.00  0.00     0.003 C 
HETATM   19 Se           1     -15.354 -11.746  -4.479  0.00  0.00     0.000 Se
HETATM   20  C           1     -15.146 -11.755  -6.417  0.00  0.00     0.000 C 
HETATM   21  H           1     -16.661 -12.104  -3.436  0.00  0.00     0.275 HD
HETATM   22  N           1     -16.845 -11.847  -2.440  0.00  0.00    -0.067 N 
HETATM   23  H           1     -17.591 -12.467  -2.051  0.00  0.00     0.275 HD
HETATM   24  H           1     -15.970 -11.963  -1.882  0.00  0.00     0.275 HD
ENDBRANCH   4  16
TORSDOF 7
ENDMDL
