MODEL 1
REMARK VINA RESULT:      -7.4      0.000      0.000
REMARK  9 active torsions:
REMARK  status: ('A' for Active; 'I' for Inactive)
REMARK    1  A    between atoms: C_2  and  C_10 
REMARK    2  A    between atoms: C_2  and  S_3 
REMARK    3  A    between atoms: N_7  and  C_27 
REMARK       I    between atoms: N_7  and  C_11 
REMARK    4  A    between atoms: C_8  and  C_27 
REMARK    5  A    between atoms: C_8  and  C_18 
REMARK    6  A    between atoms: C_10  and  C_23 
REMARK    7  A    between atoms: C_11  and  C_23 
REMARK    8  A    between atoms: N_16  and  C_23 
REMARK    9  A    between atoms: C_21  and  C_27 
ROOT
HETATM    1  C           1     -21.892  -6.675  -5.499  0.00  0.00     0.190 C 
ENDROOT
BRANCH   1   2
HETATM    2  N           1     -22.427  -6.277  -4.212  0.00  0.00    -0.344 N 
HETATM    3  C           1     -21.635  -6.329  -3.096  0.00  0.00     0.249 C 
HETATM    4  O           1     -20.976  -5.367  -2.779  0.00  0.00    -0.271 OA
HETATM    5  H           1     -23.386  -5.962  -4.137  0.00  0.00     0.163 HD
BRANCH   3   6
HETATM    6  C           1     -21.586  -7.586  -2.263  0.00  0.00     0.275 C 
BRANCH   6   7
HETATM    7  C           1     -22.189  -7.311  -0.892  0.00  0.00     0.053 C 
BRANCH   7   8
HETATM    8  C           1     -22.404  -8.627  -0.156  0.00  0.00     0.076 C 
BRANCH   8   9
HETATM    9  S           1     -21.249  -8.737   1.239  0.00  0.00    -0.173 SA
HETATM   10  C           1     -20.721 -10.445   0.927  0.00  0.00     0.089 C 
ENDBRANCH   8   9
ENDBRANCH   7   8
ENDBRANCH   6   7
BRANCH   6  11
HETATM   11  N           1     -20.159  -8.022  -2.101  0.00  0.00    -0.066 N 
HETATM   12  H           1     -19.830  -7.786  -1.138  0.00  0.00     0.275 HD
HETATM   13  H           1     -19.563  -7.530  -2.805  0.00  0.00     0.275 HD
HETATM   14  H           1     -20.092  -9.055  -2.248  0.00  0.00     0.275 HD
ENDBRANCH   6  11
ENDBRANCH   3   6
ENDBRANCH   1   2
BRANCH   1  15
HETATM   15  C           1     -21.123  -5.510  -6.111  0.00  0.00     0.077 C 
BRANCH  15  16
HETATM   16  C           1     -21.939  -4.892  -7.203  0.00  0.00    -0.028 A 
HETATM   17  C           1     -21.494  -4.609  -8.524  0.00  0.00    -0.002 A 
HETATM   18  C           1     -22.569  -4.040  -9.207  0.00  0.00     0.042 A 
HETATM   19  C           1     -20.274  -4.784  -9.206  0.00  0.00     0.014 A 
HETATM   20  C           1     -22.486  -3.634 -10.545  0.00  0.00     0.030 A 
HETATM   21  N           1     -23.624  -3.983  -8.324  0.00  0.00    -0.365 N 
HETATM   22  C           1     -21.265  -3.818 -11.200  0.00  0.00     0.002 A 
HETATM   23  C           1     -20.174  -4.384 -10.544  0.00  0.00     0.001 A 
HETATM   24  H           1     -24.576  -3.601  -8.549  0.00  0.00     0.165 HD
HETATM   25  C           1     -23.254  -4.496  -7.109  0.00  0.00     0.096 A 
ENDBRANCH  15  16
ENDBRANCH   1  15
BRANCH   1  26
HETATM   26  C           1     -20.963  -7.851  -5.317  0.00  0.00     0.197 C 
HETATM   27  O           1     -19.730  -7.666  -5.238  0.00  0.00    -0.646 OA
HETATM   28  O           1     -21.428  -9.008  -5.245  0.00  0.00    -0.646 OA
ENDBRANCH   1  26
TORSDOF 9
ENDMDL
MODEL 2
REMARK VINA RESULT:      -7.2      3.253      7.648
REMARK  9 active torsions:
REMARK  status: ('A' for Active; 'I' for Inactive)
REMARK    1  A    between atoms: C_2  and  C_10 
REMARK    2  A    between atoms: C_2  and  S_3 
REMARK    3  A    between atoms: N_7  and  C_27 
REMARK       I    between atoms: N_7  and  C_11 
REMARK    4  A    between atoms: C_8  and  C_27 
REMARK    5  A    between atoms: C_8  and  C_18 
REMARK    6  A    between atoms: C_10  and  C_23 
REMARK    7  A    between atoms: C_11  and  C_23 
REMARK    8  A    between atoms: N_16  and  C_23 
REMARK    9  A    between atoms: C_21  and  C_27 
ROOT
HETATM    1  C           1     -19.972  -7.439  -5.339  0.00  0.00     0.190 C 
ENDROOT
BRANCH   1   2
HETATM    2  N           1     -20.001  -6.928  -6.696  0.00  0.00    -0.344 N 
HETATM    3  C           1     -20.097  -5.580  -6.917  0.00  0.00     0.249 C 
HETATM    4  O           1     -19.096  -4.910  -7.009  0.00  0.00    -0.271 OA
HETATM    5  H           1     -19.950  -7.567  -7.479  0.00  0.00     0.163 HD
BRANCH   3   6
HETATM    6  C           1     -21.454  -4.932  -7.047  0.00  0.00     0.275 C 
BRANCH   6   7
HETATM    7  C           1     -22.017  -5.204  -8.436  0.00  0.00     0.053 C 
BRANCH   7   8
HETATM    8  C           1     -22.887  -4.032  -8.871  0.00  0.00     0.076 C 
BRANCH   8   9
HETATM    9  S           1     -22.474  -3.571 -10.577  0.00  0.00    -0.173 SA
HETATM   10  C           1     -20.761  -4.172 -10.536  0.00  0.00     0.089 C 
ENDBRANCH   8   9
ENDBRANCH   7   8
ENDBRANCH   6   7
BRANCH   6  11
HETATM   11  N           1     -21.320  -3.451  -6.844  0.00  0.00    -0.066 N 
HETATM   12  H           1     -22.158  -2.968  -7.240  0.00  0.00     0.275 HD
HETATM   13  H           1     -20.459  -3.109  -7.327  0.00  0.00     0.275 HD
HETATM   14  H           1     -21.251  -3.245  -5.821  0.00  0.00     0.275 HD
ENDBRANCH   6  11
ENDBRANCH   3   6
ENDBRANCH   1   2
BRANCH   1  15
HETATM   15  C           1     -21.370  -7.893  -4.938  0.00  0.00     0.077 C 
BRANCH  15  16
HETATM   16  C           1     -21.706  -7.339  -3.590  0.00  0.00    -0.028 A 
HETATM   17  C           1     -21.745  -8.068  -2.369  0.00  0.00    -0.002 A 
HETATM   18  C           1     -22.101  -7.169  -1.364  0.00  0.00     0.042 A 
HETATM   19  C           1     -21.510  -9.413  -2.024  0.00  0.00     0.014 A 
HETATM   20  C           1     -22.234  -7.549  -0.022  0.00  0.00     0.030 A 
HETATM   21  N           1     -22.270  -5.940  -1.961  0.00  0.00    -0.365 N 
HETATM   22  C           1     -21.996  -8.889   0.296  0.00  0.00     0.002 A 
HETATM   23  C           1     -21.639  -9.810  -0.687  0.00  0.00     0.001 A 
HETATM   24  H           1     -22.542  -5.059  -1.458  0.00  0.00     0.165 HD
HETATM   25  C           1     -22.034  -6.032  -3.307  0.00  0.00     0.096 A 
ENDBRANCH  15  16
ENDBRANCH   1  15
BRANCH   1  26
HETATM   26  C           1     -19.021  -8.609  -5.264  0.00  0.00     0.197 C 
HETATM   27  O           1     -18.555  -9.104  -6.312  0.00  0.00    -0.646 OA
HETATM   28  O           1     -18.702  -9.084  -4.153  0.00  0.00    -0.646 OA
ENDBRANCH   1  26
TORSDOF 9
ENDMDL
MODEL 3
REMARK VINA RESULT:      -7.2      3.372      8.148
REMARK  9 active torsions:
REMARK  status: ('A' for Active; 'I' for Inactive)
REMARK    1  A    between atoms: C_2  and  C_10 
REMARK    2  A    between atoms: C_2  and  S_3 
REMARK    3  A    between atoms: N_7  and  C_27 
REMARK       I    between atoms: N_7  and  C_11 
REMARK    4  A    between atoms: C_8  and  C_27 
REMARK    5  A    between atoms: C_8  and  C_18 
REMARK    6  A    between atoms: C_10  and  C_23 
REMARK    7  A    between atoms: C_11  and  C_23 
REMARK    8  A    between atoms: N_16  and  C_23 
REMARK    9  A    between atoms: C_21  and  C_27 
ROOT
HETATM    1  C           1     -21.163  -7.445  -5.416  0.00  0.00     0.190 C 
ENDROOT
BRANCH   1   2
HETATM    2  N           1     -20.311  -6.878  -6.442  0.00  0.00    -0.344 N 
HETATM    3  C           1     -20.457  -5.566  -6.805  0.00  0.00     0.249 C 
HETATM    4  O           1     -19.828  -4.707  -6.234  0.00  0.00    -0.271 OA
HETATM    5  H           1     -19.607  -7.451  -6.890  0.00  0.00     0.163 HD
BRANCH   3   6
HETATM    6  C           1     -21.405  -5.193  -7.919  0.00  0.00     0.275 C 
BRANCH   6   7
HETATM    7  C           1     -20.608  -4.692  -9.117  0.00  0.00     0.053 C 
BRANCH   7   8
HETATM    8  C           1     -21.437  -3.674  -9.890  0.00  0.00     0.076 C 
BRANCH   8   9
HETATM    9  S           1     -21.916  -4.374 -11.494  0.00  0.00    -0.173 SA
HETATM   10  C           1     -23.617  -4.802 -11.025  0.00  0.00     0.089 C 
ENDBRANCH   8   9
ENDBRANCH   7   8
ENDBRANCH   6   7
BRANCH   6  11
HETATM   11  N           1     -22.329  -4.110  -7.446  0.00  0.00    -0.066 N 
HETATM   12  H           1     -23.319  -4.427  -7.552  0.00  0.00     0.275 HD
HETATM   13  H           1     -22.176  -3.247  -8.016  0.00  0.00     0.275 HD
HETATM   14  H           1     -22.136  -3.903  -6.440  0.00  0.00     0.275 HD
ENDBRANCH   6  11
ENDBRANCH   3   6
ENDBRANCH   1   2
BRANCH   1  15
HETATM   15  C           1     -20.305  -8.170  -4.386  0.00  0.00     0.077 C 
BRANCH  15  16
HETATM   16  C           1     -21.165  -9.093  -3.581  0.00  0.00    -0.028 A 
HETATM   17  C           1     -21.591  -8.885  -2.239  0.00  0.00    -0.002 A 
HETATM   18  C           1     -22.371  -9.984  -1.880  0.00  0.00     0.042 A 
HETATM   19  C           1     -21.384  -7.862  -1.293  0.00  0.00     0.014 A 
HETATM   20  C           1     -22.959 -10.113  -0.616  0.00  0.00     0.030 A 
HETATM   21  N           1     -22.412 -10.824  -2.971  0.00  0.00    -0.365 N 
HETATM   22  C           1     -22.740  -9.086   0.306  0.00  0.00     0.002 A 
HETATM   23  C           1     -21.965  -7.975  -0.025  0.00  0.00     0.001 A 
HETATM   24  H           1     -22.927 -11.739  -3.005  0.00  0.00     0.165 HD
HETATM   25  C           1     -21.687 -10.294  -4.004  0.00  0.00     0.096 A 
ENDBRANCH  15  16
ENDBRANCH   1  15
BRANCH   1  26
HETATM   26  C           1     -21.938  -6.341  -4.738  0.00  0.00     0.197 C 
HETATM   27  O           1     -21.408  -5.680  -3.820  0.00  0.00    -0.646 OA
HETATM   28  O           1     -23.109  -6.089  -5.094  0.00  0.00    -0.646 OA
ENDBRANCH   1  26
TORSDOF 9
ENDMDL
MODEL 4
REMARK VINA RESULT:      -7.0      3.123      7.634
REMARK  9 active torsions:
REMARK  status: ('A' for Active; 'I' for Inactive)
REMARK    1  A    between atoms: C_2  and  C_10 
REMARK    2  A    between atoms: C_2  and  S_3 
REMARK    3  A    between atoms: N_7  and  C_27 
REMARK       I    between atoms: N_7  and  C_11 
REMARK    4  A    between atoms: C_8  and  C_27 
REMARK    5  A    between atoms: C_8  and  C_18 
REMARK    6  A    between atoms: C_10  and  C_23 
REMARK    7  A    between atoms: C_11  and  C_23 
REMARK    8  A    between atoms: N_16  and  C_23 
REMARK    9  A    between atoms: C_21  and  C_27 
ROOT
HETATM    1  C           1     -19.924  -7.869  -5.219  0.00  0.00     0.190 C 
ENDROOT
BRANCH   1   2
HETATM    2  N           1     -19.792  -7.063  -6.416  0.00  0.00    -0.344 N 
HETATM    3  C           1     -20.230  -5.766  -6.421  0.00  0.00     0.249 C 
HETATM    4  O           1     -19.480  -4.874  -6.103  0.00  0.00    -0.271 OA
HETATM    5  H           1     -19.377  -7.459  -7.250  0.00  0.00     0.163 HD
BRANCH   3   6
HETATM    6  C           1     -21.651  -5.450  -6.822  0.00  0.00     0.275 C 
BRANCH   6   7
HETATM    7  C           1     -21.714  -4.045  -7.405  0.00  0.00     0.053 C 
BRANCH   7   8
HETATM    8  C           1     -22.125  -4.119  -8.870  0.00  0.00     0.076 C 
BRANCH   8   9
HETATM    9  S           1     -20.642  -4.224  -9.911  0.00  0.00    -0.173 SA
HETATM   10  C           1     -21.316  -3.290 -11.314  0.00  0.00     0.089 C 
ENDBRANCH   8   9
ENDBRANCH   7   8
ENDBRANCH   6   7
BRANCH   6  11
HETATM   11  N           1     -22.539  -5.530  -5.615  0.00  0.00    -0.066 N 
HETATM   12  H           1     -23.506  -5.228  -5.874  0.00  0.00     0.275 HD
HETATM   13  H           1     -22.167  -4.904  -4.866  0.00  0.00     0.275 HD
HETATM   14  H           1     -22.565  -6.515  -5.266  0.00  0.00     0.275 HD
ENDBRANCH   6  11
ENDBRANCH   3   6
ENDBRANCH   1   2
BRANCH   1  15
HETATM   15  C           1     -21.266  -8.591  -5.238  0.00  0.00     0.077 C 
BRANCH  15  16
HETATM   16  C           1     -21.554  -9.145  -3.878  0.00  0.00    -0.028 A 
HETATM   17  C           1     -21.806  -8.387  -2.700  0.00  0.00    -0.002 A 
HETATM   18  C           1     -22.024  -9.297  -1.666  0.00  0.00     0.042 A 
HETATM   19  C           1     -21.868  -7.009  -2.417  0.00  0.00     0.014 A 
HETATM   20  C           1     -22.304  -8.896  -0.353  0.00  0.00     0.030 A 
HETATM   21  N           1     -21.907 -10.558  -2.204  0.00  0.00    -0.365 N 
HETATM   22  C           1     -22.361  -7.523  -0.096  0.00  0.00     0.002 A 
HETATM   23  C           1     -22.147  -6.591  -1.110  0.00  0.00     0.001 A 
HETATM   24  H           1     -22.020 -11.454  -1.668  0.00  0.00     0.165 HD
HETATM   25  C           1     -21.623 -10.478  -3.542  0.00  0.00     0.096 A 
ENDBRANCH  15  16
ENDBRANCH   1  15
BRANCH   1  26
HETATM   26  C           1     -18.807  -8.883  -5.169  0.00  0.00     0.197 C 
HETATM   27  O           1     -18.235  -9.128  -4.086  0.00  0.00    -0.646 OA
HETATM   28  O           1     -18.455  -9.475  -6.211  0.00  0.00    -0.646 OA
ENDBRANCH   1  26
TORSDOF 9
ENDMDL
MODEL 5
REMARK VINA RESULT:      -6.9      3.853      7.302
REMARK  9 active torsions:
REMARK  status: ('A' for Active; 'I' for Inactive)
REMARK    1  A    between atoms: C_2  and  C_10 
REMARK    2  A    between atoms: C_2  and  S_3 
REMARK    3  A    between atoms: N_7  and  C_27 
REMARK       I    between atoms: N_7  and  C_11 
REMARK    4  A    between atoms: C_8  and  C_27 
REMARK    5  A    between atoms: C_8  and  C_18 
REMARK    6  A    between atoms: C_10  and  C_23 
REMARK    7  A    between atoms: C_11  and  C_23 
REMARK    8  A    between atoms: N_16  and  C_23 
REMARK    9  A    between atoms: C_21  and  C_27 
ROOT
HETATM    1  C           1     -21.383  -7.907  -2.359  0.00  0.00     0.190 C 
ENDROOT
BRANCH   1   2
HETATM    2  N           1     -21.296  -6.576  -2.927  0.00  0.00    -0.344 N 
HETATM    3  C           1     -21.582  -6.377  -4.251  0.00  0.00     0.249 C 
HETATM    4  O           1     -22.712  -6.120  -4.593  0.00  0.00    -0.271 OA
HETATM    5  H           1     -21.024  -5.794  -2.345  0.00  0.00     0.163 HD
BRANCH   3   6
HETATM    6  C           1     -20.486  -6.479  -5.283  0.00  0.00     0.275 C 
BRANCH   6   7
HETATM    7  C           1     -20.177  -5.093  -5.835  0.00  0.00     0.053 C 
BRANCH   7   8
HETATM    8  C           1     -20.456  -5.067  -7.332  0.00  0.00     0.076 C 
BRANCH   8   9
HETATM    9  S           1     -21.896  -4.011  -7.661  0.00  0.00    -0.173 SA
HETATM   10  C           1     -21.944  -4.293  -9.453  0.00  0.00     0.089 C 
ENDBRANCH   8   9
ENDBRANCH   7   8
ENDBRANCH   6   7
BRANCH   6  11
HETATM   11  N           1     -20.935  -7.372  -6.402  0.00  0.00    -0.066 N 
HETATM   12  H           1     -20.218  -8.115  -6.565  0.00  0.00     0.275 HD
HETATM   13  H           1     -21.056  -6.807  -7.272  0.00  0.00     0.275 HD
HETATM   14  H           1     -21.845  -7.819  -6.146  0.00  0.00     0.275 HD
ENDBRANCH   6  11
ENDBRANCH   3   6
ENDBRANCH   1   2
BRANCH   1  15
HETATM   15  C           1     -19.982  -8.416  -2.043  0.00  0.00     0.077 C 
BRANCH  15  16
HETATM   16  C           1     -19.528  -9.335  -3.134  0.00  0.00    -0.028 A 
HETATM   17  C           1     -18.181  -9.690  -3.424  0.00  0.00    -0.002 A 
HETATM   18  C           1     -18.212 -10.562  -4.513  0.00  0.00     0.042 A 
HETATM   19  C           1     -16.936  -9.350  -2.862  0.00  0.00     0.014 A 
HETATM   20  C           1     -17.053 -11.115  -5.070  0.00  0.00     0.030 A 
HETATM   21  N           1     -19.533 -10.725  -4.864  0.00  0.00    -0.365 N 
HETATM   22  C           1     -15.828 -10.764  -4.496  0.00  0.00     0.002 A 
HETATM   23  C           1     -15.767  -9.894  -3.408  0.00  0.00     0.001 A 
HETATM   24  H           1     -19.876 -11.328  -5.652  0.00  0.00     0.165 HD
HETATM   25  C           1     -20.338  -9.987  -4.036  0.00  0.00     0.096 A 
ENDBRANCH  15  16
ENDBRANCH   1  15
BRANCH   1  26
HETATM   26  C           1     -22.199  -7.860  -1.090  0.00  0.00     0.197 C 
HETATM   27  O           1     -22.718  -6.785  -0.721  0.00  0.00    -0.646 OA
HETATM   28  O           1     -22.355  -8.895  -0.408  0.00  0.00    -0.646 OA
ENDBRANCH   1  26
TORSDOF 9
ENDMDL
MODEL 6
REMARK VINA RESULT:      -6.6      2.566      3.418
REMARK  9 active torsions:
REMARK  status: ('A' for Active; 'I' for Inactive)
REMARK    1  A    between atoms: C_2  and  C_10 
REMARK    2  A    between atoms: C_2  and  S_3 
REMARK    3  A    between atoms: N_7  and  C_27 
REMARK       I    between atoms: N_7  and  C_11 
REMARK    4  A    between atoms: C_8  and  C_27 
REMARK    5  A    between atoms: C_8  and  C_18 
REMARK    6  A    between atoms: C_10  and  C_23 
REMARK    7  A    between atoms: C_11  and  C_23 
REMARK    8  A    between atoms: N_16  and  C_23 
REMARK    9  A    between atoms: C_21  and  C_27 
ROOT
HETATM    1  C           1     -21.130  -6.493  -5.176  0.00  0.00     0.190 C 
ENDROOT
BRANCH   1   2
HETATM    2  N           1     -21.324  -7.842  -5.669  0.00  0.00    -0.344 N 
HETATM    3  C           1     -20.998  -8.913  -4.881  0.00  0.00     0.249 C 
HETATM    4  O           1     -21.823  -9.390  -4.138  0.00  0.00    -0.271 OA
HETATM    5  H           1     -21.700  -7.993  -6.597  0.00  0.00     0.163 HD
BRANCH   3   6
HETATM    6  C           1     -19.607  -9.497  -4.938  0.00  0.00     0.275 C 
BRANCH   6   7
HETATM    7  C           1     -18.904  -9.267  -3.607  0.00  0.00     0.053 C 
BRANCH   7   8
HETATM    8  C           1     -18.913 -10.556  -2.796  0.00  0.00     0.076 C 
BRANCH   8   9
HETATM    9  S           1     -17.230 -10.927  -2.228  0.00  0.00    -0.173 SA
HETATM   10  C           1     -16.441  -9.476  -2.982  0.00  0.00     0.089 C 
ENDBRANCH   8   9
ENDBRANCH   7   8
ENDBRANCH   6   7
BRANCH   6  11
HETATM   11  N           1     -18.831  -8.830  -6.035  0.00  0.00    -0.066 N 
HETATM   12  H           1     -17.835  -9.148  -6.000  0.00  0.00     0.275 HD
HETATM   13  H           1     -18.870  -7.793  -5.910  0.00  0.00     0.275 HD
HETATM   14  H           1     -19.245  -9.086  -6.960  0.00  0.00     0.275 HD
ENDBRANCH   6  11
ENDBRANCH   3   6
ENDBRANCH   1   2
BRANCH   1  15
HETATM   15  C           1     -21.908  -5.517  -6.049  0.00  0.00     0.077 C 
BRANCH  15  16
HETATM   16  C           1     -21.021  -5.008  -7.142  0.00  0.00    -0.028 A 
HETATM   17  C           1     -21.423  -4.693  -8.470  0.00  0.00    -0.002 A 
HETATM   18  C           1     -20.287  -4.257  -9.151  0.00  0.00     0.042 A 
HETATM   19  C           1     -22.651  -4.740  -9.159  0.00  0.00     0.014 A 
HETATM   20  C           1     -20.316  -3.862 -10.494  0.00  0.00     0.030 A 
HETATM   21  N           1     -19.238  -4.308  -8.262  0.00  0.00    -0.365 N 
HETATM   22  C           1     -21.546  -3.916 -11.157  0.00  0.00     0.002 A 
HETATM   23  C           1     -22.698  -4.347 -10.502  0.00  0.00     0.001 A 
HETATM   24  H           1     -18.247  -4.039  -8.484  0.00  0.00     0.165 HD
HETATM   25  C           1     -19.671  -4.761  -7.044  0.00  0.00     0.096 A 
ENDBRANCH  15  16
ENDBRANCH   1  15
BRANCH   1  26
HETATM   26  C           1     -21.625  -6.401  -3.753  0.00  0.00     0.197 C 
HETATM   27  O           1     -22.837  -6.200  -3.526  0.00  0.00    -0.646 OA
HETATM   28  O           1     -20.823  -6.524  -2.803  0.00  0.00    -0.646 OA
ENDBRANCH   1  26
TORSDOF 9
ENDMDL
MODEL 7
REMARK VINA RESULT:      -6.6      3.102      4.433
REMARK  9 active torsions:
REMARK  status: ('A' for Active; 'I' for Inactive)
REMARK    1  A    between atoms: C_2  and  C_10 
REMARK    2  A    between atoms: C_2  and  S_3 
REMARK    3  A    between atoms: N_7  and  C_27 
REMARK       I    between atoms: N_7  and  C_11 
REMARK    4  A    between atoms: C_8  and  C_27 
REMARK    5  A    between atoms: C_8  and  C_18 
REMARK    6  A    between atoms: C_10  and  C_23 
REMARK    7  A    between atoms: C_11  and  C_23 
REMARK    8  A    between atoms: N_16  and  C_23 
REMARK    9  A    between atoms: C_21  and  C_27 
ROOT
HETATM    1  C           1     -21.418  -7.401  -3.593  0.00  0.00     0.190 C 
ENDROOT
BRANCH   1   2
HETATM    2  N           1     -21.629  -8.833  -3.519  0.00  0.00    -0.344 N 
HETATM    3  C           1     -20.567  -9.672  -3.314  0.00  0.00     0.249 C 
HETATM    4  O           1     -20.239  -9.969  -2.190  0.00  0.00    -0.271 OA
HETATM    5  H           1     -22.562  -9.214  -3.619  0.00  0.00     0.163 HD
BRANCH   3   6
HETATM    6  C           1     -19.805 -10.227  -4.493  0.00  0.00     0.275 C 
BRANCH   6   7
HETATM    7  C           1     -18.514  -9.440  -4.680  0.00  0.00     0.053 C 
BRANCH   7   8
HETATM    8  C           1     -17.832  -9.880  -5.969  0.00  0.00     0.076 C 
BRANCH   8   9
HETATM    9  S           1     -16.201 -10.577  -5.583  0.00  0.00    -0.173 SA
HETATM   10  C           1     -16.742 -12.307  -5.482  0.00  0.00     0.089 C 
ENDBRANCH   8   9
ENDBRANCH   7   8
ENDBRANCH   6   7
BRANCH   6  11
HETATM   11  N           1     -20.645 -10.109  -5.731  0.00  0.00    -0.066 N 
HETATM   12  H           1     -20.416 -10.892  -6.384  0.00  0.00     0.275 HD
HETATM   13  H           1     -20.450  -9.195  -6.199  0.00  0.00     0.275 HD
HETATM   14  H           1     -21.657 -10.158  -5.471  0.00  0.00     0.275 HD
ENDBRANCH   6  11
ENDBRANCH   3   6
ENDBRANCH   1   2
BRANCH   1  15
HETATM   15  C           1     -22.256  -6.822  -4.726  0.00  0.00     0.077 C 
BRANCH  15  16
HETATM   16  C           1     -21.355  -6.375  -5.835  0.00  0.00    -0.028 A 
HETATM   17  C           1     -21.702  -5.486  -6.890  0.00  0.00    -0.002 A 
HETATM   18  C           1     -20.572  -5.345  -7.695  0.00  0.00     0.042 A 
HETATM   19  C           1     -22.874  -4.787  -7.236  0.00  0.00     0.014 A 
HETATM   20  C           1     -20.554  -4.534  -8.837  0.00  0.00     0.030 A 
HETATM   21  N           1     -19.580  -6.123  -7.142  0.00  0.00    -0.365 N 
HETATM   22  C           1     -21.730  -3.849  -9.161  0.00  0.00     0.002 A 
HETATM   23  C           1     -22.874  -3.972  -8.374  0.00  0.00     0.001 A 
HETATM   24  H           1     -18.608  -6.221  -7.527  0.00  0.00     0.165 HD
HETATM   25  C           1     -20.043  -6.751  -6.016  0.00  0.00     0.096 A 
ENDBRANCH  15  16
ENDBRANCH   1  15
BRANCH   1  26
HETATM   26  C           1     -21.828  -6.764  -2.287  0.00  0.00     0.197 C 
HETATM   27  O           1     -22.061  -7.479  -1.290  0.00  0.00    -0.646 OA
HETATM   28  O           1     -21.937  -5.522  -2.205  0.00  0.00    -0.646 OA
ENDBRANCH   1  26
TORSDOF 9
ENDMDL
MODEL 8
REMARK VINA RESULT:      -6.5      4.709      8.066
REMARK  9 active torsions:
REMARK  status: ('A' for Active; 'I' for Inactive)
REMARK    1  A    between atoms: C_2  and  C_10 
REMARK    2  A    between atoms: C_2  and  S_3 
REMARK    3  A    between atoms: N_7  and  C_27 
REMARK       I    between atoms: N_7  and  C_11 
REMARK    4  A    between atoms: C_8  and  C_27 
REMARK    5  A    between atoms: C_8  and  C_18 
REMARK    6  A    between atoms: C_10  and  C_23 
REMARK    7  A    between atoms: C_11  and  C_23 
REMARK    8  A    between atoms: N_16  and  C_23 
REMARK    9  A    between atoms: C_21  and  C_27 
ROOT
HETATM    1  C           1     -19.775  -9.075  -4.962  0.00  0.00     0.190 C 
ENDROOT
BRANCH   1   2
HETATM    2  N           1     -18.640  -9.262  -5.846  0.00  0.00    -0.344 N 
HETATM    3  C           1     -18.181 -10.523  -6.113  0.00  0.00     0.249 C 
HETATM    4  O           1     -18.627 -11.142  -7.050  0.00  0.00    -0.271 OA
HETATM    5  H           1     -18.187  -8.459  -6.265  0.00  0.00     0.163 HD
BRANCH   3   6
HETATM    6  C           1     -17.118 -11.141  -5.237  0.00  0.00     0.275 C 
BRANCH   6   7
HETATM    7  C           1     -15.764 -11.027  -5.924  0.00  0.00     0.053 C 
BRANCH   7   8
HETATM    8  C           1     -15.374 -12.378  -6.510  0.00  0.00     0.076 C 
BRANCH   8   9
HETATM    9  S           1     -13.614 -12.689  -6.197  0.00  0.00    -0.173 SA
HETATM   10  C           1     -13.711 -12.581  -4.387  0.00  0.00     0.089 C 
ENDBRANCH   8   9
ENDBRANCH   7   8
ENDBRANCH   6   7
BRANCH   6  11
HETATM   11  N           1     -17.441 -12.588  -5.007  0.00  0.00    -0.066 N 
HETATM   12  H           1     -17.048 -13.161  -5.788  0.00  0.00     0.275 HD
HETATM   13  H           1     -18.478 -12.713  -4.970  0.00  0.00     0.275 HD
HETATM   14  H           1     -17.019 -12.899  -4.102  0.00  0.00     0.275 HD
ENDBRANCH   6  11
ENDBRANCH   3   6
ENDBRANCH   1   2
BRANCH   1  15
HETATM   15  C           1     -19.277  -8.806  -3.548  0.00  0.00     0.077 C 
BRANCH  15  16
HETATM   16  C           1     -20.194  -9.463  -2.563  0.00  0.00    -0.028 A 
HETATM   17  C           1     -21.101  -8.799  -1.691  0.00  0.00    -0.002 A 
HETATM   18  C           1     -21.753  -9.785  -0.950  0.00  0.00     0.042 A 
HETATM   19  C           1     -21.428  -7.449  -1.461  0.00  0.00     0.014 A 
HETATM   20  C           1     -22.723  -9.487   0.015  0.00  0.00     0.030 A 
HETATM   21  N           1     -21.254 -10.999  -1.364  0.00  0.00    -0.365 N 
HETATM   22  C           1     -23.032  -8.140   0.226  0.00  0.00     0.002 A 
HETATM   23  C           1     -22.396  -7.134  -0.500  0.00  0.00     0.001 A 
HETATM   24  H           1     -21.553 -11.933  -0.987  0.00  0.00     0.165 HD
HETATM   25  C           1     -20.310 -10.816  -2.340  0.00  0.00     0.096 A 
ENDBRANCH  15  16
ENDBRANCH   1  15
BRANCH   1  26
HETATM   26  C           1     -20.595  -7.901  -5.439  0.00  0.00     0.197 C 
HETATM   27  O           1     -20.100  -7.075  -6.235  0.00  0.00    -0.646 OA
HETATM   28  O           1     -21.769  -7.755  -5.036  0.00  0.00    -0.646 OA
ENDBRANCH   1  26
TORSDOF 9
ENDMDL
MODEL 9
REMARK VINA RESULT:      -6.5      2.460      3.348
REMARK  9 active torsions:
REMARK  status: ('A' for Active; 'I' for Inactive)
REMARK    1  A    between atoms: C_2  and  C_10 
REMARK    2  A    between atoms: C_2  and  S_3 
REMARK    3  A    between atoms: N_7  and  C_27 
REMARK       I    between atoms: N_7  and  C_11 
REMARK    4  A    between atoms: C_8  and  C_27 
REMARK    5  A    between atoms: C_8  and  C_18 
REMARK    6  A    between atoms: C_10  and  C_23 
REMARK    7  A    between atoms: C_11  and  C_23 
REMARK    8  A    between atoms: N_16  and  C_23 
REMARK    9  A    between atoms: C_21  and  C_27 
ROOT
HETATM    1  C           1     -20.306  -9.476  -4.525  0.00  0.00     0.190 C 
ENDROOT
BRANCH   1   2
HETATM    2  N           1     -19.624  -9.829  -3.296  0.00  0.00    -0.344 N 
HETATM    3  C           1     -20.342 -10.259  -2.213  0.00  0.00     0.249 C 
HETATM    4  O           1     -20.570 -11.436  -2.068  0.00  0.00    -0.271 OA
HETATM    5  H           1     -18.616  -9.757  -3.238  0.00  0.00     0.163 HD
BRANCH   3   6
HETATM    6  C           1     -20.850  -9.261  -1.200  0.00  0.00     0.275 C 
BRANCH   6   7
HETATM    7  C           1     -22.366  -9.155  -1.307  0.00  0.00     0.053 C 
BRANCH   7   8
HETATM    8  C           1     -23.008  -9.781  -0.076  0.00  0.00     0.076 C 
BRANCH   8   9
HETATM    9  S           1     -23.905 -11.283  -0.558  0.00  0.00    -0.173 SA
HETATM   10  C           1     -22.936 -12.430   0.461  0.00  0.00     0.089 C 
ENDBRANCH   8   9
ENDBRANCH   7   8
ENDBRANCH   6   7
BRANCH   6  11
HETATM   11  N           1     -20.236  -7.919  -1.470  0.00  0.00    -0.066 N 
HETATM   12  H           1     -19.435  -7.765  -0.815  0.00  0.00     0.275 HD
HETATM   13  H           1     -20.952  -7.173  -1.327  0.00  0.00     0.275 HD
HETATM   14  H           1     -19.889  -7.887  -2.456  0.00  0.00     0.275 HD
ENDBRANCH   6  11
ENDBRANCH   3   6
ENDBRANCH   1   2
BRANCH   1  15
HETATM   15  C           1     -19.681  -8.216  -5.110  0.00  0.00     0.077 C 
BRANCH  15  16
HETATM   16  C           1     -20.751  -7.203  -5.371  0.00  0.00    -0.028 A 
HETATM   17  C           1     -20.703  -6.165  -6.344  0.00  0.00    -0.002 A 
HETATM   18  C           1     -21.902  -5.458  -6.249  0.00  0.00     0.042 A 
HETATM   19  C           1     -19.750  -5.760  -7.298  0.00  0.00     0.014 A 
HETATM   20  C           1     -22.198  -4.359  -7.065  0.00  0.00     0.030 A 
HETATM   21  N           1     -22.644  -6.051  -5.253  0.00  0.00    -0.365 N 
HETATM   22  C           1     -21.237  -3.976  -8.005  0.00  0.00     0.002 A 
HETATM   23  C           1     -20.030  -4.664  -8.123  0.00  0.00     0.001 A 
HETATM   24  H           1     -23.599  -5.739  -4.948  0.00  0.00     0.165 HD
HETATM   25  C           1     -21.957  -7.107  -4.715  0.00  0.00     0.096 A 
ENDBRANCH  15  16
ENDBRANCH   1  15
BRANCH   1  26
HETATM   26  C           1     -20.176 -10.608  -5.515  0.00  0.00     0.197 C 
HETATM   27  O           1     -21.047 -10.770  -6.397  0.00  0.00    -0.646 OA
HETATM   28  O           1     -19.199 -11.383  -5.453  0.00  0.00    -0.646 OA
ENDBRANCH   1  26
TORSDOF 9
ENDMDL
