MODEL 1
REMARK VINA RESULT:      -7.6      0.000      0.000
REMARK  6 active torsions:
REMARK  status: ('A' for Active; 'I' for Inactive)
REMARK    1  A    between atoms: C_3  and  C_9 
REMARK    2  A    between atoms: C_3  and  N_20 
REMARK    3  A    between atoms: C_5  and  C_17 
REMARK    4  A    between atoms: C_5  and  C_12 
REMARK    5  A    between atoms: N_11  and  C_17 
REMARK    6  A    between atoms: C_17  and  C_18 
REMARK       I    between atoms: C_18  and  N_20 
ROOT
HETATM    1  C           1     -21.183  -5.616  -6.972  0.00  0.00     0.278 C 
ENDROOT
BRANCH   1   2
HETATM    2  C           1     -20.834  -5.345  -5.514  0.00  0.00     0.083 C 
BRANCH   2   3
HETATM    3  C           1     -20.785  -6.638  -4.762  0.00  0.00    -0.028 A 
HETATM    4  C           1     -20.263  -7.825  -5.223  0.00  0.00     0.096 A 
HETATM    5  N           1     -20.411  -8.760  -4.234  0.00  0.00    -0.365 N 
HETATM    6  H           1     -20.103  -9.762  -4.304  0.00  0.00     0.165 HD
HETATM    7  C           1     -21.023  -8.198  -3.136  0.00  0.00     0.042 A 
HETATM    8  C           1     -21.373  -8.768  -1.906  0.00  0.00     0.030 A 
HETATM    9  C           1     -21.269  -6.860  -3.444  0.00  0.00    -0.002 A 
HETATM   10  C           1     -21.993  -7.940  -0.964  0.00  0.00     0.002 A 
HETATM   11  C           1     -22.251  -6.600  -1.244  0.00  0.00     0.001 A 
HETATM   12  C           1     -21.894  -6.047  -2.480  0.00  0.00     0.014 A 
ENDBRANCH   2   3
ENDBRANCH   1   2
BRANCH   1  13
HETATM   13  N           1     -20.032  -5.211  -7.844  0.00  0.00    -0.066 N 
HETATM   14  H           1     -20.080  -4.184  -8.029  0.00  0.00     0.275 HD
HETATM   15  H           1     -19.134  -5.437  -7.361  0.00  0.00     0.275 HD
HETATM   16  H           1     -20.082  -5.731  -8.750  0.00  0.00     0.275 HD
ENDBRANCH   1  13
BRANCH   1  17
HETATM   17  C           1     -22.407  -4.821  -7.353  0.00  0.00     0.249 C 
HETATM   18  O           1     -23.279  -4.628  -6.540  0.00  0.00    -0.271 OA
HETATM   19  N           1     -22.529  -4.319  -8.622  0.00  0.00    -0.349 N 
HETATM   20  H           1     -21.799  -4.481  -9.303  0.00  0.00     0.163 HD
BRANCH  19  21
HETATM   21  C           1     -23.706  -3.555  -8.988  0.00  0.00     0.235 C 
BRANCH  21  22
HETATM   22  C           1     -24.171  -3.974 -10.362  0.00  0.00     0.191 C 
HETATM   23  O           1     -23.717  -5.015 -10.884  0.00  0.00    -0.647 OA
HETATM   24  O           1     -25.011  -3.281 -10.976  0.00  0.00    -0.647 OA
ENDBRANCH  21  22
ENDBRANCH  19  21
ENDBRANCH   1  17
TORSDOF 6
ENDMDL
MODEL 2
REMARK VINA RESULT:      -7.2     11.762     13.694
REMARK  6 active torsions:
REMARK  status: ('A' for Active; 'I' for Inactive)
REMARK    1  A    between atoms: C_3  and  C_9 
REMARK    2  A    between atoms: C_3  and  N_20 
REMARK    3  A    between atoms: C_5  and  C_17 
REMARK    4  A    between atoms: C_5  and  C_12 
REMARK    5  A    between atoms: N_11  and  C_17 
REMARK    6  A    between atoms: C_17  and  C_18 
REMARK       I    between atoms: C_18  and  N_20 
ROOT
HETATM    1  C           1     -24.970  -7.418 -16.941  0.00  0.00     0.278 C 
ENDROOT
BRANCH   1   2
HETATM    2  C           1     -25.542  -6.229 -16.182  0.00  0.00     0.083 C 
BRANCH   2   3
HETATM    3  C           1     -27.028  -6.369 -16.078  0.00  0.00    -0.028 A 
HETATM    4  C           1     -27.707  -7.431 -15.524  0.00  0.00     0.096 A 
HETATM    5  N           1     -29.047  -7.171 -15.627  0.00  0.00    -0.365 N 
HETATM    6  H           1     -29.810  -7.808 -15.287  0.00  0.00     0.165 HD
HETATM    7  C           1     -29.251  -5.955 -16.240  0.00  0.00     0.042 A 
HETATM    8  C           1     -30.442  -5.289 -16.552  0.00  0.00     0.030 A 
HETATM    9  C           1     -27.993  -5.429 -16.535  0.00  0.00    -0.002 A 
HETATM   10  C           1     -30.339  -4.045 -17.185  0.00  0.00     0.002 A 
HETATM   11  C           1     -29.096  -3.495 -17.491  0.00  0.00     0.001 A 
HETATM   12  C           1     -27.915  -4.176 -17.172  0.00  0.00     0.014 A 
ENDBRANCH   2   3
ENDBRANCH   1   2
BRANCH   1  13
HETATM   13  N           1     -23.709  -7.879 -16.271  0.00  0.00    -0.066 N 
HETATM   14  H           1     -23.919  -8.702 -15.663  0.00  0.00     0.275 HD
HETATM   15  H           1     -23.010  -8.152 -16.998  0.00  0.00     0.275 HD
HETATM   16  H           1     -23.322  -7.104 -15.687  0.00  0.00     0.275 HD
ENDBRANCH   1  13
BRANCH   1  17
HETATM   17  C           1     -24.664  -7.010 -18.361  0.00  0.00     0.249 C 
HETATM   18  O           1     -23.544  -6.673 -18.664  0.00  0.00    -0.271 OA
HETATM   19  N           1     -25.656  -7.019 -19.305  0.00  0.00    -0.349 N 
HETATM   20  H           1     -26.593  -7.301 -19.052  0.00  0.00     0.163 HD
BRANCH  19  21
HETATM   21  C           1     -25.361  -6.626 -20.670  0.00  0.00     0.235 C 
BRANCH  21  22
HETATM   22  C           1     -25.344  -7.849 -21.554  0.00  0.00     0.191 C 
HETATM   23  O           1     -24.371  -8.060 -22.309  0.00  0.00    -0.647 OA
HETATM   24  O           1     -26.303  -8.651 -21.529  0.00  0.00    -0.647 OA
ENDBRANCH  21  22
ENDBRANCH  19  21
ENDBRANCH   1  17
TORSDOF 6
ENDMDL
MODEL 3
REMARK VINA RESULT:      -7.2     13.333     15.532
REMARK  6 active torsions:
REMARK  status: ('A' for Active; 'I' for Inactive)
REMARK    1  A    between atoms: C_3  and  C_9 
REMARK    2  A    between atoms: C_3  and  N_20 
REMARK    3  A    between atoms: C_5  and  C_17 
REMARK    4  A    between atoms: C_5  and  C_12 
REMARK    5  A    between atoms: N_11  and  C_17 
REMARK    6  A    between atoms: C_17  and  C_18 
REMARK       I    between atoms: C_18  and  N_20 
ROOT
HETATM    1  C           1     -36.094  -0.366 -11.160  0.00  0.00     0.278 C 
ENDROOT
BRANCH   1   2
HETATM    2  C           1     -36.204  -1.790 -10.631  0.00  0.00     0.083 C 
BRANCH   2   3
HETATM    3  C           1     -34.937  -2.531 -10.921  0.00  0.00    -0.028 A 
HETATM    4  C           1     -33.744  -1.973 -11.323  0.00  0.00     0.096 A 
HETATM    5  N           1     -32.839  -2.989 -11.480  0.00  0.00    -0.365 N 
HETATM    6  H           1     -31.841  -2.862 -11.782  0.00  0.00     0.165 HD
HETATM    7  C           1     -33.425  -4.199 -11.187  0.00  0.00     0.042 A 
HETATM    8  C           1     -32.889  -5.493 -11.209  0.00  0.00     0.030 A 
HETATM    9  C           1     -34.749  -3.938 -10.831  0.00  0.00    -0.002 A 
HETATM   10  C           1     -33.736  -6.549 -10.855  0.00  0.00     0.002 A 
HETATM   11  C           1     -35.062  -6.317 -10.496  0.00  0.00     0.001 A 
HETATM   12  C           1     -35.581  -5.017 -10.479  0.00  0.00     0.014 A 
ENDBRANCH   2   3
ENDBRANCH   1   2
BRANCH   1  13
HETATM   13  N           1     -36.655   0.588 -10.147  0.00  0.00    -0.066 N 
HETATM   14  H           1     -36.497   1.569 -10.467  0.00  0.00     0.275 HD
HETATM   15  H           1     -37.681   0.417 -10.041  0.00  0.00     0.275 HD
HETATM   16  H           1     -36.180   0.439  -9.229  0.00  0.00     0.275 HD
ENDBRANCH   1  13
BRANCH   1  17
HETATM   17  C           1     -36.870  -0.246 -12.448  0.00  0.00     0.249 C 
HETATM   18  O           1     -38.073  -0.353 -12.440  0.00  0.00    -0.271 OA
HETATM   19  N           1     -36.211  -0.016 -13.626  0.00  0.00    -0.349 N 
HETATM   20  H           1     -35.203   0.073 -13.633  0.00  0.00     0.163 HD
BRANCH  19  21
HETATM   21  C           1     -36.957   0.099 -14.864  0.00  0.00     0.235 C 
BRANCH  21  22
HETATM   22  C           1     -36.288  -0.728 -15.934  0.00  0.00     0.191 C 
HETATM   23  O           1     -36.749  -0.738 -17.096  0.00  0.00    -0.647 OA
HETATM   24  O           1     -35.271  -1.401 -15.659  0.00  0.00    -0.647 OA
ENDBRANCH  21  22
ENDBRANCH  19  21
ENDBRANCH   1  17
TORSDOF 6
ENDMDL
MODEL 4
REMARK VINA RESULT:      -7.0      1.968      3.099
REMARK  6 active torsions:
REMARK  status: ('A' for Active; 'I' for Inactive)
REMARK    1  A    between atoms: C_3  and  C_9 
REMARK    2  A    between atoms: C_3  and  N_20 
REMARK    3  A    between atoms: C_5  and  C_17 
REMARK    4  A    between atoms: C_5  and  C_12 
REMARK    5  A    between atoms: N_11  and  C_17 
REMARK    6  A    between atoms: C_17  and  C_18 
REMARK       I    between atoms: C_18  and  N_20 
ROOT
HETATM    1  C           1     -21.373  -7.688  -5.261  0.00  0.00     0.278 C 
ENDROOT
BRANCH   1   2
HETATM    2  C           1     -20.451  -7.674  -4.049  0.00  0.00     0.083 C 
BRANCH   2   3
HETATM    3  C           1     -21.215  -7.221  -2.845  0.00  0.00    -0.028 A 
HETATM    4  C           1     -21.514  -5.918  -2.517  0.00  0.00     0.096 A 
HETATM    5  N           1     -22.223  -5.933  -1.345  0.00  0.00    -0.365 N 
HETATM    6  H           1     -22.586  -5.080  -0.852  0.00  0.00     0.165 HD
HETATM    7  C           1     -22.389  -7.228  -0.906  0.00  0.00     0.042 A 
HETATM    8  C           1     -23.041  -7.720   0.232  0.00  0.00     0.030 A 
HETATM    9  C           1     -21.763  -8.059  -1.834  0.00  0.00    -0.002 A 
HETATM   10  C           1     -23.050  -9.106   0.421  0.00  0.00     0.002 A 
HETATM   11  C           1     -22.433  -9.960  -0.490  0.00  0.00     0.001 A 
HETATM   12  C           1     -21.785  -9.450  -1.622  0.00  0.00     0.014 A 
ENDBRANCH   2   3
ENDBRANCH   1   2
BRANCH   1  13
HETATM   13  N           1     -21.224  -8.993  -5.986  0.00  0.00    -0.066 N 
HETATM   14  H           1     -20.940  -9.737  -5.310  0.00  0.00     0.275 HD
HETATM   15  H           1     -22.136  -9.251  -6.426  0.00  0.00     0.275 HD
HETATM   16  H           1     -20.493  -8.898  -6.727  0.00  0.00     0.275 HD
ENDBRANCH   1  13
BRANCH   1  17
HETATM   17  C           1     -21.005  -6.555  -6.187  0.00  0.00     0.249 C 
HETATM   18  O           1     -20.047  -6.657  -6.915  0.00  0.00    -0.271 OA
HETATM   19  N           1     -21.757  -5.410  -6.200  0.00  0.00    -0.349 N 
HETATM   20  H           1     -22.559  -5.324  -5.589  0.00  0.00     0.163 HD
BRANCH  19  21
HETATM   21  C           1     -21.403  -4.321  -7.089  0.00  0.00     0.235 C 
BRANCH  21  22
HETATM   22  C           1     -22.286  -4.363  -8.312  0.00  0.00     0.191 C 
HETATM   23  O           1     -21.783  -4.562  -9.439  0.00  0.00    -0.647 OA
HETATM   24  O           1     -23.520  -4.200  -8.198  0.00  0.00    -0.647 OA
ENDBRANCH  21  22
ENDBRANCH  19  21
ENDBRANCH   1  17
TORSDOF 6
ENDMDL
MODEL 5
REMARK VINA RESULT:      -6.9      3.607      7.467
REMARK  6 active torsions:
REMARK  status: ('A' for Active; 'I' for Inactive)
REMARK    1  A    between atoms: C_3  and  C_9 
REMARK    2  A    between atoms: C_3  and  N_20 
REMARK    3  A    between atoms: C_5  and  C_17 
REMARK    4  A    between atoms: C_5  and  C_12 
REMARK    5  A    between atoms: N_11  and  C_17 
REMARK    6  A    between atoms: C_17  and  C_18 
REMARK       I    between atoms: C_18  and  N_20 
ROOT
HETATM    1  C           1     -21.591  -6.510  -5.254  0.00  0.00     0.278 C 
ENDROOT
BRANCH   1   2
HETATM    2  C           1     -20.781  -5.698  -6.255  0.00  0.00     0.083 C 
BRANCH   2   3
HETATM    3  C           1     -21.706  -5.019  -7.215  0.00  0.00    -0.028 A 
HETATM    4  C           1     -23.008  -4.648  -6.963  0.00  0.00     0.096 A 
HETATM    5  N           1     -23.503  -4.059  -8.096  0.00  0.00    -0.365 N 
HETATM    6  H           1     -24.475  -3.676  -8.197  0.00  0.00     0.165 HD
HETATM    7  C           1     -22.542  -4.042  -9.082  0.00  0.00     0.042 A 
HETATM    8  C           1     -22.599  -3.546 -10.390  0.00  0.00     0.030 A 
HETATM    9  C           1     -21.400  -4.642  -8.552  0.00  0.00    -0.002 A 
HETATM   10  C           1     -21.448  -3.669 -11.177  0.00  0.00     0.002 A 
HETATM   11  C           1     -20.293  -4.263 -10.674  0.00  0.00     0.001 A 
HETATM   12  C           1     -20.255  -4.754  -9.363  0.00  0.00     0.014 A 
ENDBRANCH   2   3
ENDBRANCH   1   2
BRANCH   1  13
HETATM   13  N           1     -21.583  -5.815  -3.924  0.00  0.00    -0.066 N 
HETATM   14  H           1     -21.032  -6.380  -3.240  0.00  0.00     0.275 HD
HETATM   15  H           1     -21.146  -4.872  -4.029  0.00  0.00     0.275 HD
HETATM   16  H           1     -22.564  -5.710  -3.580  0.00  0.00     0.275 HD
ENDBRANCH   1  13
BRANCH   1  17
HETATM   17  C           1     -20.982  -7.882  -5.108  0.00  0.00     0.249 C 
HETATM   18  O           1     -21.656  -8.803  -4.713  0.00  0.00    -0.271 OA
HETATM   19  N           1     -19.664  -8.083  -5.421  0.00  0.00    -0.349 N 
HETATM   20  H           1     -19.099  -7.311  -5.751  0.00  0.00     0.163 HD
BRANCH  19  21
HETATM   21  C           1     -19.078  -9.402  -5.280  0.00  0.00     0.235 C 
BRANCH  21  22
HETATM   22  C           1     -18.267  -9.459  -4.008  0.00  0.00     0.191 C 
HETATM   23  O           1     -17.019  -9.436  -4.061  0.00  0.00    -0.647 OA
HETATM   24  O           1     -18.845  -9.528  -2.902  0.00  0.00    -0.647 OA
ENDBRANCH  21  22
ENDBRANCH  19  21
ENDBRANCH   1  17
TORSDOF 6
ENDMDL
MODEL 6
REMARK VINA RESULT:      -6.8     13.238     14.866
REMARK  6 active torsions:
REMARK  status: ('A' for Active; 'I' for Inactive)
REMARK    1  A    between atoms: C_3  and  C_9 
REMARK    2  A    between atoms: C_3  and  N_20 
REMARK    3  A    between atoms: C_5  and  C_17 
REMARK    4  A    between atoms: C_5  and  C_12 
REMARK    5  A    between atoms: N_11  and  C_17 
REMARK    6  A    between atoms: C_17  and  C_18 
REMARK       I    between atoms: C_18  and  N_20 
ROOT
HETATM    1  C           1     -35.460  -1.923 -11.707  0.00  0.00     0.278 C 
ENDROOT
BRANCH   1   2
HETATM    2  C           1     -34.348  -2.220 -10.710  0.00  0.00     0.083 C 
BRANCH   2   3
HETATM    3  C           1     -33.705  -3.527 -11.052  0.00  0.00    -0.028 A 
HETATM    4  C           1     -32.587  -3.701 -11.836  0.00  0.00     0.096 A 
HETATM    5  N           1     -32.326  -5.044 -11.901  0.00  0.00    -0.365 N 
HETATM    6  H           1     -31.529  -5.475 -12.433  0.00  0.00     0.165 HD
HETATM    7  C           1     -33.258  -5.746 -11.170  0.00  0.00     0.042 A 
HETATM    8  C           1     -33.385  -7.123 -10.954  0.00  0.00     0.030 A 
HETATM    9  C           1     -34.139  -4.812 -10.624  0.00  0.00    -0.002 A 
HETATM   10  C           1     -34.448  -7.555 -10.153  0.00  0.00     0.002 A 
HETATM   11  C           1     -35.343  -6.645  -9.594  0.00  0.00     0.001 A 
HETATM   12  C           1     -35.200  -5.271  -9.822  0.00  0.00     0.014 A 
ENDBRANCH   2   3
ENDBRANCH   1   2
BRANCH   1  13
HETATM   13  N           1     -34.885  -1.226 -12.905  0.00  0.00    -0.066 N 
HETATM   14  H           1     -35.107  -1.774 -13.766  0.00  0.00     0.275 HD
HETATM   15  H           1     -35.299  -0.271 -12.982  0.00  0.00     0.275 HD
HETATM   16  H           1     -33.848  -1.150 -12.798  0.00  0.00     0.275 HD
ENDBRANCH   1  13
BRANCH   1  17
HETATM   17  C           1     -36.494  -1.036 -11.058  0.00  0.00     0.249 C 
HETATM   18  O           1     -37.666  -1.315 -11.141  0.00  0.00    -0.271 OA
HETATM   19  N           1     -36.103   0.086 -10.378  0.00  0.00    -0.349 N 
HETATM   20  H           1     -35.122   0.321 -10.309  0.00  0.00     0.163 HD
BRANCH  19  21
HETATM   21  C           1     -37.097   0.939  -9.755  0.00  0.00     0.235 C 
BRANCH  21  22
HETATM   22  C           1     -36.811   1.050  -8.277  0.00  0.00     0.191 C 
HETATM   23  O           1     -37.533   1.769  -7.553  0.00  0.00    -0.647 OA
HETATM   24  O           1     -35.853   0.421  -7.778  0.00  0.00    -0.647 OA
ENDBRANCH  21  22
ENDBRANCH  19  21
ENDBRANCH   1  17
TORSDOF 6
ENDMDL
MODEL 7
REMARK VINA RESULT:      -6.7      3.688      7.016
REMARK  6 active torsions:
REMARK  status: ('A' for Active; 'I' for Inactive)
REMARK    1  A    between atoms: C_3  and  C_9 
REMARK    2  A    between atoms: C_3  and  N_20 
REMARK    3  A    between atoms: C_5  and  C_17 
REMARK    4  A    between atoms: C_5  and  C_12 
REMARK    5  A    between atoms: N_11  and  C_17 
REMARK    6  A    between atoms: C_17  and  C_18 
REMARK       I    between atoms: C_18  and  N_20 
ROOT
HETATM    1  C           1     -21.509  -6.454  -5.610  0.00  0.00     0.278 C 
ENDROOT
BRANCH   1   2
HETATM    2  C           1     -20.807  -5.107  -5.721  0.00  0.00     0.083 C 
BRANCH   2   3
HETATM    3  C           1     -20.640  -4.747  -7.163  0.00  0.00    -0.028 A 
HETATM    4  C           1     -19.452  -4.702  -7.856  0.00  0.00     0.096 A 
HETATM    5  N           1     -19.732  -4.331  -9.145  0.00  0.00    -0.365 N 
HETATM    6  H           1     -19.016  -4.213  -9.905  0.00  0.00     0.165 HD
HETATM    7  C           1     -21.086  -4.134  -9.300  0.00  0.00     0.042 A 
HETATM    8  C           1     -21.820  -3.753 -10.429  0.00  0.00     0.030 A 
HETATM    9  C           1     -21.681  -4.390  -8.064  0.00  0.00    -0.002 A 
HETATM   10  C           1     -23.207  -3.631 -10.287  0.00  0.00     0.002 A 
HETATM   11  C           1     -23.828  -3.881  -9.065  0.00  0.00     0.001 A 
HETATM   12  C           1     -23.078  -4.261  -7.946  0.00  0.00     0.014 A 
ENDBRANCH   2   3
ENDBRANCH   1   2
BRANCH   1  13
HETATM   13  N           1     -22.806  -6.282  -4.875  0.00  0.00    -0.066 N 
HETATM   14  H           1     -22.631  -6.318  -3.846  0.00  0.00     0.275 HD
HETATM   15  H           1     -23.226  -5.358  -5.124  0.00  0.00     0.275 HD
HETATM   16  H           1     -23.463  -7.048  -5.144  0.00  0.00     0.275 HD
ENDBRANCH   1  13
BRANCH   1  17
HETATM   17  C           1     -20.630  -7.420  -4.856  0.00  0.00     0.249 C 
HETATM   18  O           1     -20.741  -7.531  -3.659  0.00  0.00    -0.271 OA
HETATM   19  N           1     -19.704  -8.172  -5.530  0.00  0.00    -0.349 N 
HETATM   20  H           1     -19.610  -8.079  -6.533  0.00  0.00     0.163 HD
BRANCH  19  21
HETATM   21  C           1     -18.858  -9.100  -4.806  0.00  0.00     0.235 C 
BRANCH  21  22
HETATM   22  C           1     -17.967  -9.834  -5.779  0.00  0.00     0.191 C 
HETATM   23  O           1     -18.472 -10.510  -6.701  0.00  0.00    -0.647 OA
HETATM   24  O           1     -16.724  -9.762  -5.664  0.00  0.00    -0.647 OA
ENDBRANCH  21  22
ENDBRANCH  19  21
ENDBRANCH   1  17
TORSDOF 6
ENDMDL
MODEL 8
REMARK VINA RESULT:      -6.6     11.775     14.120
REMARK  6 active torsions:
REMARK  status: ('A' for Active; 'I' for Inactive)
REMARK    1  A    between atoms: C_3  and  C_9 
REMARK    2  A    between atoms: C_3  and  N_20 
REMARK    3  A    between atoms: C_5  and  C_17 
REMARK    4  A    between atoms: C_5  and  C_12 
REMARK    5  A    between atoms: N_11  and  C_17 
REMARK    6  A    between atoms: C_17  and  C_18 
REMARK       I    between atoms: C_18  and  N_20 
ROOT
HETATM    1  C           1     -25.767  -6.768 -16.435  0.00  0.00     0.278 C 
ENDROOT
BRANCH   1   2
HETATM    2  C           1     -26.508  -5.491 -16.807  0.00  0.00     0.083 C 
BRANCH   2   3
HETATM    3  C           1     -27.972  -5.669 -16.553  0.00  0.00    -0.028 A 
HETATM    4  C           1     -28.681  -5.150 -15.494  0.00  0.00     0.096 A 
HETATM    5  N           1     -29.985  -5.543 -15.630  0.00  0.00    -0.365 N 
HETATM    6  H           1     -30.760  -5.294 -14.965  0.00  0.00     0.165 HD
HETATM    7  C           1     -30.136  -6.311 -16.763  0.00  0.00     0.042 A 
HETATM    8  C           1     -31.277  -6.922 -17.296  0.00  0.00     0.030 A 
HETATM    9  C           1     -28.880  -6.406 -17.363  0.00  0.00    -0.002 A 
HETATM   10  C           1     -31.126  -7.652 -18.480  0.00  0.00     0.002 A 
HETATM   11  C           1     -29.884  -7.763 -19.101  0.00  0.00     0.001 A 
HETATM   12  C           1     -28.753  -7.145 -18.554  0.00  0.00     0.014 A 
ENDBRANCH   2   3
ENDBRANCH   1   2
BRANCH   1  13
HETATM   13  N           1     -24.980  -6.541 -15.178  0.00  0.00    -0.066 N 
HETATM   14  H           1     -24.682  -5.541 -15.130  0.00  0.00     0.275 HD
HETATM   15  H           1     -25.576  -6.766 -14.350  0.00  0.00     0.275 HD
HETATM   16  H           1     -24.136  -7.157 -15.180  0.00  0.00     0.275 HD
ENDBRANCH   1  13
BRANCH   1  17
HETATM   17  C           1     -24.829  -7.151 -17.553  0.00  0.00     0.249 C 
HETATM   18  O           1     -23.712  -7.534 -17.299  0.00  0.00    -0.271 OA
HETATM   19  N           1     -25.244  -7.063 -18.855  0.00  0.00    -0.349 N 
HETATM   20  H           1     -26.179  -6.743 -19.068  0.00  0.00     0.163 HD
BRANCH  19  21
HETATM   21  C           1     -24.342  -7.431 -19.929  0.00  0.00     0.235 C 
BRANCH  21  22
HETATM   22  C           1     -25.143  -7.883 -21.126  0.00  0.00     0.191 C 
HETATM   23  O           1     -24.606  -7.934 -22.254  0.00  0.00    -0.647 OA
HETATM   24  O           1     -26.342  -8.208 -20.989  0.00  0.00    -0.647 OA
ENDBRANCH  21  22
ENDBRANCH  19  21
ENDBRANCH   1  17
TORSDOF 6
ENDMDL
MODEL 9
REMARK VINA RESULT:      -6.6      3.296      7.550
REMARK  6 active torsions:
REMARK  status: ('A' for Active; 'I' for Inactive)
REMARK    1  A    between atoms: C_3  and  C_9 
REMARK    2  A    between atoms: C_3  and  N_20 
REMARK    3  A    between atoms: C_5  and  C_17 
REMARK    4  A    between atoms: C_5  and  C_12 
REMARK    5  A    between atoms: N_11  and  C_17 
REMARK    6  A    between atoms: C_17  and  C_18 
REMARK       I    between atoms: C_18  and  N_20 
ROOT
HETATM    1  C           1     -21.294  -7.032  -4.369  0.00  0.00     0.278 C 
ENDROOT
BRANCH   1   2
HETATM    2  C           1     -22.130  -6.125  -5.261  0.00  0.00     0.083 C 
BRANCH   2   3
HETATM    3  C           1     -21.326  -5.718  -6.456  0.00  0.00    -0.028 A 
HETATM    4  C           1     -19.990  -5.979  -6.661  0.00  0.00     0.096 A 
HETATM    5  N           1     -19.639  -5.440  -7.870  0.00  0.00    -0.365 N 
HETATM    6  H           1     -18.677  -5.483  -8.290  0.00  0.00     0.165 HD
HETATM    7  C           1     -20.727  -4.833  -8.455  0.00  0.00     0.042 A 
HETATM    8  C           1     -20.839  -4.159  -9.677  0.00  0.00     0.030 A 
HETATM    9  C           1     -21.804  -4.994  -7.583  0.00  0.00    -0.002 A 
HETATM   10  C           1     -22.092  -3.638 -10.015  0.00  0.00     0.002 A 
HETATM   11  C           1     -23.185  -3.784  -9.164  0.00  0.00     0.001 A 
HETATM   12  C           1     -23.055  -4.460  -7.945  0.00  0.00     0.014 A 
ENDBRANCH   2   3
ENDBRANCH   1   2
BRANCH   1  13
HETATM   13  N           1     -21.534  -8.464  -4.748  0.00  0.00    -0.066 N 
HETATM   14  H           1     -22.363  -8.828  -4.227  0.00  0.00     0.275 HD
HETATM   15  H           1     -21.713  -8.525  -5.775  0.00  0.00     0.275 HD
HETATM   16  H           1     -20.692  -9.034  -4.505  0.00  0.00     0.275 HD
ENDBRANCH   1  13
BRANCH   1  17
HETATM   17  C           1     -21.687  -6.822  -2.927  0.00  0.00     0.249 C 
HETATM   18  O           1     -21.998  -5.720  -2.541  0.00  0.00    -0.271 OA
HETATM   19  N           1     -21.690  -7.879  -2.057  0.00  0.00    -0.349 N 
HETATM   20  H           1     -21.429  -8.802  -2.381  0.00  0.00     0.163 HD
BRANCH  19  21
HETATM   21  C           1     -22.067  -7.677  -0.672  0.00  0.00     0.235 C 
BRANCH  21  22
HETATM   22  C           1     -21.341  -8.674   0.198  0.00  0.00     0.191 C 
HETATM   23  O           1     -20.816  -9.686  -0.315  0.00  0.00    -0.647 OA
HETATM   24  O           1     -21.263  -8.486   1.432  0.00  0.00    -0.647 OA
ENDBRANCH  21  22
ENDBRANCH  19  21
ENDBRANCH   1  17
TORSDOF 6
ENDMDL
