MODEL 1
REMARK VINA RESULT:      -7.8      0.000      0.000
REMARK  18 active torsions:
REMARK  status: ('A' for Active; 'I' for Inactive)
REMARK       I    between atoms: N_1  and  C_41 
REMARK    1  A    between atoms: N_2  and  C_23 
REMARK    2  A    between atoms: C_6  and  O_7 
REMARK    3  A    between atoms: O_7  and  P_8 
REMARK    4  A    between atoms: P_8  and  O_10 
REMARK    5  A    between atoms: N_14  and  C_35 
REMARK    6  A    between atoms: N_14  and  C_15 
REMARK    7  A    between atoms: C_15  and  C_16 
REMARK    8  A    between atoms: C_16  and  C_17 
REMARK    9  A    between atoms: C_17  and  C_18 
REMARK   10  A    between atoms: C_17  and  N_21 
REMARK       I    between atoms: N_21  and  C_22 
REMARK   11  A    between atoms: C_22  and  C_23 
REMARK   12  A    between atoms: C_23  and  C_30 
REMARK   13  A    between atoms: C_26  and  C_30 
REMARK   14  A    between atoms: C_26  and  C_27 
REMARK   15  A    between atoms: C_27  and  N_40 
REMARK   16  A    between atoms: C_33  and  C_35 
REMARK   17  A    between atoms: C_35  and  C_36 
REMARK   18  A    between atoms: C_36  and  C_37 
REMARK       I    between atoms: N_40  and  C_41 
ROOT
HETATM    1  C           1     -21.581  -7.825  -0.840  0.00  0.00     0.187 C 
ENDROOT
BRANCH   1   2
HETATM    2  C           1     -22.142  -6.531  -1.417  0.00  0.00     0.066 C 
BRANCH   2   3
HETATM    3  C           1     -22.189  -6.630  -2.936  0.00  0.00     0.273 C 
BRANCH   3   4
HETATM    4  N           1     -21.054  -5.948  -3.497  0.00  0.00     0.098 N 
HETATM    5  H           1     -20.196  -6.391  -3.168  0.00  0.00     0.317 HD
BRANCH   4   6
HETATM    6  C           1     -21.137  -6.063  -4.927  0.00  0.00     0.324 C 
BRANCH   6   7
HETATM    7  C           1     -20.688  -7.441  -5.347  0.00  0.00     0.207 C 
HETATM    8  O           1     -21.382  -8.109  -6.143  0.00  0.00    -0.646 OA
HETATM    9  O           1     -19.621  -7.914  -4.899  0.00  0.00    -0.646 OA
ENDBRANCH   6   7
BRANCH   6  10
HETATM   10  C           1     -20.240  -5.016  -5.573  0.00  0.00     0.085 C 
BRANCH  10  11
HETATM   11  C           1     -20.768  -4.673  -6.931  0.00  0.00    -0.055 A 
HETATM   12  C           1     -22.036  -4.107  -7.063  0.00  0.00     0.010 A 
HETATM   13  C           1     -22.529  -3.787  -8.328  0.00  0.00     0.038 A 
HETATM   14  C           1     -21.753  -4.033  -9.461  0.00  0.00     0.081 A 
HETATM   15  C           1     -20.485  -4.598  -9.329  0.00  0.00     0.038 A 
HETATM   16  C           1     -19.992  -4.918  -8.064  0.00  0.00     0.010 A 
BRANCH  14  17
HETATM   17  O           1     -22.232  -3.721 -10.690  0.00  0.00    -0.247 OA
BRANCH  17  18
HETATM   18  P           1     -23.681  -4.300 -11.107  0.00  0.00     0.411 P 
HETATM   19  O           1     -24.702  -3.241 -10.946  0.00  0.00    -0.624 OA
HETATM   20  O           1     -24.022  -5.449 -10.239  0.00  0.00    -0.624 OA
BRANCH  18  21
HETATM   21  O           1     -23.644  -4.780 -12.649  0.00  0.00    -0.300 OA
HETATM   22  H           1     -24.538  -4.725 -12.942  0.00  0.00     0.223 HD
ENDBRANCH  18  21
ENDBRANCH  17  18
ENDBRANCH  14  17
ENDBRANCH  10  11
ENDBRANCH   6  10
ENDBRANCH   4   6
ENDBRANCH   3   4
ENDBRANCH   2   3
ENDBRANCH   1   2
BRANCH   1  23
HETATM   23  C           1     -22.147  -8.048   0.541  0.00  0.00     0.196 C 
HETATM   24  O           1     -21.377  -8.224   1.510  0.00  0.00    -0.646 OA
HETATM   25  O           1     -23.384  -8.054   0.716  0.00  0.00    -0.646 OA
ENDBRANCH   1  23
BRANCH   1  26
HETATM   26  N           1     -21.950  -8.936  -1.698  0.00  0.00    -0.345 N 
HETATM   27  C           1     -21.171 -10.060  -1.734  0.00  0.00     0.249 C 
HETATM   28  O           1     -20.176 -10.128  -1.053  0.00  0.00    -0.271 OA
HETATM   29  H           1     -22.784  -8.879  -2.269  0.00  0.00     0.163 HD
BRANCH  27  30
HETATM   30  C           1     -21.555 -11.215  -2.626  0.00  0.00     0.274 C 
BRANCH  30  31
HETATM   31  N           1     -22.791 -11.872  -2.088  0.00  0.00    -0.067 N 
HETATM   32  H           1     -23.415 -12.144  -2.881  0.00  0.00     0.275 HD
HETATM   33  H           1     -22.524 -12.725  -1.546  0.00  0.00     0.275 HD
HETATM   34  H           1     -23.296 -11.204  -1.462  0.00  0.00     0.275 HD
ENDBRANCH  30  31
BRANCH  30  35
HETATM   35  C           1     -21.825 -10.701  -4.034  0.00  0.00     0.044 C 
BRANCH  35  36
HETATM   36  C           1     -22.084 -11.877  -4.964  0.00  0.00     0.023 C 
BRANCH  36  37
HETATM   37  C           1     -20.829 -12.169  -5.778  0.00  0.00     0.138 C 
BRANCH  37  38
HETATM   38  N           1     -20.056 -10.930  -5.948  0.00  0.00    -0.227 N 
HETATM   39  H           1     -20.507 -10.001  -5.763  0.00  0.00     0.177 HD
HETATM   40  C           1     -18.847 -10.985  -6.317  0.00  0.00     0.665 C 
HETATM   41  N           1     -18.288 -12.138  -6.546  0.00  0.00    -0.235 N 
HETATM   42  N           1     -18.180  -9.919  -6.463  0.00  0.00    -0.235 N 
HETATM   43  H           1     -17.290 -12.182  -6.851  0.00  0.00     0.174 HD
HETATM   44  H           1     -18.838 -13.018  -6.425  0.00  0.00     0.174 HD
HETATM   45  H           1     -17.177  -9.965  -6.769  0.00  0.00     0.174 HD
HETATM   46  H           1     -18.631  -8.989  -6.278  0.00  0.00     0.174 HD
ENDBRANCH  37  38
ENDBRANCH  36  37
ENDBRANCH  35  36
ENDBRANCH  30  35
ENDBRANCH  27  30
ENDBRANCH   1  26
TORSDOF 18
ENDMDL
MODEL 2
REMARK VINA RESULT:      -7.5      4.301      9.057
REMARK  18 active torsions:
REMARK  status: ('A' for Active; 'I' for Inactive)
REMARK       I    between atoms: N_1  and  C_41 
REMARK    1  A    between atoms: N_2  and  C_23 
REMARK    2  A    between atoms: C_6  and  O_7 
REMARK    3  A    between atoms: O_7  and  P_8 
REMARK    4  A    between atoms: P_8  and  O_10 
REMARK    5  A    between atoms: N_14  and  C_35 
REMARK    6  A    between atoms: N_14  and  C_15 
REMARK    7  A    between atoms: C_15  and  C_16 
REMARK    8  A    between atoms: C_16  and  C_17 
REMARK    9  A    between atoms: C_17  and  C_18 
REMARK   10  A    between atoms: C_17  and  N_21 
REMARK       I    between atoms: N_21  and  C_22 
REMARK   11  A    between atoms: C_22  and  C_23 
REMARK   12  A    between atoms: C_23  and  C_30 
REMARK   13  A    between atoms: C_26  and  C_30 
REMARK   14  A    between atoms: C_26  and  C_27 
REMARK   15  A    between atoms: C_27  and  N_40 
REMARK   16  A    between atoms: C_33  and  C_35 
REMARK   17  A    between atoms: C_35  and  C_36 
REMARK   18  A    between atoms: C_36  and  C_37 
REMARK       I    between atoms: N_40  and  C_41 
ROOT
HETATM    1  C           1     -20.625  -9.542  -4.824  0.00  0.00     0.187 C 
ENDROOT
BRANCH   1   2
HETATM    2  C           1     -20.750  -9.788  -3.326  0.00  0.00     0.066 C 
BRANCH   2   3
HETATM    3  C           1     -19.479  -9.325  -2.627  0.00  0.00     0.273 C 
BRANCH   3   4
HETATM    4  N           1     -19.770  -8.183  -1.804  0.00  0.00     0.098 N 
HETATM    5  H           1     -19.559  -7.329  -2.322  0.00  0.00     0.317 HD
BRANCH   4   6
HETATM    6  C           1     -21.171  -8.217  -1.488  0.00  0.00     0.324 C 
BRANCH   6   7
HETATM    7  C           1     -21.787  -6.872  -1.783  0.00  0.00     0.207 C 
HETATM    8  O           1     -22.734  -6.451  -1.085  0.00  0.00    -0.646 OA
HETATM    9  O           1     -21.350  -6.178  -2.727  0.00  0.00    -0.646 OA
ENDBRANCH   6   7
BRANCH   6  10
HETATM   10  C           1     -21.350  -8.545  -0.011  0.00  0.00     0.085 C 
BRANCH  10  11
HETATM   11  C           1     -21.984  -9.895   0.129  0.00  0.00    -0.055 A 
HETATM   12  C           1     -21.237 -10.969   0.611  0.00  0.00     0.010 A 
HETATM   13  C           1     -21.827 -12.226   0.743  0.00  0.00     0.038 A 
HETATM   14  C           1     -23.164 -12.408   0.392  0.00  0.00     0.081 A 
HETATM   15  C           1     -23.912 -11.333  -0.090  0.00  0.00     0.038 A 
HETATM   16  C           1     -23.322 -10.076  -0.221  0.00  0.00     0.010 A 
BRANCH  14  17
HETATM   17  O           1     -23.738 -13.629   0.519  0.00  0.00    -0.247 OA
BRANCH  17  18
HETATM   18  P           1     -23.689 -14.626  -0.751  0.00  0.00     0.411 P 
HETATM   19  O           1     -25.060 -15.074  -1.080  0.00  0.00    -0.624 OA
HETATM   20  O           1     -22.852 -15.801  -0.423  0.00  0.00    -0.624 OA
BRANCH  18  21
HETATM   21  O           1     -23.059 -13.850  -2.019  0.00  0.00    -0.300 OA
HETATM   22  H           1     -22.215 -13.548  -1.726  0.00  0.00     0.223 HD
ENDBRANCH  18  21
ENDBRANCH  17  18
ENDBRANCH  14  17
ENDBRANCH  10  11
ENDBRANCH   6  10
ENDBRANCH   4   6
ENDBRANCH   3   4
ENDBRANCH   2   3
ENDBRANCH   1   2
BRANCH   1  23
HETATM   23  C           1     -21.085 -10.767  -5.575  0.00  0.00     0.196 C 
HETATM   24  O           1     -21.971 -11.503  -5.087  0.00  0.00    -0.646 OA
HETATM   25  O           1     -20.582 -11.045  -6.684  0.00  0.00    -0.646 OA
ENDBRANCH   1  23
BRANCH   1  26
HETATM   26  N           1     -21.449  -8.408  -5.198  0.00  0.00    -0.345 N 
HETATM   27  C           1     -20.892  -7.344  -5.854  0.00  0.00     0.249 C 
HETATM   28  O           1     -19.714  -7.348  -6.121  0.00  0.00    -0.271 OA
HETATM   29  H           1     -22.436  -8.405  -4.975  0.00  0.00     0.163 HD
BRANCH  27  30
HETATM   30  C           1     -21.749  -6.165  -6.243  0.00  0.00     0.274 C 
BRANCH  30  31
HETATM   31  N           1     -22.778  -5.923  -5.179  0.00  0.00    -0.067 N 
HETATM   32  H           1     -23.336  -6.794  -5.029  0.00  0.00     0.275 HD
HETATM   33  H           1     -22.302  -5.656  -4.288  0.00  0.00     0.275 HD
HETATM   34  H           1     -23.415  -5.150  -5.481  0.00  0.00     0.275 HD
ENDBRANCH  30  31
BRANCH  30  35
HETATM   35  C           1     -20.873  -4.928  -6.392  0.00  0.00     0.044 C 
BRANCH  35  36
HETATM   36  C           1     -21.629  -3.861  -7.172  0.00  0.00     0.023 C 
BRANCH  36  37
HETATM   37  C           1     -22.344  -4.505  -8.354  0.00  0.00     0.138 C 
BRANCH  37  38
HETATM   38  N           1     -23.695  -3.937  -8.477  0.00  0.00    -0.227 N 
HETATM   39  H           1     -24.128  -3.430  -7.667  0.00  0.00     0.177 HD
HETATM   40  C           1     -24.336  -4.059  -9.562  0.00  0.00     0.665 C 
HETATM   41  N           1     -23.799  -4.687 -10.567  0.00  0.00    -0.235 N 
HETATM   42  N           1     -25.498  -3.571  -9.670  0.00  0.00    -0.235 N 
HETATM   43  H           1     -24.328  -4.788 -11.462  0.00  0.00     0.174 HD
HETATM   44  H           1     -22.840  -5.091 -10.478  0.00  0.00     0.174 HD
HETATM   45  H           1     -26.030  -3.672 -10.570  0.00  0.00     0.174 HD
HETATM   46  H           1     -25.931  -3.063  -8.858  0.00  0.00     0.174 HD
ENDBRANCH  37  38
ENDBRANCH  36  37
ENDBRANCH  35  36
ENDBRANCH  30  35
ENDBRANCH  27  30
ENDBRANCH   1  26
TORSDOF 18
ENDMDL
MODEL 3
REMARK VINA RESULT:      -7.4      1.412      2.765
REMARK  18 active torsions:
REMARK  status: ('A' for Active; 'I' for Inactive)
REMARK       I    between atoms: N_1  and  C_41 
REMARK    1  A    between atoms: N_2  and  C_23 
REMARK    2  A    between atoms: C_6  and  O_7 
REMARK    3  A    between atoms: O_7  and  P_8 
REMARK    4  A    between atoms: P_8  and  O_10 
REMARK    5  A    between atoms: N_14  and  C_35 
REMARK    6  A    between atoms: N_14  and  C_15 
REMARK    7  A    between atoms: C_15  and  C_16 
REMARK    8  A    between atoms: C_16  and  C_17 
REMARK    9  A    between atoms: C_17  and  C_18 
REMARK   10  A    between atoms: C_17  and  N_21 
REMARK       I    between atoms: N_21  and  C_22 
REMARK   11  A    between atoms: C_22  and  C_23 
REMARK   12  A    between atoms: C_23  and  C_30 
REMARK   13  A    between atoms: C_26  and  C_30 
REMARK   14  A    between atoms: C_26  and  C_27 
REMARK   15  A    between atoms: C_27  and  N_40 
REMARK   16  A    between atoms: C_33  and  C_35 
REMARK   17  A    between atoms: C_35  and  C_36 
REMARK   18  A    between atoms: C_36  and  C_37 
REMARK       I    between atoms: N_40  and  C_41 
ROOT
HETATM    1  C           1     -21.529  -7.802  -0.985  0.00  0.00     0.187 C 
ENDROOT
BRANCH   1   2
HETATM    2  C           1     -21.937  -6.419  -1.476  0.00  0.00     0.066 C 
BRANCH   2   3
HETATM    3  C           1     -22.083  -6.439  -2.992  0.00  0.00     0.273 C 
BRANCH   3   4
HETATM    4  N           1     -20.901  -5.889  -3.597  0.00  0.00     0.098 N 
HETATM    5  H           1     -20.084  -6.412  -3.281  0.00  0.00     0.317 HD
BRANCH   4   6
HETATM    6  C           1     -21.035  -6.023  -5.021  0.00  0.00     0.324 C 
BRANCH   6   7
HETATM    7  C           1     -20.649  -7.422  -5.434  0.00  0.00     0.207 C 
HETATM    8  O           1     -21.487  -8.162  -5.994  0.00  0.00    -0.646 OA
HETATM    9  O           1     -19.492  -7.841  -5.214  0.00  0.00    -0.646 OA
ENDBRANCH   6   7
BRANCH   6  10
HETATM   10  C           1     -20.123  -5.019  -5.713  0.00  0.00     0.085 C 
BRANCH  10  11
HETATM   11  C           1     -20.705  -4.645  -7.040  0.00  0.00    -0.055 A 
HETATM   12  C           1     -21.961  -4.042  -7.105  0.00  0.00     0.010 A 
HETATM   13  C           1     -22.505  -3.692  -8.341  0.00  0.00     0.038 A 
HETATM   14  C           1     -21.791  -3.945  -9.513  0.00  0.00     0.081 A 
HETATM   15  C           1     -20.534  -4.547  -9.448  0.00  0.00     0.038 A 
HETATM   16  C           1     -19.991  -4.897  -8.212  0.00  0.00     0.010 A 
BRANCH  14  17
HETATM   17  O           1     -22.319  -3.606 -10.714  0.00  0.00    -0.247 OA
BRANCH  17  18
HETATM   18  P           1     -23.703  -4.309 -11.159  0.00  0.00     0.411 P 
HETATM   19  O           1     -24.816  -3.345 -11.014  0.00  0.00    -0.624 OA
HETATM   20  O           1     -23.956  -5.487 -10.300  0.00  0.00    -0.624 OA
BRANCH  18  21
HETATM   21  O           1     -23.596  -4.777 -12.702  0.00  0.00    -0.300 OA
HETATM   22  H           1     -22.888  -4.270 -13.061  0.00  0.00     0.223 HD
ENDBRANCH  18  21
ENDBRANCH  17  18
ENDBRANCH  14  17
ENDBRANCH  10  11
ENDBRANCH   6  10
ENDBRANCH   4   6
ENDBRANCH   3   4
ENDBRANCH   2   3
ENDBRANCH   1   2
BRANCH   1  23
HETATM   23  C           1     -22.197  -8.084   0.337  0.00  0.00     0.196 C 
HETATM   24  O           1     -23.439  -8.221   0.393  0.00  0.00    -0.646 OA
HETATM   25  O           1     -21.510  -8.182   1.376  0.00  0.00    -0.646 OA
ENDBRANCH   1  23
BRANCH   1  26
HETATM   26  N           1     -21.939  -8.799  -1.956  0.00  0.00    -0.345 N 
HETATM   27  C           1     -21.005  -9.619  -2.531  0.00  0.00     0.249 C 
HETATM   28  O           1     -19.841  -9.512  -2.230  0.00  0.00    -0.271 OA
HETATM   29  H           1     -22.915  -8.889  -2.208  0.00  0.00     0.163 HD
BRANCH  27  30
HETATM   30  C           1     -21.432 -10.655  -3.540  0.00  0.00     0.274 C 
BRANCH  30  31
HETATM   31  N           1     -20.397 -11.739  -3.612  0.00  0.00    -0.067 N 
HETATM   32  H           1     -20.677 -12.530  -2.990  0.00  0.00     0.275 HD
HETATM   33  H           1     -20.318 -12.081  -4.596  0.00  0.00     0.275 HD
HETATM   34  H           1     -19.474 -11.359  -3.299  0.00  0.00     0.275 HD
ENDBRANCH  30  31
BRANCH  30  35
HETATM   35  C           1     -22.766 -11.255  -3.118  0.00  0.00     0.044 C 
BRANCH  35  36
HETATM   36  C           1     -22.579 -12.729  -2.785  0.00  0.00     0.023 C 
BRANCH  36  37
HETATM   37  C           1     -22.932 -12.969  -1.322  0.00  0.00     0.138 C 
BRANCH  37  38
HETATM   38  N           1     -22.384 -11.880  -0.500  0.00  0.00    -0.227 N 
HETATM   39  H           1     -22.751 -10.903  -0.611  0.00  0.00     0.177 HD
HETATM   40  C           1     -21.472 -12.121   0.343  0.00  0.00     0.665 C 
HETATM   41  N           1     -21.018 -13.333   0.482  0.00  0.00    -0.235 N 
HETATM   42  N           1     -21.000 -11.184   1.052  0.00  0.00    -0.235 N 
HETATM   43  H           1     -20.265 -13.531   1.178  0.00  0.00     0.174 HD
HETATM   44  H           1     -21.407 -14.106  -0.103  0.00  0.00     0.174 HD
HETATM   45  H           1     -20.243 -11.384   1.751  0.00  0.00     0.174 HD
HETATM   46  H           1     -21.367 -10.206   0.940  0.00  0.00     0.174 HD
ENDBRANCH  37  38
ENDBRANCH  36  37
ENDBRANCH  35  36
ENDBRANCH  30  35
ENDBRANCH  27  30
ENDBRANCH   1  26
TORSDOF 18
ENDMDL
MODEL 4
REMARK VINA RESULT:      -7.1      1.262      1.865
REMARK  18 active torsions:
REMARK  status: ('A' for Active; 'I' for Inactive)
REMARK       I    between atoms: N_1  and  C_41 
REMARK    1  A    between atoms: N_2  and  C_23 
REMARK    2  A    between atoms: C_6  and  O_7 
REMARK    3  A    between atoms: O_7  and  P_8 
REMARK    4  A    between atoms: P_8  and  O_10 
REMARK    5  A    between atoms: N_14  and  C_35 
REMARK    6  A    between atoms: N_14  and  C_15 
REMARK    7  A    between atoms: C_15  and  C_16 
REMARK    8  A    between atoms: C_16  and  C_17 
REMARK    9  A    between atoms: C_17  and  C_18 
REMARK   10  A    between atoms: C_17  and  N_21 
REMARK       I    between atoms: N_21  and  C_22 
REMARK   11  A    between atoms: C_22  and  C_23 
REMARK   12  A    between atoms: C_23  and  C_30 
REMARK   13  A    between atoms: C_26  and  C_30 
REMARK   14  A    between atoms: C_26  and  C_27 
REMARK   15  A    between atoms: C_27  and  N_40 
REMARK   16  A    between atoms: C_33  and  C_35 
REMARK   17  A    between atoms: C_35  and  C_36 
REMARK   18  A    between atoms: C_36  and  C_37 
REMARK       I    between atoms: N_40  and  C_41 
ROOT
HETATM    1  C           1     -21.502  -7.830  -0.869  0.00  0.00     0.187 C 
ENDROOT
BRANCH   1   2
HETATM    2  C           1     -22.052  -6.508  -1.387  0.00  0.00     0.066 C 
BRANCH   2   3
HETATM    3  C           1     -22.181  -6.571  -2.903  0.00  0.00     0.273 C 
BRANCH   3   4
HETATM    4  N           1     -21.193  -5.719  -3.506  0.00  0.00     0.098 N 
HETATM    5  H           1     -20.269  -5.965  -3.149  0.00  0.00     0.317 HD
BRANCH   4   6
HETATM    6  C           1     -21.232  -5.939  -4.926  0.00  0.00     0.324 C 
BRANCH   6   7
HETATM    7  C           1     -20.798  -7.353  -5.228  0.00  0.00     0.207 C 
HETATM    8  O           1     -19.805  -7.839  -4.645  0.00  0.00    -0.646 OA
HETATM    9  O           1     -21.432  -8.037  -6.060  0.00  0.00    -0.646 OA
ENDBRANCH   6   7
BRANCH   6  10
HETATM   10  C           1     -20.292  -4.960  -5.617  0.00  0.00     0.085 C 
BRANCH  10  11
HETATM   11  C           1     -20.822  -4.634  -6.979  0.00  0.00    -0.055 A 
HETATM   12  C           1     -19.994  -4.747  -8.095  0.00  0.00     0.010 A 
HETATM   13  C           1     -20.488  -4.444  -9.364  0.00  0.00     0.038 A 
HETATM   14  C           1     -21.810  -4.028  -9.516  0.00  0.00     0.081 A 
HETATM   15  C           1     -22.639  -3.915  -8.399  0.00  0.00     0.038 A 
HETATM   16  C           1     -22.145  -4.218  -7.131  0.00  0.00     0.010 A 
BRANCH  14  17
HETATM   17  O           1     -22.290  -3.733 -10.748  0.00  0.00    -0.247 OA
BRANCH  17  18
HETATM   18  P           1     -23.702  -4.383 -11.187  0.00  0.00     0.411 P 
HETATM   19  O           1     -24.783  -3.390 -10.997  0.00  0.00    -0.624 OA
HETATM   20  O           1     -23.977  -5.575 -10.353  0.00  0.00    -0.624 OA
BRANCH  18  21
HETATM   21  O           1     -23.636  -4.815 -12.742  0.00  0.00    -0.300 OA
HETATM   22  H           1     -23.838  -4.029 -13.221  0.00  0.00     0.223 HD
ENDBRANCH  18  21
ENDBRANCH  17  18
ENDBRANCH  14  17
ENDBRANCH  10  11
ENDBRANCH   6  10
ENDBRANCH   4   6
ENDBRANCH   3   4
ENDBRANCH   2   3
ENDBRANCH   1   2
BRANCH   1  23
HETATM   23  C           1     -22.127  -8.145   0.468  0.00  0.00     0.196 C 
HETATM   24  O           1     -21.399  -8.372   1.460  0.00  0.00    -0.646 OA
HETATM   25  O           1     -23.370  -8.178   0.585  0.00  0.00    -0.646 OA
ENDBRANCH   1  23
BRANCH   1  26
HETATM   26  N           1     -21.818  -8.887  -1.810  0.00  0.00    -0.345 N 
HETATM   27  C           1     -20.919  -9.895  -2.034  0.00  0.00     0.249 C 
HETATM   28  O           1     -19.864  -9.904  -1.448  0.00  0.00    -0.271 OA
HETATM   29  H           1     -22.703  -8.880  -2.301  0.00  0.00     0.163 HD
BRANCH  27  30
HETATM   30  C           1     -21.249 -10.995  -3.013  0.00  0.00     0.274 C 
BRANCH  30  31
HETATM   31  N           1     -21.892 -10.403  -4.232  0.00  0.00    -0.067 N 
HETATM   32  H           1     -22.073 -11.156  -4.932  0.00  0.00     0.275 HD
HETATM   33  H           1     -22.797  -9.952  -3.964  0.00  0.00     0.275 HD
HETATM   34  H           1     -21.255  -9.686  -4.649  0.00  0.00     0.275 HD
ENDBRANCH  30  31
BRANCH  30  35
HETATM   35  C           1     -19.969 -11.716  -3.415  0.00  0.00     0.044 C 
BRANCH  35  36
HETATM   36  C           1     -19.564 -11.289  -4.819  0.00  0.00     0.023 C 
BRANCH  36  37
HETATM   37  C           1     -19.298 -12.524  -5.671  0.00  0.00     0.138 C 
BRANCH  37  38
HETATM   38  N           1     -20.577 -13.115  -6.091  0.00  0.00    -0.227 N 
HETATM   39  H           1     -21.451 -12.533  -6.085  0.00  0.00     0.177 HD
HETATM   40  C           1     -20.624 -14.324  -6.461  0.00  0.00     0.665 C 
HETATM   41  N           1     -19.541 -15.045  -6.468  0.00  0.00    -0.235 N 
HETATM   42  N           1     -21.725 -14.834  -6.822  0.00  0.00    -0.235 N 
HETATM   43  H           1     -19.580 -16.043  -6.773  0.00  0.00     0.174 HD
HETATM   44  H           1     -18.632 -14.624  -6.169  0.00  0.00     0.174 HD
HETATM   45  H           1     -21.764 -15.837  -7.129  0.00  0.00     0.174 HD
HETATM   46  H           1     -22.599 -14.252  -6.817  0.00  0.00     0.174 HD
ENDBRANCH  37  38
ENDBRANCH  36  37
ENDBRANCH  35  36
ENDBRANCH  30  35
ENDBRANCH  27  30
ENDBRANCH   1  26
TORSDOF 18
ENDMDL
MODEL 5
REMARK VINA RESULT:      -6.7      2.264      3.952
REMARK  18 active torsions:
REMARK  status: ('A' for Active; 'I' for Inactive)
REMARK       I    between atoms: N_1  and  C_41 
REMARK    1  A    between atoms: N_2  and  C_23 
REMARK    2  A    between atoms: C_6  and  O_7 
REMARK    3  A    between atoms: O_7  and  P_8 
REMARK    4  A    between atoms: P_8  and  O_10 
REMARK    5  A    between atoms: N_14  and  C_35 
REMARK    6  A    between atoms: N_14  and  C_15 
REMARK    7  A    between atoms: C_15  and  C_16 
REMARK    8  A    between atoms: C_16  and  C_17 
REMARK    9  A    between atoms: C_17  and  C_18 
REMARK   10  A    between atoms: C_17  and  N_21 
REMARK       I    between atoms: N_21  and  C_22 
REMARK   11  A    between atoms: C_22  and  C_23 
REMARK   12  A    between atoms: C_23  and  C_30 
REMARK   13  A    between atoms: C_26  and  C_30 
REMARK   14  A    between atoms: C_26  and  C_27 
REMARK   15  A    between atoms: C_27  and  N_40 
REMARK   16  A    between atoms: C_33  and  C_35 
REMARK   17  A    between atoms: C_35  and  C_36 
REMARK   18  A    between atoms: C_36  and  C_37 
REMARK       I    between atoms: N_40  and  C_41 
ROOT
HETATM    1  C           1     -19.849  -9.720  -4.187  0.00  0.00     0.187 C 
ENDROOT
BRANCH   1   2
HETATM    2  C           1     -19.559  -8.637  -5.218  0.00  0.00     0.066 C 
BRANCH   2   3
HETATM    3  C           1     -20.835  -8.303  -5.979  0.00  0.00     0.273 C 
BRANCH   3   4
HETATM    4  N           1     -20.810  -6.922  -6.377  0.00  0.00     0.098 N 
HETATM    5  H           1     -21.750  -6.630  -6.647  0.00  0.00     0.317 HD
BRANCH   4   6
HETATM    6  C           1     -20.373  -6.149  -5.247  0.00  0.00     0.324 C 
BRANCH   6   7
HETATM    7  C           1     -21.492  -6.054  -4.239  0.00  0.00     0.207 C 
HETATM    8  O           1     -21.232  -5.838  -3.036  0.00  0.00    -0.646 OA
HETATM    9  O           1     -22.678  -6.192  -4.608  0.00  0.00    -0.646 OA
ENDBRANCH   6   7
BRANCH   6  10
HETATM   10  C           1     -19.986  -4.750  -5.710  0.00  0.00     0.085 C 
BRANCH  10  11
HETATM   11  C           1     -20.595  -4.480  -7.051  0.00  0.00    -0.055 A 
HETATM   12  C           1     -21.870  -3.921  -7.137  0.00  0.00     0.010 A 
HETATM   13  C           1     -22.438  -3.668  -8.386  0.00  0.00     0.038 A 
HETATM   14  C           1     -21.730  -3.975  -9.548  0.00  0.00     0.081 A 
HETATM   15  C           1     -20.455  -4.534  -9.462  0.00  0.00     0.038 A 
HETATM   16  C           1     -19.887  -4.787  -8.213  0.00  0.00     0.010 A 
BRANCH  14  17
HETATM   17  O           1     -22.282  -3.730 -10.762  0.00  0.00    -0.247 OA
BRANCH  17  18
HETATM   18  P           1     -23.750  -4.333 -11.062  0.00  0.00     0.411 P 
HETATM   19  O           1     -23.828  -4.761 -12.477  0.00  0.00    -0.624 OA
HETATM   20  O           1     -24.772  -3.293 -10.806  0.00  0.00    -0.624 OA
BRANCH  18  21
HETATM   21  O           1     -24.018  -5.602 -10.100  0.00  0.00    -0.300 OA
HETATM   22  H           1     -24.583  -6.169 -10.598  0.00  0.00     0.223 HD
ENDBRANCH  18  21
ENDBRANCH  17  18
ENDBRANCH  14  17
ENDBRANCH  10  11
ENDBRANCH   6  10
ENDBRANCH   4   6
ENDBRANCH   3   4
ENDBRANCH   2   3
ENDBRANCH   1   2
BRANCH   1  23
HETATM   23  C           1     -18.694 -10.689  -4.136  0.00  0.00     0.196 C 
HETATM   24  O           1     -18.878 -11.860  -3.736  0.00  0.00    -0.646 OA
HETATM   25  O           1     -17.555 -10.323  -4.495  0.00  0.00    -0.646 OA
ENDBRANCH   1  23
BRANCH   1  26
HETATM   26  N           1     -20.026  -9.110  -2.883  0.00  0.00    -0.345 N 
HETATM   27  C           1     -21.168  -9.346  -2.167  0.00  0.00     0.249 C 
HETATM   28  O           1     -22.029 -10.061  -2.620  0.00  0.00    -0.271 OA
HETATM   29  H           1     -19.304  -8.511  -2.503  0.00  0.00     0.163 HD
BRANCH  27  30
HETATM   30  C           1     -21.352  -8.711  -0.810  0.00  0.00     0.274 C 
BRANCH  30  31
HETATM   31  N           1     -22.187  -7.473  -0.946  0.00  0.00    -0.067 N 
HETATM   32  H           1     -22.709  -7.305  -0.057  0.00  0.00     0.275 HD
HETATM   33  H           1     -21.567  -6.655  -1.147  0.00  0.00     0.275 HD
HETATM   34  H           1     -22.867  -7.597  -1.731  0.00  0.00     0.275 HD
ENDBRANCH  30  31
BRANCH  30  35
HETATM   35  C           1     -22.050  -9.695   0.120  0.00  0.00     0.044 C 
BRANCH  35  36
HETATM   36  C           1     -21.008 -10.538   0.842  0.00  0.00     0.023 C 
BRANCH  36  37
HETATM   37  C           1     -21.372 -12.013   0.717  0.00  0.00     0.138 C 
BRANCH  37  38
HETATM   38  N           1     -21.726 -12.314  -0.678  0.00  0.00    -0.227 N 
HETATM   39  H           1     -22.638 -11.977  -1.072  0.00  0.00     0.177 HD
HETATM   40  C           1     -20.929 -12.978  -1.403  0.00  0.00     0.665 C 
HETATM   41  N           1     -19.798 -13.394  -0.915  0.00  0.00    -0.235 N 
HETATM   42  N           1     -21.233 -13.237  -2.604  0.00  0.00    -0.235 N 
HETATM   43  H           1     -19.141 -13.943  -1.514  0.00  0.00     0.174 HD
HETATM   44  H           1     -19.547 -13.180   0.077  0.00  0.00     0.174 HD
HETATM   45  H           1     -20.572 -13.788  -3.207  0.00  0.00     0.174 HD
HETATM   46  H           1     -22.146 -12.900  -2.999  0.00  0.00     0.174 HD
ENDBRANCH  37  38
ENDBRANCH  36  37
ENDBRANCH  35  36
ENDBRANCH  30  35
ENDBRANCH  27  30
ENDBRANCH   1  26
TORSDOF 18
ENDMDL
MODEL 6
REMARK VINA RESULT:      -6.7      1.735      3.357
REMARK  18 active torsions:
REMARK  status: ('A' for Active; 'I' for Inactive)
REMARK       I    between atoms: N_1  and  C_41 
REMARK    1  A    between atoms: N_2  and  C_23 
REMARK    2  A    between atoms: C_6  and  O_7 
REMARK    3  A    between atoms: O_7  and  P_8 
REMARK    4  A    between atoms: P_8  and  O_10 
REMARK    5  A    between atoms: N_14  and  C_35 
REMARK    6  A    between atoms: N_14  and  C_15 
REMARK    7  A    between atoms: C_15  and  C_16 
REMARK    8  A    between atoms: C_16  and  C_17 
REMARK    9  A    between atoms: C_17  and  C_18 
REMARK   10  A    between atoms: C_17  and  N_21 
REMARK       I    between atoms: N_21  and  C_22 
REMARK   11  A    between atoms: C_22  and  C_23 
REMARK   12  A    between atoms: C_23  and  C_30 
REMARK   13  A    between atoms: C_26  and  C_30 
REMARK   14  A    between atoms: C_26  and  C_27 
REMARK   15  A    between atoms: C_27  and  N_40 
REMARK   16  A    between atoms: C_33  and  C_35 
REMARK   17  A    between atoms: C_35  and  C_36 
REMARK   18  A    between atoms: C_36  and  C_37 
REMARK       I    between atoms: N_40  and  C_41 
ROOT
HETATM    1  C           1     -21.531  -8.629  -0.992  0.00  0.00     0.187 C 
ENDROOT
BRANCH   1   2
HETATM    2  C           1     -21.563  -7.239  -1.615  0.00  0.00     0.066 C 
BRANCH   2   3
HETATM    3  C           1     -21.847  -7.357  -3.106  0.00  0.00     0.273 C 
BRANCH   3   4
HETATM    4  N           1     -20.864  -6.612  -3.843  0.00  0.00     0.098 N 
HETATM    5  H           1     -19.951  -6.724  -3.400  0.00  0.00     0.317 HD
BRANCH   4   6
HETATM    6  C           1     -20.819  -7.145  -5.177  0.00  0.00     0.324 C 
BRANCH   6   7
HETATM    7  C           1     -20.261  -8.547  -5.139  0.00  0.00     0.207 C 
HETATM    8  O           1     -19.235  -8.793  -4.470  0.00  0.00    -0.646 OA
HETATM    9  O           1     -20.826  -9.461  -5.778  0.00  0.00    -0.646 OA
ENDBRANCH   6   7
BRANCH   6  10
HETATM   10  C           1     -19.927  -6.266  -6.045  0.00  0.00     0.085 C 
BRANCH  10  11
HETATM   11  C           1     -20.777  -5.458  -6.976  0.00  0.00    -0.055 A 
HETATM   12  C           1     -22.052  -5.053  -6.582  0.00  0.00     0.010 A 
HETATM   13  C           1     -22.844  -4.300  -7.449  0.00  0.00     0.038 A 
HETATM   14  C           1     -22.358  -3.951  -8.710  0.00  0.00     0.081 A 
HETATM   15  C           1     -21.082  -4.354  -9.103  0.00  0.00     0.038 A 
HETATM   16  C           1     -20.291  -5.108  -8.236  0.00  0.00     0.010 A 
BRANCH  14  17
HETATM   17  O           1     -23.127  -3.218  -9.552  0.00  0.00    -0.247 OA
BRANCH  17  18
HETATM   18  P           1     -24.228  -3.995 -10.443  0.00  0.00     0.411 P 
HETATM   19  O           1     -23.556  -4.687 -11.566  0.00  0.00    -0.624 OA
HETATM   20  O           1     -25.206  -3.022 -10.978  0.00  0.00    -0.624 OA
BRANCH  18  21
HETATM   21  O           1     -24.993  -5.081  -9.524  0.00  0.00    -0.300 OA
HETATM   22  H           1     -25.395  -5.676 -10.135  0.00  0.00     0.223 HD
ENDBRANCH  18  21
ENDBRANCH  17  18
ENDBRANCH  14  17
ENDBRANCH  10  11
ENDBRANCH   6  10
ENDBRANCH   4   6
ENDBRANCH   3   4
ENDBRANCH   2   3
ENDBRANCH   1   2
BRANCH   1  23
HETATM   23  C           1     -22.776  -8.840  -0.166  0.00  0.00     0.196 C 
HETATM   24  O           1     -23.396  -9.924  -0.236  0.00  0.00    -0.646 OA
HETATM   25  O           1     -23.187  -7.932   0.588  0.00  0.00    -0.646 OA
ENDBRANCH   1  23
BRANCH   1  26
HETATM   26  N           1     -21.472  -9.628  -2.041  0.00  0.00    -0.345 N 
HETATM   27  C           1     -20.512 -10.603  -2.006  0.00  0.00     0.249 C 
HETATM   28  O           1     -19.713 -10.631  -1.101  0.00  0.00    -0.271 OA
HETATM   29  H           1     -22.142  -9.604  -2.800  0.00  0.00     0.163 HD
BRANCH  27  30
HETATM   30  C           1     -20.452 -11.641  -3.098  0.00  0.00     0.274 C 
BRANCH  30  31
HETATM   31  N           1     -19.019 -11.963  -3.404  0.00  0.00    -0.067 N 
HETATM   32  H           1     -18.398 -11.464  -2.729  0.00  0.00     0.275 HD
HETATM   33  H           1     -18.868 -12.993  -3.321  0.00  0.00     0.275 HD
HETATM   34  H           1     -18.794 -11.654  -4.378  0.00  0.00     0.275 HD
ENDBRANCH  30  31
BRANCH  30  35
HETATM   35  C           1     -21.168 -12.904  -2.638  0.00  0.00     0.044 C 
BRANCH  35  36
HETATM   36  C           1     -20.151 -13.892  -2.082  0.00  0.00     0.023 C 
BRANCH  36  37
HETATM   37  C           1     -20.381 -14.071  -0.587  0.00  0.00     0.138 C 
BRANCH  37  38
HETATM   38  N           1     -21.815 -13.938  -0.291  0.00  0.00    -0.227 N 
HETATM   39  H           1     -22.498 -14.635  -0.678  0.00  0.00     0.177 HD
HETATM   40  C           1     -22.226 -12.985   0.432  0.00  0.00     0.665 C 
HETATM   41  N           1     -21.380 -12.121   0.913  0.00  0.00    -0.235 N 
HETATM   42  N           1     -23.461 -12.870   0.688  0.00  0.00    -0.235 N 
HETATM   43  H           1     -21.720 -11.334   1.510  0.00  0.00     0.174 HD
HETATM   44  H           1     -20.361 -12.216   0.702  0.00  0.00     0.174 HD
HETATM   45  H           1     -23.802 -12.079   1.287  0.00  0.00     0.174 HD
HETATM   46  H           1     -24.143 -13.568   0.299  0.00  0.00     0.174 HD
ENDBRANCH  37  38
ENDBRANCH  36  37
ENDBRANCH  35  36
ENDBRANCH  30  35
ENDBRANCH  27  30
ENDBRANCH   1  26
TORSDOF 18
ENDMDL
MODEL 7
REMARK VINA RESULT:      -6.6      3.775      6.491
REMARK  18 active torsions:
REMARK  status: ('A' for Active; 'I' for Inactive)
REMARK       I    between atoms: N_1  and  C_41 
REMARK    1  A    between atoms: N_2  and  C_23 
REMARK    2  A    between atoms: C_6  and  O_7 
REMARK    3  A    between atoms: O_7  and  P_8 
REMARK    4  A    between atoms: P_8  and  O_10 
REMARK    5  A    between atoms: N_14  and  C_35 
REMARK    6  A    between atoms: N_14  and  C_15 
REMARK    7  A    between atoms: C_15  and  C_16 
REMARK    8  A    between atoms: C_16  and  C_17 
REMARK    9  A    between atoms: C_17  and  C_18 
REMARK   10  A    between atoms: C_17  and  N_21 
REMARK       I    between atoms: N_21  and  C_22 
REMARK   11  A    between atoms: C_22  and  C_23 
REMARK   12  A    between atoms: C_23  and  C_30 
REMARK   13  A    between atoms: C_26  and  C_30 
REMARK   14  A    between atoms: C_26  and  C_27 
REMARK   15  A    between atoms: C_27  and  N_40 
REMARK   16  A    between atoms: C_33  and  C_35 
REMARK   17  A    between atoms: C_35  and  C_36 
REMARK   18  A    between atoms: C_36  and  C_37 
REMARK       I    between atoms: N_40  and  C_41 
ROOT
HETATM    1  C           1     -21.536 -11.769  -4.571  0.00  0.00     0.187 C 
ENDROOT
BRANCH   1   2
HETATM    2  C           1     -22.601 -11.025  -3.774  0.00  0.00     0.066 C 
BRANCH   2   3
HETATM    3  C           1     -22.935 -11.812  -2.514  0.00  0.00     0.273 C 
BRANCH   3   4
HETATM    4  N           1     -23.222 -10.901  -1.440  0.00  0.00     0.098 N 
HETATM    5  H           1     -24.054 -11.216  -0.941  0.00  0.00     0.317 HD
BRANCH   4   6
HETATM    6  C           1     -22.096 -10.907  -0.548  0.00  0.00     0.324 C 
BRANCH   6   7
HETATM    7  C           1     -22.315 -11.937   0.532  0.00  0.00     0.207 C 
HETATM    8  O           1     -23.475 -12.295   0.828  0.00  0.00    -0.646 OA
HETATM    9  O           1     -21.336 -12.433   1.131  0.00  0.00    -0.646 OA
ENDBRANCH   6   7
BRANCH   6  10
HETATM   10  C           1     -21.943  -9.530   0.086  0.00  0.00     0.085 C 
BRANCH  10  11
HETATM   11  C           1     -21.688  -8.513  -0.983  0.00  0.00    -0.055 A 
HETATM   12  C           1     -22.410  -7.320  -0.996  0.00  0.00     0.010 A 
HETATM   13  C           1     -22.172  -6.371  -1.991  0.00  0.00     0.038 A 
HETATM   14  C           1     -21.212  -6.617  -2.972  0.00  0.00     0.081 A 
HETATM   15  C           1     -20.489  -7.810  -2.959  0.00  0.00     0.038 A 
HETATM   16  C           1     -20.727  -8.758  -1.964  0.00  0.00     0.010 A 
BRANCH  14  17
HETATM   17  O           1     -20.980  -5.696  -3.939  0.00  0.00    -0.247 OA
BRANCH  17  18
HETATM   18  P           1     -21.622  -5.952  -5.399  0.00  0.00     0.411 P 
HETATM   19  O           1     -21.301  -4.812  -6.287  0.00  0.00    -0.624 OA
HETATM   20  O           1     -23.091  -6.082  -5.276  0.00  0.00    -0.624 OA
BRANCH  18  21
HETATM   21  O           1     -21.010  -7.309  -6.025  0.00  0.00    -0.300 OA
HETATM   22  H           1     -20.207  -7.044  -6.441  0.00  0.00     0.223 HD
ENDBRANCH  18  21
ENDBRANCH  17  18
ENDBRANCH  14  17
ENDBRANCH  10  11
ENDBRANCH   6  10
ENDBRANCH   4   6
ENDBRANCH   3   4
ENDBRANCH   2   3
ENDBRANCH   1   2
BRANCH   1  23
HETATM   23  C           1     -22.153 -12.339  -5.825  0.00  0.00     0.196 C 
HETATM   24  O           1     -21.741 -11.969  -6.947  0.00  0.00    -0.646 OA
HETATM   25  O           1     -23.073 -13.180  -5.742  0.00  0.00    -0.646 OA
ENDBRANCH   1  23
BRANCH   1  26
HETATM   26  N           1     -20.472 -10.852  -4.930  0.00  0.00    -0.345 N 
HETATM   27  C           1     -19.175 -11.148  -4.608  0.00  0.00     0.249 C 
HETATM   28  O           1     -18.917 -12.174  -4.026  0.00  0.00    -0.271 OA
HETATM   29  H           1     -20.688  -9.992  -5.418  0.00  0.00     0.163 HD
BRANCH  27  30
HETATM   30  C           1     -18.069 -10.194  -4.982  0.00  0.00     0.274 C 
BRANCH  30  31
HETATM   31  N           1     -18.618  -9.112  -5.863  0.00  0.00    -0.067 N 
HETATM   32  H           1     -19.154  -8.428  -5.284  0.00  0.00     0.275 HD
HETATM   33  H           1     -17.830  -8.620  -6.343  0.00  0.00     0.275 HD
HETATM   34  H           1     -19.253  -9.535  -6.579  0.00  0.00     0.275 HD
ENDBRANCH  30  31
BRANCH  30  35
HETATM   35  C           1     -17.487  -9.572  -3.719  0.00  0.00     0.044 C 
BRANCH  35  36
HETATM   36  C           1     -16.046 -10.032  -3.543  0.00  0.00     0.023 C 
BRANCH  36  37
HETATM   37  C           1     -15.910 -10.790  -2.229  0.00  0.00     0.138 C 
BRANCH  37  38
HETATM   38  N           1     -17.247 -11.073  -1.685  0.00  0.00    -0.227 N 
HETATM   39  H           1     -18.094 -10.624  -2.113  0.00  0.00     0.177 HD
HETATM   40  C           1     -17.376 -11.860  -0.702  0.00  0.00     0.665 C 
HETATM   41  N           1     -16.327 -12.417  -0.172  0.00  0.00    -0.235 N 
HETATM   42  N           1     -18.527 -12.104  -0.234  0.00  0.00    -0.235 N 
HETATM   43  H           1     -16.435 -13.065   0.640  0.00  0.00     0.174 HD
HETATM   44  H           1     -15.378 -12.215  -0.558  0.00  0.00     0.174 HD
HETATM   45  H           1     -18.635 -12.756   0.582  0.00  0.00     0.174 HD
HETATM   46  H           1     -19.374 -11.654  -0.663  0.00  0.00     0.174 HD
ENDBRANCH  37  38
ENDBRANCH  36  37
ENDBRANCH  35  36
ENDBRANCH  30  35
ENDBRANCH  27  30
ENDBRANCH   1  26
TORSDOF 18
ENDMDL
MODEL 8
REMARK VINA RESULT:      -6.4      3.243      4.087
REMARK  18 active torsions:
REMARK  status: ('A' for Active; 'I' for Inactive)
REMARK       I    between atoms: N_1  and  C_41 
REMARK    1  A    between atoms: N_2  and  C_23 
REMARK    2  A    between atoms: C_6  and  O_7 
REMARK    3  A    between atoms: O_7  and  P_8 
REMARK    4  A    between atoms: P_8  and  O_10 
REMARK    5  A    between atoms: N_14  and  C_35 
REMARK    6  A    between atoms: N_14  and  C_15 
REMARK    7  A    between atoms: C_15  and  C_16 
REMARK    8  A    between atoms: C_16  and  C_17 
REMARK    9  A    between atoms: C_17  and  C_18 
REMARK   10  A    between atoms: C_17  and  N_21 
REMARK       I    between atoms: N_21  and  C_22 
REMARK   11  A    between atoms: C_22  and  C_23 
REMARK   12  A    between atoms: C_23  and  C_30 
REMARK   13  A    between atoms: C_26  and  C_30 
REMARK   14  A    between atoms: C_26  and  C_27 
REMARK   15  A    between atoms: C_27  and  N_40 
REMARK   16  A    between atoms: C_33  and  C_35 
REMARK   17  A    between atoms: C_35  and  C_36 
REMARK   18  A    between atoms: C_36  and  C_37 
REMARK       I    between atoms: N_40  and  C_41 
ROOT
HETATM    1  C           1     -21.051  -8.371  -1.042  0.00  0.00     0.187 C 
ENDROOT
BRANCH   1   2
HETATM    2  C           1     -22.091  -7.998  -2.090  0.00  0.00     0.066 C 
BRANCH   2   3
HETATM    3  C           1     -21.594  -6.808  -2.900  0.00  0.00     0.273 C 
BRANCH   3   4
HETATM    4  N           1     -20.397  -7.174  -3.607  0.00  0.00     0.098 N 
HETATM    5  H           1     -19.986  -8.002  -3.173  0.00  0.00     0.317 HD
BRANCH   4   6
HETATM    6  C           1     -20.764  -7.475  -4.963  0.00  0.00     0.324 C 
BRANCH   6   7
HETATM    7  C           1     -20.606  -8.955  -5.210  0.00  0.00     0.207 C 
HETATM    8  O           1     -19.492  -9.419  -5.535  0.00  0.00    -0.646 OA
HETATM    9  O           1     -21.590  -9.717  -5.091  0.00  0.00    -0.646 OA
ENDBRANCH   6   7
BRANCH   6  10
HETATM   10  C           1     -19.862  -6.701  -5.916  0.00  0.00     0.085 C 
BRANCH  10  11
HETATM   11  C           1     -20.697  -5.812  -6.784  0.00  0.00    -0.055 A 
HETATM   12  C           1     -20.224  -5.416  -8.035  0.00  0.00     0.010 A 
HETATM   13  C           1     -21.002  -4.587  -8.844  0.00  0.00     0.038 A 
HETATM   14  C           1     -22.253  -4.156  -8.402  0.00  0.00     0.081 A 
HETATM   15  C           1     -22.726  -4.553  -7.151  0.00  0.00     0.038 A 
HETATM   16  C           1     -21.948  -5.381  -6.342  0.00  0.00     0.010 A 
BRANCH  14  17
HETATM   17  O           1     -23.008  -3.351  -9.188  0.00  0.00    -0.247 OA
BRANCH  17  18
HETATM   18  P           1     -23.799  -4.026 -10.424  0.00  0.00     0.411 P 
HETATM   19  O           1     -24.993  -3.215 -10.749  0.00  0.00    -0.624 OA
HETATM   20  O           1     -24.220  -5.395 -10.052  0.00  0.00    -0.624 OA
BRANCH  18  21
HETATM   21  O           1     -22.827  -4.091 -11.713  0.00  0.00    -0.300 OA
HETATM   22  H           1     -22.239  -4.807 -11.538  0.00  0.00     0.223 HD
ENDBRANCH  18  21
ENDBRANCH  17  18
ENDBRANCH  14  17
ENDBRANCH  10  11
ENDBRANCH   6  10
ENDBRANCH   4   6
ENDBRANCH   3   4
ENDBRANCH   2   3
ENDBRANCH   1   2
BRANCH   1  23
HETATM   23  C           1     -21.651  -8.229   0.335  0.00  0.00     0.196 C 
HETATM   24  O           1     -22.801  -7.756   0.470  0.00  0.00    -0.646 OA
HETATM   25  O           1     -20.999  -8.583   1.340  0.00  0.00    -0.646 OA
ENDBRANCH   1  23
BRANCH   1  26
HETATM   26  N           1     -20.630  -9.744  -1.246  0.00  0.00    -0.345 N 
HETATM   27  C           1     -19.464 -10.011  -1.912  0.00  0.00     0.249 C 
HETATM   28  O           1     -18.786  -9.103  -2.329  0.00  0.00    -0.271 OA
HETATM   29  H           1     -21.198 -10.505  -0.895  0.00  0.00     0.163 HD
BRANCH  27  30
HETATM   30  C           1     -19.027 -11.439  -2.123  0.00  0.00     0.274 C 
BRANCH  30  31
HETATM   31  N           1     -18.610 -11.628  -3.552  0.00  0.00    -0.067 N 
HETATM   32  H           1     -17.785 -12.267  -3.592  0.00  0.00     0.275 HD
HETATM   33  H           1     -19.401 -12.044  -4.093  0.00  0.00     0.275 HD
HETATM   34  H           1     -18.353 -10.701  -3.964  0.00  0.00     0.275 HD
ENDBRANCH  30  31
BRANCH  30  35
HETATM   35  C           1     -17.852 -11.751  -1.206  0.00  0.00     0.044 C 
BRANCH  35  36
HETATM   36  C           1     -18.358 -12.447   0.050  0.00  0.00     0.023 C 
BRANCH  36  37
HETATM   37  C           1     -17.657 -13.791   0.205  0.00  0.00     0.138 C 
BRANCH  37  38
HETATM   38  N           1     -16.549 -13.658   1.163  0.00  0.00    -0.227 N 
HETATM   39  H           1     -15.835 -12.900   1.038  0.00  0.00     0.177 HD
HETATM   40  C           1     -16.460 -14.457   2.141  0.00  0.00     0.665 C 
HETATM   41  N           1     -17.346 -15.397   2.297  0.00  0.00    -0.235 N 
HETATM   42  N           1     -15.507 -14.344   2.966  0.00  0.00    -0.235 N 
HETATM   43  H           1     -17.271 -16.056   3.103  0.00  0.00     0.174 HD
HETATM   44  H           1     -18.132 -15.491   1.615  0.00  0.00     0.174 HD
HETATM   45  H           1     -15.432 -15.007   3.777  0.00  0.00     0.174 HD
HETATM   46  H           1     -14.791 -13.585   2.840  0.00  0.00     0.174 HD
ENDBRANCH  37  38
ENDBRANCH  36  37
ENDBRANCH  35  36
ENDBRANCH  30  35
ENDBRANCH  27  30
ENDBRANCH   1  26
TORSDOF 18
ENDMDL
MODEL 9
REMARK VINA RESULT:      -6.3      3.769      8.187
REMARK  18 active torsions:
REMARK  status: ('A' for Active; 'I' for Inactive)
REMARK       I    between atoms: N_1  and  C_41 
REMARK    1  A    between atoms: N_2  and  C_23 
REMARK    2  A    between atoms: C_6  and  O_7 
REMARK    3  A    between atoms: O_7  and  P_8 
REMARK    4  A    between atoms: P_8  and  O_10 
REMARK    5  A    between atoms: N_14  and  C_35 
REMARK    6  A    between atoms: N_14  and  C_15 
REMARK    7  A    between atoms: C_15  and  C_16 
REMARK    8  A    between atoms: C_16  and  C_17 
REMARK    9  A    between atoms: C_17  and  C_18 
REMARK   10  A    between atoms: C_17  and  N_21 
REMARK       I    between atoms: N_21  and  C_22 
REMARK   11  A    between atoms: C_22  and  C_23 
REMARK   12  A    between atoms: C_23  and  C_30 
REMARK   13  A    between atoms: C_26  and  C_30 
REMARK   14  A    between atoms: C_26  and  C_27 
REMARK   15  A    between atoms: C_27  and  N_40 
REMARK   16  A    between atoms: C_33  and  C_35 
REMARK   17  A    between atoms: C_35  and  C_36 
REMARK   18  A    between atoms: C_36  and  C_37 
REMARK       I    between atoms: N_40  and  C_41 
ROOT
HETATM    1  C           1     -19.084  -9.502  -4.213  0.00  0.00     0.187 C 
ENDROOT
BRANCH   1   2
HETATM    2  C           1     -18.370  -9.544  -5.558  0.00  0.00     0.066 C 
BRANCH   2   3
HETATM    3  C           1     -18.505 -10.935  -6.163  0.00  0.00     0.273 C 
BRANCH   3   4
HETATM    4  N           1     -19.889 -11.208  -6.439  0.00  0.00     0.098 N 
HETATM    5  H           1     -20.055 -11.134  -7.443  0.00  0.00     0.317 HD
BRANCH   4   6
HETATM    6  C           1     -20.166 -12.549  -6.004  0.00  0.00     0.324 C 
BRANCH   6   7
HETATM    7  C           1     -19.922 -13.508  -7.143  0.00  0.00     0.207 C 
HETATM    8  O           1     -19.338 -14.592  -6.933  0.00  0.00    -0.646 OA
HETATM    9  O           1     -20.305 -13.217  -8.297  0.00  0.00    -0.646 OA
ENDBRANCH   6   7
BRANCH   6  10
HETATM   10  C           1     -21.619 -12.647  -5.558  0.00  0.00     0.085 C 
BRANCH  10  11
HETATM   11  C           1     -21.749 -12.130  -4.158  0.00  0.00    -0.055 A 
HETATM   12  C           1     -22.762 -11.227  -3.840  0.00  0.00     0.010 A 
HETATM   13  C           1     -22.885 -10.746  -2.536  0.00  0.00     0.038 A 
HETATM   14  C           1     -21.993 -11.170  -1.551  0.00  0.00     0.081 A 
HETATM   15  C           1     -20.980 -12.075  -1.869  0.00  0.00     0.038 A 
HETATM   16  C           1     -20.858 -12.555  -3.173  0.00  0.00     0.010 A 
BRANCH  14  17
HETATM   17  O           1     -22.111 -10.703  -0.285  0.00  0.00    -0.247 OA
BRANCH  17  18
HETATM   18  P           1     -21.836  -9.132  -0.027  0.00  0.00     0.411 P 
HETATM   19  O           1     -23.126  -8.421   0.118  0.00  0.00    -0.624 OA
HETATM   20  O           1     -21.089  -8.568  -1.174  0.00  0.00    -0.624 OA
BRANCH  18  21
HETATM   21  O           1     -20.969  -8.952   1.324  0.00  0.00    -0.300 OA
HETATM   22  H           1     -20.131  -8.631   1.034  0.00  0.00     0.223 HD
ENDBRANCH  18  21
ENDBRANCH  17  18
ENDBRANCH  14  17
ENDBRANCH  10  11
ENDBRANCH   6  10
ENDBRANCH   4   6
ENDBRANCH   3   4
ENDBRANCH   2   3
ENDBRANCH   1   2
BRANCH   1  23
HETATM   23  C           1     -18.077  -9.673  -3.103  0.00  0.00     0.196 C 
HETATM   24  O           1     -16.891  -9.316  -3.276  0.00  0.00    -0.646 OA
HETATM   25  O           1     -18.428 -10.171  -2.012  0.00  0.00    -0.646 OA
ENDBRANCH   1  23
BRANCH   1  26
HETATM   26  N           1     -19.757  -8.226  -4.062  0.00  0.00    -0.345 N 
HETATM   27  C           1     -20.852  -7.935  -4.830  0.00  0.00     0.249 C 
HETATM   28  O           1     -21.258  -8.740  -5.633  0.00  0.00    -0.271 OA
HETATM   29  H           1     -19.417  -7.551  -3.389  0.00  0.00     0.163 HD
BRANCH  27  30
HETATM   30  C           1     -21.551  -6.608  -4.673  0.00  0.00     0.274 C 
BRANCH  30  31
HETATM   31  N           1     -21.768  -6.326  -3.216  0.00  0.00    -0.067 N 
HETATM   32  H           1     -21.086  -5.603  -2.895  0.00  0.00     0.275 HD
HETATM   33  H           1     -22.742  -5.976  -3.070  0.00  0.00     0.275 HD
HETATM   34  H           1     -21.627  -7.206  -2.667  0.00  0.00     0.275 HD
ENDBRANCH  30  31
BRANCH  30  35
HETATM   35  C           1     -20.692  -5.506  -5.280  0.00  0.00     0.044 C 
BRANCH  35  36
HETATM   36  C           1     -20.891  -5.480  -6.789  0.00  0.00     0.023 C 
BRANCH  36  37
HETATM   37  C           1     -22.052  -4.556  -7.134  0.00  0.00     0.138 C 
BRANCH  37  38
HETATM   38  N           1     -21.976  -4.182  -8.554  0.00  0.00    -0.227 N 
HETATM   39  H           1     -21.056  -4.215  -9.057  0.00  0.00     0.177 HD
HETATM   40  C           1     -23.022  -3.823  -9.171  0.00  0.00     0.665 C 
HETATM   41  N           1     -24.163  -3.783  -8.547  0.00  0.00    -0.235 N 
HETATM   42  N           1     -22.957  -3.501 -10.393  0.00  0.00    -0.235 N 
HETATM   43  H           1     -25.025  -3.486  -9.057  0.00  0.00     0.174 HD
HETATM   44  H           1     -24.216  -4.048  -7.538  0.00  0.00     0.174 HD
HETATM   45  H           1     -23.824  -3.203 -10.905  0.00  0.00     0.174 HD
HETATM   46  H           1     -22.036  -3.534 -10.896  0.00  0.00     0.174 HD
ENDBRANCH  37  38
ENDBRANCH  36  37
ENDBRANCH  35  36
ENDBRANCH  30  35
ENDBRANCH  27  30
ENDBRANCH   1  26
TORSDOF 18
ENDMDL
