MODEL 1
REMARK VINA RESULT:      -7.0      0.000      0.000
REMARK  11 active torsions:
REMARK  status: ('A' for Active; 'I' for Inactive)
REMARK    1  A    between atoms: N_1  and  C_20 
REMARK    2  A    between atoms: C_2  and  C_3 
REMARK    3  A    between atoms: C_3  and  C_5 
REMARK    4  A    between atoms: C_3  and  N_17 
REMARK    5  A    between atoms: C_5  and  C_10 
REMARK       I    between atoms: C_7  and  N_17 
REMARK    6  A    between atoms: C_7  and  C_8 
REMARK    7  A    between atoms: C_8  and  C_22 
REMARK    8  A    between atoms: C_8  and  N_11 
REMARK    9  A    between atoms: C_9  and  O_14 
REMARK   10  A    between atoms: C_20  and  C_21 
REMARK   11  A    between atoms: C_21  and  C_22 
ROOT
HETATM    1  C           1     -36.981  -0.278 -14.080  0.00  0.00     0.249 C 
HETATM    2  O           1     -37.905  -1.024 -13.865  0.00  0.00    -0.271 OA
HETATM    3  N           1     -36.007  -0.103 -13.134  0.00  0.00    -0.344 N 
HETATM    4  H           1     -35.232   0.522 -13.314  0.00  0.00     0.163 HD
ENDROOT
BRANCH   3   5
HETATM    5  C           1     -36.086  -0.816 -11.873  0.00  0.00     0.189 C 
BRANCH   5   6
HETATM    6  C           1     -36.836   0.023 -10.868  0.00  0.00     0.197 C 
HETATM    7  O           1     -36.219   0.843 -10.155  0.00  0.00    -0.646 OA
HETATM    8  O           1     -38.074  -0.102 -10.748  0.00  0.00    -0.646 OA
ENDBRANCH   5   6
BRANCH   5   9
HETATM    9  C           1     -34.680  -1.092 -11.358  0.00  0.00     0.074 C 
BRANCH   9  10
HETATM   10  C           1     -34.449  -2.571 -11.303  0.00  0.00    -0.056 A 
HETATM   11  C           1     -33.194  -3.092 -11.620  0.00  0.00     0.010 A 
HETATM   12  C           1     -32.979  -4.469 -11.569  0.00  0.00     0.037 A 
HETATM   13  C           1     -34.018  -5.325 -11.203  0.00  0.00     0.065 A 
HETATM   14  C           1     -35.273  -4.803 -10.887  0.00  0.00     0.037 A 
HETATM   15  C           1     -35.488  -3.426 -10.937  0.00  0.00     0.010 A 
BRANCH  13  16
HETATM   16  O           1     -33.809  -6.663 -11.154  0.00  0.00    -0.361 OA
HETATM   17  H           1     -34.149  -6.989 -10.304  0.00  0.00     0.217 HD
ENDBRANCH  13  16
ENDBRANCH   9  10
ENDBRANCH   5   9
ENDBRANCH   3   5
BRANCH   1  18
HETATM   18  C           1     -36.899   0.464 -15.392  0.00  0.00     0.274 C 
BRANCH  18  19
HETATM   19  C           1     -36.585  -0.520 -16.512  0.00  0.00     0.044 C 
BRANCH  19  20
HETATM   20  C           1     -35.119  -0.923 -16.439  0.00  0.00     0.030 C 
BRANCH  20  21
HETATM   21  C           1     -35.004  -2.439 -16.522  0.00  0.00     0.230 C 
BRANCH  21  22
HETATM   22  N           1     -33.754  -2.806 -17.265  0.00  0.00    -0.079 N 
HETATM   23  H           1     -33.667  -3.846 -17.311  0.00  0.00     0.274 HD
HETATM   24  H           1     -32.924  -2.409 -16.770  0.00  0.00     0.274 HD
HETATM   25  H           1     -33.799  -2.419 -18.235  0.00  0.00     0.274 HD
ENDBRANCH  21  22
ENDBRANCH  20  21
ENDBRANCH  19  20
ENDBRANCH  18  19
BRANCH  18  26
HETATM   26  N           1     -35.813   1.495 -15.315  0.00  0.00    -0.067 N 
HETATM   27  H           1     -35.135   1.348 -16.097  0.00  0.00     0.275 HD
HETATM   28  H           1     -36.233   2.449 -15.395  0.00  0.00     0.275 HD
HETATM   29  H           1     -35.314   1.409 -14.401  0.00  0.00     0.275 HD
ENDBRANCH  18  26
ENDBRANCH   1  18
TORSDOF 11
ENDMDL
MODEL 2
REMARK VINA RESULT:      -6.9     14.005     17.181
REMARK  11 active torsions:
REMARK  status: ('A' for Active; 'I' for Inactive)
REMARK    1  A    between atoms: N_1  and  C_20 
REMARK    2  A    between atoms: C_2  and  C_3 
REMARK    3  A    between atoms: C_3  and  C_5 
REMARK    4  A    between atoms: C_3  and  N_17 
REMARK    5  A    between atoms: C_5  and  C_10 
REMARK       I    between atoms: C_7  and  N_17 
REMARK    6  A    between atoms: C_7  and  C_8 
REMARK    7  A    between atoms: C_8  and  C_22 
REMARK    8  A    between atoms: C_8  and  N_11 
REMARK    9  A    between atoms: C_9  and  O_14 
REMARK   10  A    between atoms: C_20  and  C_21 
REMARK   11  A    between atoms: C_21  and  C_22 
ROOT
HETATM    1  C           1     -21.323  -6.217  -4.446  0.00  0.00     0.249 C 
HETATM    2  O           1     -21.614  -7.261  -4.979  0.00  0.00    -0.271 OA
HETATM    3  N           1     -21.020  -5.120  -5.207  0.00  0.00    -0.344 N 
HETATM    4  H           1     -20.777  -4.245  -4.761  0.00  0.00     0.163 HD
ENDROOT
BRANCH   3   5
HETATM    5  C           1     -21.048  -5.213  -6.655  0.00  0.00     0.189 C 
BRANCH   5   6
HETATM    6  C           1     -19.662  -5.518  -7.166  0.00  0.00     0.197 C 
HETATM    7  O           1     -19.326  -6.699  -7.395  0.00  0.00    -0.646 OA
HETATM    8  O           1     -18.848  -4.588  -7.359  0.00  0.00    -0.646 OA
ENDBRANCH   5   6
BRANCH   5   9
HETATM    9  C           1     -21.526  -3.890  -7.238  0.00  0.00     0.074 C 
BRANCH   9  10
HETATM   10  C           1     -22.088  -4.120  -8.606  0.00  0.00    -0.056 A 
HETATM   11  C           1     -21.248  -4.091  -9.719  0.00  0.00     0.010 A 
HETATM   12  C           1     -21.772  -4.305 -10.994  0.00  0.00     0.037 A 
HETATM   13  C           1     -23.136  -4.548 -11.155  0.00  0.00     0.065 A 
HETATM   14  C           1     -23.977  -4.578 -10.042  0.00  0.00     0.037 A 
HETATM   15  C           1     -23.452  -4.363  -8.767  0.00  0.00     0.010 A 
BRANCH  13  16
HETATM   16  O           1     -23.646  -4.757 -12.394  0.00  0.00    -0.361 OA
HETATM   17  H           1     -24.026  -5.650 -12.415  0.00  0.00     0.217 HD
ENDBRANCH  13  16
ENDBRANCH   9  10
ENDBRANCH   5   9
ENDBRANCH   3   5
BRANCH   1  18
HETATM   18  C           1     -21.294  -6.121  -2.940  0.00  0.00     0.274 C 
BRANCH  18  19
HETATM   19  C           1     -20.736  -7.414  -2.359  0.00  0.00     0.044 C 
BRANCH  19  20
HETATM   20  C           1     -21.708  -7.968  -1.327  0.00  0.00     0.030 C 
BRANCH  20  21
HETATM   21  C           1     -21.947  -9.448  -1.595  0.00  0.00     0.230 C 
BRANCH  21  22
HETATM   22  N           1     -21.795  -9.722  -3.061  0.00  0.00    -0.079 N 
HETATM   23  H           1     -20.807  -9.995  -3.265  0.00  0.00     0.274 HD
HETATM   24  H           1     -22.037  -8.863  -3.604  0.00  0.00     0.274 HD
HETATM   25  H           1     -22.435 -10.501  -3.338  0.00  0.00     0.274 HD
ENDBRANCH  21  22
ENDBRANCH  20  21
ENDBRANCH  19  20
ENDBRANCH  18  19
BRANCH  18  26
HETATM   26  N           1     -22.685  -5.903  -2.426  0.00  0.00    -0.067 N 
HETATM   27  H           1     -23.232  -6.789  -2.510  0.00  0.00     0.275 HD
HETATM   28  H           1     -22.645  -5.613  -1.423  0.00  0.00     0.275 HD
HETATM   29  H           1     -23.150  -5.152  -2.987  0.00  0.00     0.275 HD
ENDBRANCH  18  26
ENDBRANCH   1  18
TORSDOF 11
ENDMDL
MODEL 3
REMARK VINA RESULT:      -6.4      1.742      2.341
REMARK  11 active torsions:
REMARK  status: ('A' for Active; 'I' for Inactive)
REMARK    1  A    between atoms: N_1  and  C_20 
REMARK    2  A    between atoms: C_2  and  C_3 
REMARK    3  A    between atoms: C_3  and  C_5 
REMARK    4  A    between atoms: C_3  and  N_17 
REMARK    5  A    between atoms: C_5  and  C_10 
REMARK       I    between atoms: C_7  and  N_17 
REMARK    6  A    between atoms: C_7  and  C_8 
REMARK    7  A    between atoms: C_8  and  C_22 
REMARK    8  A    between atoms: C_8  and  N_11 
REMARK    9  A    between atoms: C_9  and  O_14 
REMARK   10  A    between atoms: C_20  and  C_21 
REMARK   11  A    between atoms: C_21  and  C_22 
ROOT
HETATM    1  C           1     -36.360  -0.190 -12.783  0.00  0.00     0.249 C 
HETATM    2  O           1     -37.110  -1.135 -12.818  0.00  0.00    -0.271 OA
HETATM    3  N           1     -35.896   0.272 -11.580  0.00  0.00    -0.344 N 
HETATM    4  H           1     -35.266   1.064 -11.551  0.00  0.00     0.163 HD
ENDROOT
BRANCH   3   5
HETATM    5  C           1     -36.308  -0.374 -10.349  0.00  0.00     0.189 C 
BRANCH   5   6
HETATM    6  C           1     -36.934   0.647  -9.431  0.00  0.00     0.197 C 
HETATM    7  O           1     -36.401   0.910  -8.332  0.00  0.00    -0.646 OA
HETATM    8  O           1     -37.987   1.229  -9.770  0.00  0.00    -0.646 OA
ENDBRANCH   5   6
BRANCH   5   9
HETATM    9  C           1     -35.092  -0.991  -9.670  0.00  0.00     0.074 C 
BRANCH   9  10
HETATM   10  C           1     -34.772  -2.305 -10.314  0.00  0.00    -0.056 A 
HETATM   11  C           1     -35.782  -3.245 -10.518  0.00  0.00     0.010 A 
HETATM   12  C           1     -35.484  -4.468 -11.119  0.00  0.00     0.037 A 
HETATM   13  C           1     -34.176  -4.751 -11.514  0.00  0.00     0.065 A 
HETATM   14  C           1     -33.167  -3.810 -11.310  0.00  0.00     0.037 A 
HETATM   15  C           1     -33.465  -2.587 -10.709  0.00  0.00     0.010 A 
BRANCH  13  16
HETATM   16  O           1     -33.886  -5.939 -12.097  0.00  0.00    -0.361 OA
HETATM   17  H           1     -34.342  -6.638 -11.599  0.00  0.00     0.217 HD
ENDBRANCH  13  16
ENDBRANCH   9  10
ENDBRANCH   5   9
ENDBRANCH   3   5
BRANCH   1  18
HETATM   18  C           1     -35.931   0.482 -14.064  0.00  0.00     0.274 C 
BRANCH  18  19
HETATM   19  C           1     -35.650  -0.577 -15.124  0.00  0.00     0.044 C 
BRANCH  19  20
HETATM   20  C           1     -36.608  -0.392 -16.292  0.00  0.00     0.030 C 
BRANCH  20  21
HETATM   21  C           1     -37.941   0.135 -15.780  0.00  0.00     0.230 C 
BRANCH  21  22
HETATM   22  N           1     -38.074   1.587 -16.132  0.00  0.00    -0.079 N 
HETATM   23  H           1     -38.908   1.723 -16.747  0.00  0.00     0.274 HD
HETATM   24  H           1     -37.215   1.904 -16.636  0.00  0.00     0.274 HD
HETATM   25  H           1     -38.193   2.148 -15.258  0.00  0.00     0.274 HD
ENDBRANCH  21  22
ENDBRANCH  20  21
ENDBRANCH  19  20
ENDBRANCH  18  19
BRANCH  18  26
HETATM   26  N           1     -34.688   1.282 -13.817  0.00  0.00    -0.067 N 
HETATM   27  H           1     -34.549   1.963 -14.597  0.00  0.00     0.275 HD
HETATM   28  H           1     -34.782   1.802 -12.916  0.00  0.00     0.275 HD
HETATM   29  H           1     -33.864   0.640 -13.766  0.00  0.00     0.275 HD
ENDBRANCH  18  26
ENDBRANCH   1  18
TORSDOF 11
ENDMDL
MODEL 4
REMARK VINA RESULT:      -6.4     14.838     17.687
REMARK  11 active torsions:
REMARK  status: ('A' for Active; 'I' for Inactive)
REMARK    1  A    between atoms: N_1  and  C_20 
REMARK    2  A    between atoms: C_2  and  C_3 
REMARK    3  A    between atoms: C_3  and  C_5 
REMARK    4  A    between atoms: C_3  and  N_17 
REMARK    5  A    between atoms: C_5  and  C_10 
REMARK       I    between atoms: C_7  and  N_17 
REMARK    6  A    between atoms: C_7  and  C_8 
REMARK    7  A    between atoms: C_8  and  C_22 
REMARK    8  A    between atoms: C_8  and  N_11 
REMARK    9  A    between atoms: C_9  and  O_14 
REMARK   10  A    between atoms: C_20  and  C_21 
REMARK   11  A    between atoms: C_21  and  C_22 
ROOT
HETATM    1  C           1     -20.179  -5.389  -6.031  0.00  0.00     0.249 C 
HETATM    2  O           1     -20.288  -4.808  -4.978  0.00  0.00    -0.271 OA
HETATM    3  N           1     -20.075  -6.754  -6.052  0.00  0.00    -0.344 N 
HETATM    4  H           1     -19.984  -7.241  -6.935  0.00  0.00     0.163 HD
ENDROOT
BRANCH   3   5
HETATM    5  C           1     -20.095  -7.502  -4.810  0.00  0.00     0.189 C 
BRANCH   5   6
HETATM    6  C           1     -19.209  -8.716  -4.939  0.00  0.00     0.197 C 
HETATM    7  O           1     -18.505  -9.081  -3.974  0.00  0.00    -0.646 OA
HETATM    8  O           1     -19.179  -9.356  -6.012  0.00  0.00    -0.646 OA
ENDBRANCH   5   6
BRANCH   5   9
HETATM    9  C           1     -21.521  -7.942  -4.507  0.00  0.00     0.074 C 
BRANCH   9  10
HETATM   10  C           1     -21.744  -7.934  -3.026  0.00  0.00    -0.056 A 
HETATM   11  C           1     -22.005  -6.732  -2.367  0.00  0.00     0.010 A 
HETATM   12  C           1     -22.212  -6.725  -0.988  0.00  0.00     0.037 A 
HETATM   13  C           1     -22.157  -7.919  -0.268  0.00  0.00     0.065 A 
HETATM   14  C           1     -21.897  -9.120  -0.927  0.00  0.00     0.037 A 
HETATM   15  C           1     -21.690  -9.127  -2.307  0.00  0.00     0.010 A 
BRANCH  13  16
HETATM   16  O           1     -22.359  -7.912   1.072  0.00  0.00    -0.361 OA
HETATM   17  H           1     -23.135  -7.357   1.256  0.00  0.00     0.217 HD
ENDBRANCH  13  16
ENDBRANCH   9  10
ENDBRANCH   5   9
ENDBRANCH   3   5
BRANCH   1  18
HETATM   18  C           1     -20.158  -4.611  -7.324  0.00  0.00     0.274 C 
BRANCH  18  19
HETATM   19  C           1     -21.388  -3.716  -7.398  0.00  0.00     0.044 C 
BRANCH  19  20
HETATM   20  C           1     -22.538  -4.484  -8.033  0.00  0.00     0.030 C 
BRANCH  20  21
HETATM   21  C           1     -23.088  -3.694  -9.213  0.00  0.00     0.230 C 
BRANCH  21  22
HETATM   22  N           1     -24.524  -3.345  -8.956  0.00  0.00    -0.079 N 
HETATM   23  H           1     -25.143  -4.024  -9.454  0.00  0.00     0.274 HD
HETATM   24  H           1     -24.716  -2.379  -9.305  0.00  0.00     0.274 HD
HETATM   25  H           1     -24.716  -3.389  -7.930  0.00  0.00     0.274 HD
ENDBRANCH  21  22
ENDBRANCH  20  21
ENDBRANCH  19  20
ENDBRANCH  18  19
BRANCH  18  26
HETATM   26  N           1     -20.164  -5.565  -8.481  0.00  0.00    -0.067 N 
HETATM   27  H           1     -21.022  -6.159  -8.440  0.00  0.00     0.275 HD
HETATM   28  H           1     -20.157  -5.026  -9.376  0.00  0.00     0.275 HD
HETATM   29  H           1     -19.316  -6.175  -8.434  0.00  0.00     0.275 HD
ENDBRANCH  18  26
ENDBRANCH   1  18
TORSDOF 11
ENDMDL
MODEL 5
REMARK VINA RESULT:      -6.3     15.476     17.752
REMARK  11 active torsions:
REMARK  status: ('A' for Active; 'I' for Inactive)
REMARK    1  A    between atoms: N_1  and  C_20 
REMARK    2  A    between atoms: C_2  and  C_3 
REMARK    3  A    between atoms: C_3  and  C_5 
REMARK    4  A    between atoms: C_3  and  N_17 
REMARK    5  A    between atoms: C_5  and  C_10 
REMARK       I    between atoms: C_7  and  N_17 
REMARK    6  A    between atoms: C_7  and  C_8 
REMARK    7  A    between atoms: C_8  and  C_22 
REMARK    8  A    between atoms: C_8  and  N_11 
REMARK    9  A    between atoms: C_9  and  O_14 
REMARK   10  A    between atoms: C_20  and  C_21 
REMARK   11  A    between atoms: C_21  and  C_22 
ROOT
HETATM    1  C           1     -21.024  -5.819  -6.165  0.00  0.00     0.249 C 
HETATM    2  O           1     -20.868  -5.142  -5.178  0.00  0.00    -0.271 OA
HETATM    3  N           1     -20.809  -7.170  -6.111  0.00  0.00    -0.344 N 
HETATM    4  H           1     -20.940  -7.738  -6.938  0.00  0.00     0.163 HD
ENDROOT
BRANCH   3   5
HETATM    5  C           1     -20.394  -7.787  -4.866  0.00  0.00     0.189 C 
BRANCH   5   6
HETATM    6  C           1     -19.156  -8.616  -5.104  0.00  0.00     0.197 C 
HETATM    7  O           1     -18.684  -8.717  -6.256  0.00  0.00    -0.646 OA
HETATM    8  O           1     -18.604  -9.203  -4.148  0.00  0.00    -0.646 OA
ENDBRANCH   5   6
BRANCH   5   9
HETATM    9  C           1     -21.513  -8.681  -4.346  0.00  0.00     0.074 C 
BRANCH   9  10
HETATM   10  C           1     -21.706  -8.439  -2.880  0.00  0.00    -0.056 A 
HETATM   11  C           1     -21.849  -7.136  -2.402  0.00  0.00     0.010 A 
HETATM   12  C           1     -22.029  -6.911  -1.038  0.00  0.00     0.037 A 
HETATM   13  C           1     -22.066  -7.988  -0.152  0.00  0.00     0.065 A 
HETATM   14  C           1     -21.924  -9.290  -0.630  0.00  0.00     0.037 A 
HETATM   15  C           1     -21.744  -9.515  -1.995  0.00  0.00     0.010 A 
BRANCH  13  16
HETATM   16  O           1     -22.241  -7.769   1.174  0.00  0.00    -0.361 OA
HETATM   17  H           1     -22.671  -6.904   1.282  0.00  0.00     0.217 HD
ENDBRANCH  13  16
ENDBRANCH   9  10
ENDBRANCH   5   9
ENDBRANCH   3   5
BRANCH   1  18
HETATM   18  C           1     -21.456  -5.176  -7.461  0.00  0.00     0.274 C 
BRANCH  18  19
HETATM   19  C           1     -20.317  -4.326  -8.010  0.00  0.00     0.044 C 
BRANCH  19  20
HETATM   20  C           1     -20.096  -4.660  -9.479  0.00  0.00     0.030 C 
BRANCH  20  21
HETATM   21  C           1     -21.119  -3.918 -10.329  0.00  0.00     0.230 C 
BRANCH  21  22
HETATM   22  N           1     -20.430  -3.283 -11.500  0.00  0.00    -0.079 N 
HETATM   23  H           1     -19.478  -2.962 -11.214  0.00  0.00     0.274 HD
HETATM   24  H           1     -20.989  -2.463 -11.830  0.00  0.00     0.274 HD
HETATM   25  H           1     -20.344  -3.980 -12.274  0.00  0.00     0.274 HD
ENDBRANCH  21  22
ENDBRANCH  20  21
ENDBRANCH  19  20
ENDBRANCH  18  19
BRANCH  18  26
HETATM   26  N           1     -22.653  -4.308  -7.213  0.00  0.00    -0.067 N 
HETATM   27  H           1     -22.621  -3.938  -6.236  0.00  0.00     0.275 HD
HETATM   28  H           1     -22.649  -3.509  -7.887  0.00  0.00     0.275 HD
HETATM   29  H           1     -23.525  -4.870  -7.344  0.00  0.00     0.275 HD
ENDBRANCH  18  26
ENDBRANCH   1  18
TORSDOF 11
ENDMDL
MODEL 6
REMARK VINA RESULT:      -6.3     13.883     17.143
REMARK  11 active torsions:
REMARK  status: ('A' for Active; 'I' for Inactive)
REMARK    1  A    between atoms: N_1  and  C_20 
REMARK    2  A    between atoms: C_2  and  C_3 
REMARK    3  A    between atoms: C_3  and  C_5 
REMARK    4  A    between atoms: C_3  and  N_17 
REMARK    5  A    between atoms: C_5  and  C_10 
REMARK       I    between atoms: C_7  and  N_17 
REMARK    6  A    between atoms: C_7  and  C_8 
REMARK    7  A    between atoms: C_8  and  C_22 
REMARK    8  A    between atoms: C_8  and  N_11 
REMARK    9  A    between atoms: C_9  and  O_14 
REMARK   10  A    between atoms: C_20  and  C_21 
REMARK   11  A    between atoms: C_21  and  C_22 
ROOT
HETATM    1  C           1     -20.694  -7.390  -5.861  0.00  0.00     0.249 C 
HETATM    2  O           1     -19.593  -7.552  -6.330  0.00  0.00    -0.271 OA
HETATM    3  N           1     -21.426  -6.282  -6.197  0.00  0.00    -0.344 N 
HETATM    4  H           1     -22.348  -6.147  -5.805  0.00  0.00     0.163 HD
ENDROOT
BRANCH   3   5
HETATM    5  C           1     -20.877  -5.304  -7.117  0.00  0.00     0.189 C 
BRANCH   5   6
HETATM    6  C           1     -19.685  -4.631  -6.483  0.00  0.00     0.197 C 
HETATM    7  O           1     -18.671  -4.380  -7.169  0.00  0.00    -0.646 OA
HETATM    8  O           1     -19.711  -4.326  -5.271  0.00  0.00    -0.646 OA
ENDBRANCH   5   6
BRANCH   5   9
HETATM    9  C           1     -21.939  -4.260  -7.438  0.00  0.00     0.074 C 
BRANCH   9  10
HETATM   10  C           1     -22.350  -4.389  -8.872  0.00  0.00    -0.056 A 
HETATM   11  C           1     -23.694  -4.567  -9.199  0.00  0.00     0.010 A 
HETATM   12  C           1     -24.076  -4.688 -10.535  0.00  0.00     0.037 A 
HETATM   13  C           1     -23.114  -4.631 -11.543  0.00  0.00     0.065 A 
HETATM   14  C           1     -21.770  -4.453 -11.217  0.00  0.00     0.037 A 
HETATM   15  C           1     -21.388  -4.332  -9.880  0.00  0.00     0.010 A 
BRANCH  13  16
HETATM   16  O           1     -23.486  -4.748 -12.841  0.00  0.00    -0.361 OA
HETATM   17  H           1     -24.152  -4.065 -13.026  0.00  0.00     0.217 HD
ENDBRANCH  13  16
ENDBRANCH   9  10
ENDBRANCH   5   9
ENDBRANCH   3   5
BRANCH   1  18
HETATM   18  C           1     -21.264  -8.408  -4.905  0.00  0.00     0.274 C 
BRANCH  18  19
HETATM   19  C           1     -20.556  -8.294  -3.560  0.00  0.00     0.044 C 
BRANCH  19  20
HETATM   20  C           1     -21.579  -8.394  -2.438  0.00  0.00     0.030 C 
BRANCH  20  21
HETATM   21  C           1     -21.600  -7.090  -1.651  0.00  0.00     0.230 C 
BRANCH  21  22
HETATM   22  N           1     -22.344  -6.046  -2.429  0.00  0.00    -0.079 N 
HETATM   23  H           1     -22.802  -6.489  -3.258  0.00  0.00     0.274 HD
HETATM   24  H           1     -21.676  -5.311  -2.753  0.00  0.00     0.274 HD
HETATM   25  H           1     -23.073  -5.611  -1.820  0.00  0.00     0.274 HD
ENDBRANCH  21  22
ENDBRANCH  20  21
ENDBRANCH  19  20
ENDBRANCH  18  19
BRANCH  18  26
HETATM   26  N           1     -21.060  -9.786  -5.461  0.00  0.00    -0.067 N 
HETATM   27  H           1     -21.610 -10.475  -4.900  0.00  0.00     0.275 HD
HETATM   28  H           1     -21.381  -9.811  -6.455  0.00  0.00     0.275 HD
HETATM   29  H           1     -20.044 -10.033  -5.416  0.00  0.00     0.275 HD
ENDBRANCH  18  26
ENDBRANCH   1  18
TORSDOF 11
ENDMDL
MODEL 7
REMARK VINA RESULT:      -6.3     13.684     16.076
REMARK  11 active torsions:
REMARK  status: ('A' for Active; 'I' for Inactive)
REMARK    1  A    between atoms: N_1  and  C_20 
REMARK    2  A    between atoms: C_2  and  C_3 
REMARK    3  A    between atoms: C_3  and  C_5 
REMARK    4  A    between atoms: C_3  and  N_17 
REMARK    5  A    between atoms: C_5  and  C_10 
REMARK       I    between atoms: C_7  and  N_17 
REMARK    6  A    between atoms: C_7  and  C_8 
REMARK    7  A    between atoms: C_8  and  C_22 
REMARK    8  A    between atoms: C_8  and  N_11 
REMARK    9  A    between atoms: C_9  and  O_14 
REMARK   10  A    between atoms: C_20  and  C_21 
REMARK   11  A    between atoms: C_21  and  C_22 
ROOT
HETATM    1  C           1     -23.089  -4.551  -7.684  0.00  0.00     0.249 C 
HETATM    2  O           1     -23.780  -4.391  -6.707  0.00  0.00    -0.271 OA
HETATM    3  N           1     -21.808  -5.016  -7.549  0.00  0.00    -0.344 N 
HETATM    4  H           1     -21.229  -5.151  -8.368  0.00  0.00     0.163 HD
ENDROOT
BRANCH   3   5
HETATM    5  C           1     -21.282  -5.316  -6.231  0.00  0.00     0.189 C 
BRANCH   5   6
HETATM    6  C           1     -19.905  -4.718  -6.091  0.00  0.00     0.197 C 
HETATM    7  O           1     -19.530  -4.261  -4.990  0.00  0.00    -0.646 OA
HETATM    8  O           1     -19.138  -4.679  -7.077  0.00  0.00    -0.646 OA
ENDBRANCH   5   6
BRANCH   5   9
HETATM    9  C           1     -21.203  -6.826  -6.049  0.00  0.00     0.074 C 
BRANCH   9  10
HETATM   10  C           1     -21.136  -7.152  -4.589  0.00  0.00    -0.056 A 
HETATM   11  C           1     -20.303  -8.176  -4.140  0.00  0.00     0.010 A 
HETATM   12  C           1     -20.241  -8.479  -2.780  0.00  0.00     0.037 A 
HETATM   13  C           1     -21.014  -7.759  -1.870  0.00  0.00     0.065 A 
HETATM   14  C           1     -21.848  -6.734  -2.318  0.00  0.00     0.037 A 
HETATM   15  C           1     -21.909  -6.431  -3.679  0.00  0.00     0.010 A 
BRANCH  13  16
HETATM   16  O           1     -20.954  -8.053  -0.548  0.00  0.00    -0.361 OA
HETATM   17  H           1     -21.262  -8.967  -0.430  0.00  0.00     0.217 HD
ENDBRANCH  13  16
ENDBRANCH   9  10
ENDBRANCH   5   9
ENDBRANCH   3   5
BRANCH   1  18
HETATM   18  C           1     -23.636  -4.239  -9.055  0.00  0.00     0.274 C 
BRANCH  18  19
HETATM   19  C           1     -22.513  -3.723  -9.945  0.00  0.00     0.044 C 
BRANCH  19  20
HETATM   20  C           1     -22.500  -4.505 -11.252  0.00  0.00     0.030 C 
BRANCH  20  21
HETATM   21  C           1     -21.357  -4.011 -12.129  0.00  0.00     0.230 C 
BRANCH  21  22
HETATM   22  N           1     -20.484  -3.082 -11.339  0.00  0.00    -0.079 N 
HETATM   23  H           1     -20.996  -2.189 -11.160  0.00  0.00     0.274 HD
HETATM   24  H           1     -19.612  -2.880 -11.879  0.00  0.00     0.274 HD
HETATM   25  H           1     -20.234  -3.528 -10.428  0.00  0.00     0.274 HD
ENDBRANCH  21  22
ENDBRANCH  20  21
ENDBRANCH  19  20
ENDBRANCH  18  19
BRANCH  18  26
HETATM   26  N           1     -24.703  -3.190  -8.941  0.00  0.00    -0.067 N 
HETATM   27  H           1     -25.541  -3.595  -8.467  0.00  0.00     0.275 HD
HETATM   28  H           1     -24.341  -2.386  -8.381  0.00  0.00     0.275 HD
HETATM   29  H           1     -24.969  -2.859  -9.896  0.00  0.00     0.275 HD
ENDBRANCH  18  26
ENDBRANCH   1  18
TORSDOF 11
ENDMDL
MODEL 8
REMARK VINA RESULT:      -6.2      3.118      4.404
REMARK  11 active torsions:
REMARK  status: ('A' for Active; 'I' for Inactive)
REMARK    1  A    between atoms: N_1  and  C_20 
REMARK    2  A    between atoms: C_2  and  C_3 
REMARK    3  A    between atoms: C_3  and  C_5 
REMARK    4  A    between atoms: C_3  and  N_17 
REMARK    5  A    between atoms: C_5  and  C_10 
REMARK       I    between atoms: C_7  and  N_17 
REMARK    6  A    between atoms: C_7  and  C_8 
REMARK    7  A    between atoms: C_8  and  C_22 
REMARK    8  A    between atoms: C_8  and  N_11 
REMARK    9  A    between atoms: C_9  and  O_14 
REMARK   10  A    between atoms: C_20  and  C_21 
REMARK   11  A    between atoms: C_21  and  C_22 
ROOT
HETATM    1  C           1     -33.945  -4.480 -15.401  0.00  0.00     0.249 C 
HETATM    2  O           1     -35.021  -5.025 -15.370  0.00  0.00    -0.271 OA
HETATM    3  N           1     -33.458  -3.862 -14.280  0.00  0.00    -0.344 N 
HETATM    4  H           1     -32.555  -3.405 -14.305  0.00  0.00     0.163 HD
ENDROOT
BRANCH   3   5
HETATM    5  C           1     -34.236  -3.865 -13.056  0.00  0.00     0.189 C 
BRANCH   5   6
HETATM    6  C           1     -34.964  -2.550 -12.921  0.00  0.00     0.197 C 
HETATM    7  O           1     -35.633  -2.309 -11.894  0.00  0.00    -0.646 OA
HETATM    8  O           1     -34.898  -1.702 -13.837  0.00  0.00    -0.646 OA
ENDBRANCH   5   6
BRANCH   5   9
HETATM    9  C           1     -33.306  -4.057 -11.865  0.00  0.00     0.074 C 
BRANCH   9  10
HETATM   10  C           1     -33.632  -5.348 -11.179  0.00  0.00    -0.056 A 
HETATM   11  C           1     -32.702  -6.388 -11.173  0.00  0.00     0.010 A 
HETATM   12  C           1     -33.005  -7.590 -10.535  0.00  0.00     0.037 A 
HETATM   13  C           1     -34.238  -7.752  -9.903  0.00  0.00     0.065 A 
HETATM   14  C           1     -35.168  -6.712  -9.909  0.00  0.00     0.037 A 
HETATM   15  C           1     -34.864  -5.510 -10.548  0.00  0.00     0.010 A 
BRANCH  13  16
HETATM   16  O           1     -34.533  -8.920  -9.283  0.00  0.00    -0.361 OA
HETATM   17  H           1     -34.137  -9.643  -9.798  0.00  0.00     0.217 HD
ENDBRANCH  13  16
ENDBRANCH   9  10
ENDBRANCH   5   9
ENDBRANCH   3   5
BRANCH   1  18
HETATM   18  C           1     -33.135  -4.477 -16.675  0.00  0.00     0.274 C 
BRANCH  18  19
HETATM   19  C           1     -31.651  -4.507 -16.333  0.00  0.00     0.044 C 
BRANCH  19  20
HETATM   20  C           1     -30.902  -5.307 -17.390  0.00  0.00     0.030 C 
BRANCH  20  21
HETATM   21  C           1     -29.772  -4.461 -17.962  0.00  0.00     0.230 C 
BRANCH  21  22
HETATM   22  N           1     -30.058  -3.010 -17.715  0.00  0.00    -0.079 N 
HETATM   23  H           1     -29.537  -2.690 -16.867  0.00  0.00     0.274 HD
HETATM   24  H           1     -31.083  -2.877 -17.564  0.00  0.00     0.274 HD
HETATM   25  H           1     -29.752  -2.449 -18.542  0.00  0.00     0.274 HD
ENDBRANCH  21  22
ENDBRANCH  20  21
ENDBRANCH  19  20
ENDBRANCH  18  19
BRANCH  18  26
HETATM   26  N           1     -33.442  -3.236 -17.459  0.00  0.00    -0.067 N 
HETATM   27  H           1     -32.753  -3.136 -18.238  0.00  0.00     0.275 HD
HETATM   28  H           1     -34.406  -3.304 -17.855  0.00  0.00     0.275 HD
HETATM   29  H           1     -33.380  -2.403 -16.831  0.00  0.00     0.275 HD
ENDBRANCH  18  26
ENDBRANCH   1  18
TORSDOF 11
ENDMDL
MODEL 9
REMARK VINA RESULT:      -6.1      4.806      7.283
REMARK  11 active torsions:
REMARK  status: ('A' for Active; 'I' for Inactive)
REMARK    1  A    between atoms: N_1  and  C_20 
REMARK    2  A    between atoms: C_2  and  C_3 
REMARK    3  A    between atoms: C_3  and  C_5 
REMARK    4  A    between atoms: C_3  and  N_17 
REMARK    5  A    between atoms: C_5  and  C_10 
REMARK       I    between atoms: C_7  and  N_17 
REMARK    6  A    between atoms: C_7  and  C_8 
REMARK    7  A    between atoms: C_8  and  C_22 
REMARK    8  A    between atoms: C_8  and  N_11 
REMARK    9  A    between atoms: C_9  and  O_14 
REMARK   10  A    between atoms: C_20  and  C_21 
REMARK   11  A    between atoms: C_21  and  C_22 
ROOT
HETATM    1  C           1     -34.092  -4.358 -13.422  0.00  0.00     0.249 C 
HETATM    2  O           1     -33.285  -3.553 -13.024  0.00  0.00    -0.271 OA
HETATM    3  N           1     -34.216  -4.598 -14.764  0.00  0.00    -0.344 N 
HETATM    4  H           1     -34.892  -5.272 -15.098  0.00  0.00     0.163 HD
ENDROOT
BRANCH   3   5
HETATM    5  C           1     -33.376  -3.885 -15.708  0.00  0.00     0.189 C 
BRANCH   5   6
HETATM    6  C           1     -34.208  -2.873 -16.457  0.00  0.00     0.197 C 
HETATM    7  O           1     -33.850  -2.485 -17.588  0.00  0.00    -0.646 OA
HETATM    8  O           1     -35.256  -2.423 -15.944  0.00  0.00    -0.646 OA
ENDBRANCH   5   6
BRANCH   5   9
HETATM    9  C           1     -32.768  -4.874 -16.693  0.00  0.00     0.074 C 
BRANCH   9  10
HETATM   10  C           1     -31.278  -4.729 -16.693  0.00  0.00    -0.056 A 
HETATM   11  C           1     -30.497  -5.549 -15.878  0.00  0.00     0.010 A 
HETATM   12  C           1     -29.110  -5.413 -15.878  0.00  0.00     0.037 A 
HETATM   13  C           1     -28.502  -4.457 -16.693  0.00  0.00     0.065 A 
HETATM   14  C           1     -29.283  -3.637 -17.508  0.00  0.00     0.037 A 
HETATM   15  C           1     -30.671  -3.773 -17.508  0.00  0.00     0.010 A 
BRANCH  13  16
HETATM   16  O           1     -27.153  -4.325 -16.693  0.00  0.00    -0.361 OA
HETATM   17  H           1     -26.896  -3.866 -15.876  0.00  0.00     0.217 HD
ENDBRANCH  13  16
ENDBRANCH   9  10
ENDBRANCH   5   9
ENDBRANCH   3   5
BRANCH   1  18
HETATM   18  C           1     -34.966  -5.100 -12.440  0.00  0.00     0.274 C 
BRANCH  18  19
HETATM   19  C           1     -34.316  -5.074 -11.062  0.00  0.00     0.044 C 
BRANCH  19  20
HETATM   20  C           1     -33.876  -6.481 -10.683  0.00  0.00     0.030 C 
BRANCH  20  21
HETATM   21  C           1     -34.806  -7.035  -9.613  0.00  0.00     0.230 C 
BRANCH  21  22
HETATM   22  N           1     -34.562  -8.506  -9.448  0.00  0.00    -0.079 N 
HETATM   23  H           1     -33.796  -8.807 -10.092  0.00  0.00     0.274 HD
HETATM   24  H           1     -35.435  -9.033  -9.676  0.00  0.00     0.274 HD
HETATM   25  H           1     -34.283  -8.704  -8.460  0.00  0.00     0.274 HD
ENDBRANCH  21  22
ENDBRANCH  20  21
ENDBRANCH  19  20
ENDBRANCH  18  19
BRANCH  18  26
HETATM   26  N           1     -35.127  -6.521 -12.890  0.00  0.00    -0.067 N 
HETATM   27  H           1     -35.406  -7.116 -12.077  0.00  0.00     0.275 HD
HETATM   28  H           1     -35.867  -6.571 -13.626  0.00  0.00     0.275 HD
HETATM   29  H           1     -34.222  -6.868 -13.280  0.00  0.00     0.275 HD
ENDBRANCH  18  26
ENDBRANCH   1  18
TORSDOF 11
ENDMDL
