MODEL 1
REMARK VINA RESULT:      -5.9      0.000      0.000
REMARK  5 active torsions:
REMARK  status: ('A' for Active; 'I' for Inactive)
REMARK       I    between atoms: C_1  and  N_8 
REMARK    1  A    between atoms: C_1  and  C_2 
REMARK    2  A    between atoms: C_2  and  N_5 
REMARK    3  A    between atoms: N_8  and  C_12 
REMARK    4  A    between atoms: C_10  and  C_12 
REMARK    5  A    between atoms: C_12  and  C_13 
ROOT
HETATM    1  C           1     -25.339  -6.553 -16.560  0.00  0.00     0.243 C 
HETATM    2  O           1     -25.098  -5.682 -15.758  0.00  0.00    -0.272 OA
HETATM    3  N           1     -26.610  -6.707 -17.041  0.00  0.00    -0.345 N 
HETATM    4  H           1     -26.812  -7.436 -17.714  0.00  0.00     0.163 HD
ENDROOT
BRANCH   3   5
HETATM    5  C           1     -27.670  -5.827 -16.588  0.00  0.00     0.189 C 
BRANCH   5   6
HETATM    6  C           1     -28.667  -5.610 -17.719  0.00  0.00     0.010 C 
HETATM    7  C           1     -29.015  -4.130 -17.811  0.00  0.00     0.012 C 
HETATM    8  C           1     -28.052  -6.070 -19.033  0.00  0.00     0.012 C 
ENDBRANCH   5   6
BRANCH   5   9
HETATM    9  C           1     -28.372  -6.452 -15.409  0.00  0.00     0.197 C 
HETATM   10  O           1     -28.027  -7.581 -15.002  0.00  0.00    -0.646 OA
HETATM   11  O           1     -29.300  -5.838 -14.837  0.00  0.00    -0.646 OA
ENDBRANCH   5   9
ENDBRANCH   3   5
BRANCH   1  12
HETATM   12  C           1     -24.236  -7.470 -17.032  0.00  0.00     0.332 C 
BRANCH  12  13
HETATM   13  N           1     -24.215  -7.496 -18.531  0.00  0.00    -0.071 N 
HETATM   14  H           1     -23.384  -6.967 -18.877  0.00  0.00     0.274 HD
HETATM   15  H           1     -25.088  -7.055 -18.899  0.00  0.00     0.274 HD
HETATM   16  H           1     -24.160  -8.486 -18.861  0.00  0.00     0.274 HD
ENDBRANCH  12  13
ENDBRANCH   1  12
TORSDOF 5
ENDMDL
MODEL 2
REMARK VINA RESULT:      -5.5     10.485     12.297
REMARK  5 active torsions:
REMARK  status: ('A' for Active; 'I' for Inactive)
REMARK       I    between atoms: C_1  and  N_8 
REMARK    1  A    between atoms: C_1  and  C_2 
REMARK    2  A    between atoms: C_2  and  N_5 
REMARK    3  A    between atoms: N_8  and  C_12 
REMARK    4  A    between atoms: C_10  and  C_12 
REMARK    5  A    between atoms: C_12  and  C_13 
ROOT
HETATM    1  C           1     -37.206  -0.034 -10.775  0.00  0.00     0.243 C 
HETATM    2  O           1     -38.012  -0.907 -10.989  0.00  0.00    -0.272 OA
HETATM    3  N           1     -36.050   0.026 -11.506  0.00  0.00    -0.345 N 
HETATM    4  H           1     -35.376   0.759 -11.328  0.00  0.00     0.163 HD
ENDROOT
BRANCH   3   5
HETATM    5  C           1     -35.793  -0.960 -12.538  0.00  0.00     0.189 C 
BRANCH   5   6
HETATM    6  C           1     -35.520  -0.253 -13.859  0.00  0.00     0.010 C 
HETATM    7  C           1     -36.842   0.113 -14.520  0.00  0.00     0.012 C 
HETATM    8  C           1     -34.713   1.011 -13.600  0.00  0.00     0.012 C 
ENDBRANCH   5   6
BRANCH   5   9
HETATM    9  C           1     -34.593  -1.789 -12.151  0.00  0.00     0.197 C 
HETATM   10  O           1     -33.973  -1.538 -11.095  0.00  0.00    -0.646 OA
HETATM   11  O           1     -34.218  -2.727 -12.888  0.00  0.00    -0.646 OA
ENDBRANCH   5   9
ENDBRANCH   3   5
BRANCH   1  12
HETATM   12  C           1     -37.474   0.994  -9.702  0.00  0.00     0.332 C 
BRANCH  12  13
HETATM   13  N           1     -36.245   1.170  -8.860  0.00  0.00    -0.071 N 
HETATM   14  H           1     -36.239   0.455  -8.099  0.00  0.00     0.274 HD
HETATM   15  H           1     -36.243   2.127  -8.442  0.00  0.00     0.274 HD
HETATM   16  H           1     -35.395   1.050  -9.457  0.00  0.00     0.274 HD
ENDBRANCH  12  13
ENDBRANCH   1  12
TORSDOF 5
ENDMDL
MODEL 3
REMARK VINA RESULT:      -5.4      8.692      9.757
REMARK  5 active torsions:
REMARK  status: ('A' for Active; 'I' for Inactive)
REMARK       I    between atoms: C_1  and  N_8 
REMARK    1  A    between atoms: C_1  and  C_2 
REMARK    2  A    between atoms: C_2  and  N_5 
REMARK    3  A    between atoms: N_8  and  C_12 
REMARK    4  A    between atoms: C_10  and  C_12 
REMARK    5  A    between atoms: C_12  and  C_13 
ROOT
HETATM    1  C           1     -21.787  -4.440  -7.366  0.00  0.00     0.243 C 
HETATM    2  O           1     -21.561  -3.272  -7.160  0.00  0.00    -0.272 OA
HETATM    3  N           1     -22.232  -4.845  -8.595  0.00  0.00    -0.345 N 
HETATM    4  H           1     -22.420  -5.824  -8.769  0.00  0.00     0.163 HD
ENDROOT
BRANCH   3   5
HETATM    5  C           1     -22.433  -3.870  -9.651  0.00  0.00     0.189 C 
BRANCH   5   6
HETATM    6  C           1     -21.484  -4.169 -10.804  0.00  0.00     0.010 C 
HETATM    7  C           1     -21.179  -2.880 -11.556  0.00  0.00     0.012 C 
HETATM    8  C           1     -20.191  -4.757 -10.258  0.00  0.00     0.012 C 
ENDBRANCH   5   6
BRANCH   5   9
HETATM    9  C           1     -23.859  -3.945 -10.138  0.00  0.00     0.197 C 
HETATM   10  O           1     -24.445  -2.910 -10.520  0.00  0.00    -0.646 OA
HETATM   11  O           1     -24.455  -5.045 -10.159  0.00  0.00    -0.646 OA
ENDBRANCH   5   9
ENDBRANCH   3   5
BRANCH   1  12
HETATM   12  C           1     -21.577  -5.455  -6.268  0.00  0.00     0.332 C 
BRANCH  12  13
HETATM   13  N           1     -20.877  -6.658  -6.826  0.00  0.00    -0.071 N 
HETATM   14  H           1     -21.570  -7.271  -7.310  0.00  0.00     0.274 HD
HETATM   15  H           1     -20.423  -7.189  -6.049  0.00  0.00     0.274 HD
HETATM   16  H           1     -20.148  -6.350  -7.509  0.00  0.00     0.274 HD
ENDBRANCH  12  13
ENDBRANCH   1  12
TORSDOF 5
ENDMDL
MODEL 4
REMARK VINA RESULT:      -5.4      1.947      2.545
REMARK  5 active torsions:
REMARK  status: ('A' for Active; 'I' for Inactive)
REMARK       I    between atoms: C_1  and  N_8 
REMARK    1  A    between atoms: C_1  and  C_2 
REMARK    2  A    between atoms: C_2  and  N_5 
REMARK    3  A    between atoms: N_8  and  C_12 
REMARK    4  A    between atoms: C_10  and  C_12 
REMARK    5  A    between atoms: C_12  and  C_13 
ROOT
HETATM    1  C           1     -26.866  -6.734 -15.791  0.00  0.00     0.243 C 
HETATM    2  O           1     -27.559  -7.454 -15.112  0.00  0.00    -0.272 OA
HETATM    3  N           1     -27.433  -5.962 -16.768  0.00  0.00    -0.345 N 
HETATM    4  H           1     -26.853  -5.358 -17.337  0.00  0.00     0.163 HD
ENDROOT
BRANCH   3   5
HETATM    5  C           1     -28.865  -6.010 -16.991  0.00  0.00     0.189 C 
BRANCH   5   6
HETATM    6  C           1     -29.335  -4.678 -17.562  0.00  0.00     0.010 C 
HETATM    7  C           1     -30.793  -4.451 -17.186  0.00  0.00     0.012 C 
HETATM    8  C           1     -28.482  -3.553 -16.991  0.00  0.00     0.012 C 
ENDBRANCH   5   6
BRANCH   5   9
HETATM    9  C           1     -29.185  -7.117 -17.965  0.00  0.00     0.197 C 
HETATM   10  O           1     -29.954  -8.043 -17.628  0.00  0.00    -0.646 OA
HETATM   11  O           1     -28.682  -7.108 -19.109  0.00  0.00    -0.646 OA
ENDBRANCH   5   9
ENDBRANCH   3   5
BRANCH   1  12
HETATM   12  C           1     -25.375  -6.683 -15.559  0.00  0.00     0.332 C 
BRANCH  12  13
HETATM   13  N           1     -24.674  -7.428 -16.656  0.00  0.00    -0.071 N 
HETATM   14  H           1     -25.216  -7.333 -17.543  0.00  0.00     0.274 HD
HETATM   15  H           1     -24.599  -8.438 -16.398  0.00  0.00     0.274 HD
HETATM   16  H           1     -23.716  -7.031 -16.788  0.00  0.00     0.274 HD
ENDBRANCH  12  13
ENDBRANCH   1  12
TORSDOF 5
ENDMDL
MODEL 5
REMARK VINA RESULT:      -5.2      9.872     10.829
REMARK  5 active torsions:
REMARK  status: ('A' for Active; 'I' for Inactive)
REMARK       I    between atoms: C_1  and  N_8 
REMARK    1  A    between atoms: C_1  and  C_2 
REMARK    2  A    between atoms: C_2  and  N_5 
REMARK    3  A    between atoms: N_8  and  C_12 
REMARK    4  A    between atoms: C_10  and  C_12 
REMARK    5  A    between atoms: C_12  and  C_13 
ROOT
HETATM    1  C           1     -35.433  -1.684 -12.878  0.00  0.00     0.243 C 
HETATM    2  O           1     -36.539  -1.317 -12.564  0.00  0.00    -0.272 OA
HETATM    3  N           1     -34.898  -1.299 -14.077  0.00  0.00    -0.345 N 
HETATM    4  H           1     -33.969  -1.606 -14.340  0.00  0.00     0.163 HD
ENDROOT
BRANCH   3   5
HETATM    5  C           1     -35.660  -0.451 -14.973  0.00  0.00     0.189 C 
BRANCH   5   6
HETATM    6  C           1     -34.981   0.908 -15.085  0.00  0.00     0.010 C 
HETATM    7  C           1     -35.951   1.911 -15.695  0.00  0.00     0.012 C 
HETATM    8  C           1     -34.564   1.383 -13.699  0.00  0.00     0.012 C 
ENDBRANCH   5   6
BRANCH   5   9
HETATM    9  C           1     -35.730  -1.093 -16.336  0.00  0.00     0.197 C 
HETATM   10  O           1     -36.734  -0.919 -17.059  0.00  0.00    -0.646 OA
HETATM   11  O           1     -34.783  -1.802 -16.742  0.00  0.00    -0.646 OA
ENDBRANCH   5   9
ENDBRANCH   3   5
BRANCH   1  12
HETATM   12  C           1     -34.638  -2.568 -11.946  0.00  0.00     0.332 C 
BRANCH  12  13
HETATM   13  N           1     -33.909  -1.716 -10.951  0.00  0.00    -0.071 N 
HETATM   14  H           1     -34.556  -0.988 -10.574  0.00  0.00     0.274 HD
HETATM   15  H           1     -33.096  -1.253 -11.418  0.00  0.00     0.274 HD
HETATM   16  H           1     -33.564  -2.315 -10.167  0.00  0.00     0.274 HD
ENDBRANCH  12  13
ENDBRANCH   1  12
TORSDOF 5
ENDMDL
MODEL 6
REMARK VINA RESULT:      -5.1      3.943      5.825
REMARK  5 active torsions:
REMARK  status: ('A' for Active; 'I' for Inactive)
REMARK       I    between atoms: C_1  and  N_8 
REMARK    1  A    between atoms: C_1  and  C_2 
REMARK    2  A    between atoms: C_2  and  N_5 
REMARK    3  A    between atoms: N_8  and  C_12 
REMARK    4  A    between atoms: C_10  and  C_12 
REMARK    5  A    between atoms: C_12  and  C_13 
ROOT
HETATM    1  C           1     -32.037  -4.393 -16.891  0.00  0.00     0.243 C 
HETATM    2  O           1     -31.549  -3.576 -17.634  0.00  0.00    -0.272 OA
HETATM    3  N           1     -31.430  -5.607 -16.715  0.00  0.00    -0.345 N 
HETATM    4  H           1     -31.839  -6.291 -16.091  0.00  0.00     0.163 HD
ENDROOT
BRANCH   3   5
HETATM    5  C           1     -30.201  -5.913 -17.421  0.00  0.00     0.189 C 
BRANCH   5   6
HETATM    6  C           1     -29.014  -5.694 -16.491  0.00  0.00     0.010 C 
HETATM    7  C           1     -28.305  -4.400 -16.870  0.00  0.00     0.012 C 
HETATM    8  C           1     -29.507  -5.602 -15.053  0.00  0.00     0.012 C 
ENDBRANCH   5   6
BRANCH   5   9
HETATM    9  C           1     -30.228  -7.351 -17.875  0.00  0.00     0.197 C 
HETATM   10  O           1     -29.540  -8.208 -17.280  0.00  0.00    -0.646 OA
HETATM   11  O           1     -30.939  -7.686 -18.848  0.00  0.00    -0.646 OA
ENDBRANCH   5   9
ENDBRANCH   3   5
BRANCH   1  12
HETATM   12  C           1     -33.317  -4.075 -16.156  0.00  0.00     0.332 C 
BRANCH  12  13
HETATM   13  N           1     -34.093  -3.048 -16.925  0.00  0.00    -0.071 N 
HETATM   14  H           1     -34.794  -3.525 -17.535  0.00  0.00     0.274 HD
HETATM   15  H           1     -33.438  -2.488 -17.517  0.00  0.00     0.274 HD
HETATM   16  H           1     -34.587  -2.413 -16.257  0.00  0.00     0.274 HD
ENDBRANCH  12  13
ENDBRANCH   1  12
TORSDOF 5
ENDMDL
MODEL 7
REMARK VINA RESULT:      -5.1      2.443      2.881
REMARK  5 active torsions:
REMARK  status: ('A' for Active; 'I' for Inactive)
REMARK       I    between atoms: C_1  and  N_8 
REMARK    1  A    between atoms: C_1  and  C_2 
REMARK    2  A    between atoms: C_2  and  N_5 
REMARK    3  A    between atoms: N_8  and  C_12 
REMARK    4  A    between atoms: C_10  and  C_12 
REMARK    5  A    between atoms: C_12  and  C_13 
ROOT
HETATM    1  C           1     -26.434  -6.483 -19.578  0.00  0.00     0.243 C 
HETATM    2  O           1     -26.998  -5.991 -20.525  0.00  0.00    -0.272 OA
HETATM    3  N           1     -27.031  -6.481 -18.347  0.00  0.00    -0.345 N 
HETATM    4  H           1     -26.558  -6.895 -17.554  0.00  0.00     0.163 HD
ENDROOT
BRANCH   3   5
HETATM    5  C           1     -28.342  -5.884 -18.178  0.00  0.00     0.189 C 
BRANCH   5   6
HETATM    6  C           1     -29.306  -6.927 -17.626  0.00  0.00     0.010 C 
HETATM    7  C           1     -30.569  -6.236 -17.129  0.00  0.00     0.012 C 
HETATM    8  C           1     -29.667  -7.916 -18.725  0.00  0.00     0.012 C 
ENDBRANCH   5   6
BRANCH   5   9
HETATM    9  C           1     -28.247  -4.726 -17.217  0.00  0.00     0.197 C 
HETATM   10  O           1     -28.738  -3.618 -17.521  0.00  0.00    -0.646 OA
HETATM   11  O           1     -27.676  -4.874 -16.114  0.00  0.00    -0.646 OA
ENDBRANCH   5   9
ENDBRANCH   3   5
BRANCH   1  12
HETATM   12  C           1     -25.068  -7.105 -19.753  0.00  0.00     0.332 C 
BRANCH  12  13
HETATM   13  N           1     -24.463  -7.369 -18.407  0.00  0.00    -0.071 N 
HETATM   14  H           1     -23.864  -8.223 -18.455  0.00  0.00     0.274 HD
HETATM   15  H           1     -25.225  -7.516 -17.706  0.00  0.00     0.274 HD
HETATM   16  H           1     -23.880  -6.550 -18.120  0.00  0.00     0.274 HD
ENDBRANCH  12  13
ENDBRANCH   1  12
TORSDOF 5
ENDMDL
MODEL 8
REMARK VINA RESULT:      -5.0      3.009      4.981
REMARK  5 active torsions:
REMARK  status: ('A' for Active; 'I' for Inactive)
REMARK       I    between atoms: C_1  and  N_8 
REMARK    1  A    between atoms: C_1  and  C_2 
REMARK    2  A    between atoms: C_2  and  N_5 
REMARK    3  A    between atoms: N_8  and  C_12 
REMARK    4  A    between atoms: C_10  and  C_12 
REMARK    5  A    between atoms: C_12  and  C_13 
ROOT
HETATM    1  C           1     -31.236  -4.722 -17.203  0.00  0.00     0.243 C 
HETATM    2  O           1     -32.045  -5.566 -16.899  0.00  0.00    -0.272 OA
HETATM    3  N           1     -29.898  -5.004 -17.145  0.00  0.00    -0.345 N 
HETATM    4  H           1     -29.220  -4.297 -17.401  0.00  0.00     0.163 HD
ENDROOT
BRANCH   3   5
HETATM    5  C           1     -29.450  -6.315 -16.717  0.00  0.00     0.189 C 
BRANCH   5   6
HETATM    6  C           1     -28.856  -7.061 -17.905  0.00  0.00     0.010 C 
HETATM    7  C           1     -29.962  -7.804 -18.641  0.00  0.00     0.012 C 
HETATM    8  C           1     -28.196  -6.066 -18.849  0.00  0.00     0.012 C 
ENDBRANCH   5   6
BRANCH   5   9
HETATM    9  C           1     -28.404  -6.162 -15.642  0.00  0.00     0.197 C 
HETATM   10  O           1     -27.990  -7.166 -15.024  0.00  0.00    -0.646 OA
HETATM   11  O           1     -27.949  -5.029 -15.369  0.00  0.00    -0.646 OA
ENDBRANCH   5   9
ENDBRANCH   3   5
BRANCH   1  12
HETATM   12  C           1     -31.701  -3.357 -17.649  0.00  0.00     0.332 C 
BRANCH  12  13
HETATM   13  N           1     -33.200  -3.308 -17.628  0.00  0.00    -0.071 N 
HETATM   14  H           1     -33.536  -3.334 -16.639  0.00  0.00     0.274 HD
HETATM   15  H           1     -33.582  -4.129 -18.149  0.00  0.00     0.274 HD
HETATM   16  H           1     -33.526  -2.425 -18.083  0.00  0.00     0.274 HD
ENDBRANCH  12  13
ENDBRANCH   1  12
TORSDOF 5
ENDMDL
MODEL 9
REMARK VINA RESULT:      -4.8      3.585      5.501
REMARK  5 active torsions:
REMARK  status: ('A' for Active; 'I' for Inactive)
REMARK       I    between atoms: C_1  and  N_8 
REMARK    1  A    between atoms: C_1  and  C_2 
REMARK    2  A    between atoms: C_2  and  N_5 
REMARK    3  A    between atoms: N_8  and  C_12 
REMARK    4  A    between atoms: C_10  and  C_12 
REMARK    5  A    between atoms: C_12  and  C_13 
ROOT
HETATM    1  C           1     -31.294  -4.058 -17.232  0.00  0.00     0.243 C 
HETATM    2  O           1     -30.864  -3.011 -17.652  0.00  0.00    -0.272 OA
HETATM    3  N           1     -30.464  -5.140 -17.109  0.00  0.00    -0.345 N 
HETATM    4  H           1     -30.824  -6.017 -16.755  0.00  0.00     0.163 HD
ENDROOT
BRANCH   3   5
HETATM    5  C           1     -29.068  -5.029 -17.486  0.00  0.00     0.189 C 
BRANCH   5   6
HETATM    6  C           1     -28.196  -5.148 -16.242  0.00  0.00     0.010 C 
HETATM    7  C           1     -28.927  -5.969 -15.187  0.00  0.00     0.012 C 
HETATM    8  C           1     -26.887  -5.836 -16.604  0.00  0.00     0.012 C 
ENDBRANCH   5   6
BRANCH   5   9
HETATM    9  C           1     -28.720  -6.133 -18.453  0.00  0.00     0.197 C 
HETATM   10  O           1     -27.812  -5.964 -19.295  0.00  0.00    -0.646 OA
HETATM   11  O           1     -29.341  -7.218 -18.413  0.00  0.00    -0.646 OA
ENDBRANCH   5   9
ENDBRANCH   3   5
BRANCH   1  12
HETATM   12  C           1     -32.747  -4.174 -16.839  0.00  0.00     0.332 C 
BRANCH  12  13
HETATM   13  N           1     -33.527  -3.064 -17.478  0.00  0.00    -0.071 N 
HETATM   14  H           1     -33.521  -2.228 -16.851  0.00  0.00     0.274 HD
HETATM   15  H           1     -34.512  -3.376 -17.635  0.00  0.00     0.274 HD
HETATM   16  H           1     -33.091  -2.814 -18.394  0.00  0.00     0.274 HD
ENDBRANCH  12  13
ENDBRANCH   1  12
TORSDOF 5
ENDMDL
