MODEL 1
REMARK VINA RESULT:      -6.7      0.000      0.000
REMARK  11 active torsions:
REMARK  status: ('A' for Active; 'I' for Inactive)
REMARK    1  A    between atoms: C_1  and  C_16 
REMARK    2  A    between atoms: C_5  and  C_16 
REMARK    3  A    between atoms: C_5  and  C_12 
REMARK    4  A    between atoms: C_5  and  N_21 
REMARK    5  A    between atoms: N_10  and  C_19 
REMARK    6  A    between atoms: N_11  and  C_23 
REMARK    7  A    between atoms: C_18  and  C_19 
REMARK    8  A    between atoms: C_18  and  C_25 
REMARK    9  A    between atoms: C_19  and  C_20 
REMARK       I    between atoms: C_20  and  N_21 
REMARK   10  A    between atoms: C_23  and  C_24 
REMARK   11  A    between atoms: C_24  and  C_25 
ROOT
HETATM    1  C           1     -34.185  -4.136 -12.413  0.00  0.00     0.274 C 
ENDROOT
BRANCH   1   2
HETATM    2  N           1     -33.507  -4.112 -13.751  0.00  0.00    -0.067 N 
HETATM    3  H           1     -33.197  -5.078 -14.002  0.00  0.00     0.275 HD
HETATM    4  H           1     -34.176  -3.762 -14.473  0.00  0.00     0.275 HD
HETATM    5  H           1     -32.676  -3.479 -13.710  0.00  0.00     0.275 HD
ENDBRANCH   1   2
BRANCH   1   6
HETATM    6  C           1     -33.301  -4.867 -11.411  0.00  0.00     0.042 C 
BRANCH   6   7
HETATM    7  C           1     -34.175  -5.546 -10.364  0.00  0.00     0.004 C 
BRANCH   7   8
HETATM    8  C           1     -34.658  -6.888 -10.897  0.00  0.00     0.027 C 
BRANCH   8   9
HETATM    9  C           1     -34.507  -7.950  -9.816  0.00  0.00     0.229 C 
BRANCH   9  10
HETATM   10  N           1     -33.474  -8.952 -10.239  0.00  0.00    -0.079 N 
HETATM   11  H           1     -33.456  -9.742  -9.556  0.00  0.00     0.274 HD
HETATM   12  H           1     -32.535  -8.493 -10.267  0.00  0.00     0.274 HD
HETATM   13  H           1     -33.711  -9.316 -11.190  0.00  0.00     0.274 HD
ENDBRANCH   9  10
ENDBRANCH   8   9
ENDBRANCH   7   8
ENDBRANCH   6   7
ENDBRANCH   1   6
BRANCH   1  14
HETATM   14  C           1     -34.416  -2.720 -11.942  0.00  0.00     0.249 C 
HETATM   15  O           1     -33.578  -2.162 -11.274  0.00  0.00    -0.271 OA
HETATM   16  N           1     -35.575  -2.070 -12.271  0.00  0.00    -0.345 N 
HETATM   17  H           1     -36.277  -2.539 -12.830  0.00  0.00     0.163 HD
BRANCH  16  18
HETATM   18  C           1     -35.798  -0.711 -11.818  0.00  0.00     0.185 C 
BRANCH  18  19
HETATM   19  C           1     -36.473   0.088 -12.924  0.00  0.00     0.040 C 
BRANCH  19  20
HETATM   20  C           1     -35.563   0.133 -14.145  0.00  0.00    -0.020 C 
HETATM   21  C           1     -36.403   0.370 -15.394  0.00  0.00     0.009 C 
HETATM   22  C           1     -34.559   1.267 -13.986  0.00  0.00     0.009 C 
ENDBRANCH  19  20
ENDBRANCH  18  19
BRANCH  18  23
HETATM   23  C           1     -36.682  -0.728 -10.596  0.00  0.00     0.196 C 
HETATM   24  O           1     -36.197  -0.484  -9.470  0.00  0.00    -0.646 OA
HETATM   25  O           1     -37.900  -0.985 -10.709  0.00  0.00    -0.646 OA
ENDBRANCH  18  23
ENDBRANCH  16  18
ENDBRANCH   1  14
TORSDOF 11
ENDMDL
MODEL 2
REMARK VINA RESULT:      -5.9      1.866      2.765
REMARK  11 active torsions:
REMARK  status: ('A' for Active; 'I' for Inactive)
REMARK    1  A    between atoms: C_1  and  C_16 
REMARK    2  A    between atoms: C_5  and  C_16 
REMARK    3  A    between atoms: C_5  and  C_12 
REMARK    4  A    between atoms: C_5  and  N_21 
REMARK    5  A    between atoms: N_10  and  C_19 
REMARK    6  A    between atoms: N_11  and  C_23 
REMARK    7  A    between atoms: C_18  and  C_19 
REMARK    8  A    between atoms: C_18  and  C_25 
REMARK    9  A    between atoms: C_19  and  C_20 
REMARK       I    between atoms: C_20  and  N_21 
REMARK   10  A    between atoms: C_23  and  C_24 
REMARK   11  A    between atoms: C_24  and  C_25 
ROOT
HETATM    1  C           1     -34.124  -4.204 -12.742  0.00  0.00     0.274 C 
ENDROOT
BRANCH   1   2
HETATM    2  N           1     -33.335  -4.095 -14.014  0.00  0.00    -0.067 N 
HETATM    3  H           1     -33.291  -3.095 -14.312  0.00  0.00     0.275 HD
HETATM    4  H           1     -32.367  -4.453 -13.853  0.00  0.00     0.275 HD
HETATM    5  H           1     -33.797  -4.662 -14.760  0.00  0.00     0.275 HD
ENDBRANCH   1   2
BRANCH   1   6
HETATM    6  C           1     -33.168  -4.263 -11.557  0.00  0.00     0.042 C 
BRANCH   6   7
HETATM    7  C           1     -33.815  -5.044 -10.421  0.00  0.00     0.004 C 
BRANCH   7   8
HETATM    8  C           1     -34.387  -6.347 -10.961  0.00  0.00     0.027 C 
BRANCH   8   9
HETATM    9  C           1     -34.811  -7.237  -9.800  0.00  0.00     0.229 C 
BRANCH   9  10
HETATM   10  N           1     -34.247  -8.614  -9.993  0.00  0.00    -0.079 N 
HETATM   11  H           1     -33.234  -8.613  -9.737  0.00  0.00     0.274 HD
HETATM   12  H           1     -34.354  -8.898 -10.993  0.00  0.00     0.274 HD
HETATM   13  H           1     -34.761  -9.289  -9.382  0.00  0.00     0.274 HD
ENDBRANCH   9  10
ENDBRANCH   8   9
ENDBRANCH   7   8
ENDBRANCH   6   7
ENDBRANCH   1   6
BRANCH   1  14
HETATM   14  C           1     -35.023  -2.999 -12.604  0.00  0.00     0.249 C 
HETATM   15  O           1     -35.938  -3.016 -11.816  0.00  0.00    -0.271 OA
HETATM   16  N           1     -34.802  -1.889 -13.373  0.00  0.00    -0.345 N 
HETATM   17  H           1     -34.035  -1.875 -14.035  0.00  0.00     0.163 HD
BRANCH  16  18
HETATM   18  C           1     -35.667  -0.732 -13.243  0.00  0.00     0.185 C 
BRANCH  18  19
HETATM   19  C           1     -35.326   0.012 -11.959  0.00  0.00     0.040 C 
BRANCH  19  20
HETATM   20  C           1     -36.604   0.278 -11.172  0.00  0.00    -0.020 C 
HETATM   21  C           1     -37.803  -0.219 -11.969  0.00  0.00     0.009 C 
HETATM   22  C           1     -36.540  -0.458  -9.839  0.00  0.00     0.009 C 
ENDBRANCH  19  20
ENDBRANCH  18  19
BRANCH  18  23
HETATM   23  C           1     -35.465   0.183 -14.424  0.00  0.00     0.196 C 
HETATM   24  O           1     -34.310   0.525 -14.760  0.00  0.00    -0.646 OA
HETATM   25  O           1     -36.451   0.598 -15.069  0.00  0.00    -0.646 OA
ENDBRANCH  18  23
ENDBRANCH  16  18
ENDBRANCH   1  14
TORSDOF 11
ENDMDL
MODEL 3
REMARK VINA RESULT:      -5.9      3.960      6.488
REMARK  11 active torsions:
REMARK  status: ('A' for Active; 'I' for Inactive)
REMARK    1  A    between atoms: C_1  and  C_16 
REMARK    2  A    between atoms: C_5  and  C_16 
REMARK    3  A    between atoms: C_5  and  C_12 
REMARK    4  A    between atoms: C_5  and  N_21 
REMARK    5  A    between atoms: N_10  and  C_19 
REMARK    6  A    between atoms: N_11  and  C_23 
REMARK    7  A    between atoms: C_18  and  C_19 
REMARK    8  A    between atoms: C_18  and  C_25 
REMARK    9  A    between atoms: C_19  and  C_20 
REMARK       I    between atoms: C_20  and  N_21 
REMARK   10  A    between atoms: C_23  and  C_24 
REMARK   11  A    between atoms: C_24  and  C_25 
ROOT
HETATM    1  C           1     -33.287  -4.367 -16.763  0.00  0.00     0.274 C 
ENDROOT
BRANCH   1   2
HETATM    2  N           1     -33.521  -3.001 -17.339  0.00  0.00    -0.067 N 
HETATM    3  H           1     -34.540  -2.775 -17.295  0.00  0.00     0.275 HD
HETATM    4  H           1     -32.983  -2.295 -16.787  0.00  0.00     0.275 HD
HETATM    5  H           1     -33.201  -2.983 -18.333  0.00  0.00     0.275 HD
ENDBRANCH   1   2
BRANCH   1   6
HETATM    6  C           1     -31.793  -4.580 -16.557  0.00  0.00     0.042 C 
BRANCH   6   7
HETATM    7  C           1     -31.019  -3.813 -17.620  0.00  0.00     0.004 C 
BRANCH   7   8
HETATM    8  C           1     -29.582  -4.315 -17.665  0.00  0.00     0.027 C 
BRANCH   8   9
HETATM    9  C           1     -28.645  -3.225 -17.163  0.00  0.00     0.229 C 
BRANCH   9  10
HETATM   10  N           1     -29.284  -1.883 -17.368  0.00  0.00    -0.079 N 
HETATM   11  H           1     -28.612  -1.249 -17.857  0.00  0.00     0.274 HD
HETATM   12  H           1     -29.539  -1.473 -16.441  0.00  0.00     0.274 HD
HETATM   13  H           1     -30.146  -1.993 -17.949  0.00  0.00     0.274 HD
ENDBRANCH   9  10
ENDBRANCH   8   9
ENDBRANCH   7   8
ENDBRANCH   6   7
ENDBRANCH   1   6
BRANCH   1  14
HETATM   14  C           1     -34.000  -4.482 -15.437  0.00  0.00     0.249 C 
HETATM   15  O           1     -35.052  -5.071 -15.367  0.00  0.00    -0.271 OA
HETATM   16  N           1     -33.455  -3.918 -14.316  0.00  0.00    -0.345 N 
HETATM   17  H           1     -32.573  -3.424 -14.375  0.00  0.00     0.163 HD
BRANCH  16  18
HETATM   18  C           1     -34.140  -4.027 -13.043  0.00  0.00     0.185 C 
BRANCH  18  19
HETATM   19  C           1     -33.201  -4.641 -12.012  0.00  0.00     0.040 C 
BRANCH  19  20
HETATM   20  C           1     -33.911  -5.780 -11.293  0.00  0.00    -0.020 C 
HETATM   21  C           1     -34.410  -5.293  -9.940  0.00  0.00     0.009 C 
HETATM   22  C           1     -35.093  -6.250 -12.132  0.00  0.00     0.009 C 
ENDBRANCH  19  20
ENDBRANCH  18  19
BRANCH  18  23
HETATM   23  C           1     -34.566  -2.656 -12.582  0.00  0.00     0.196 C 
HETATM   24  O           1     -35.525  -2.079 -13.140  0.00  0.00    -0.646 OA
HETATM   25  O           1     -33.962  -2.096 -11.643  0.00  0.00    -0.646 OA
ENDBRANCH  18  23
ENDBRANCH  16  18
ENDBRANCH   1  14
TORSDOF 11
ENDMDL
MODEL 4
REMARK VINA RESULT:      -5.8     13.771     16.438
REMARK  11 active torsions:
REMARK  status: ('A' for Active; 'I' for Inactive)
REMARK    1  A    between atoms: C_1  and  C_16 
REMARK    2  A    between atoms: C_5  and  C_16 
REMARK    3  A    between atoms: C_5  and  C_12 
REMARK    4  A    between atoms: C_5  and  N_21 
REMARK    5  A    between atoms: N_10  and  C_19 
REMARK    6  A    between atoms: N_11  and  C_23 
REMARK    7  A    between atoms: C_18  and  C_19 
REMARK    8  A    between atoms: C_18  and  C_25 
REMARK    9  A    between atoms: C_19  and  C_20 
REMARK       I    between atoms: C_20  and  N_21 
REMARK   10  A    between atoms: C_23  and  C_24 
REMARK   11  A    between atoms: C_24  and  C_25 
ROOT
HETATM    1  C           1     -20.829  -4.101  -7.231  0.00  0.00     0.274 C 
ENDROOT
BRANCH   1   2
HETATM    2  N           1     -19.628  -3.925  -8.115  0.00  0.00    -0.067 N 
HETATM    3  H           1     -19.824  -4.337  -9.054  0.00  0.00     0.275 HD
HETATM    4  H           1     -19.419  -2.906  -8.217  0.00  0.00     0.275 HD
HETATM    5  H           1     -18.807  -4.408  -7.686  0.00  0.00     0.275 HD
ENDBRANCH   1   2
BRANCH   1   6
HETATM    6  C           1     -21.953  -4.749  -8.029  0.00  0.00     0.042 C 
BRANCH   6   7
HETATM    7  C           1     -22.753  -3.671  -8.748  0.00  0.00     0.004 C 
BRANCH   7   8
HETATM    8  C           1     -22.726  -3.933 -10.247  0.00  0.00     0.027 C 
BRANCH   8   9
HETATM    9  C           1     -24.090  -4.434 -10.702  0.00  0.00     0.229 C 
BRANCH   9  10
HETATM   10  N           1     -25.137  -3.997  -9.721  0.00  0.00    -0.079 N 
HETATM   11  H           1     -26.069  -3.983 -10.191  0.00  0.00     0.274 HD
HETATM   12  H           1     -24.907  -3.040  -9.369  0.00  0.00     0.274 HD
HETATM   13  H           1     -25.161  -4.666  -8.917  0.00  0.00     0.274 HD
ENDBRANCH   9  10
ENDBRANCH   8   9
ENDBRANCH   7   8
ENDBRANCH   6   7
ENDBRANCH   1   6
BRANCH   1  14
HETATM   14  C           1     -20.467  -4.983  -6.062  0.00  0.00     0.249 C 
HETATM   15  O           1     -19.896  -4.514  -5.106  0.00  0.00    -0.271 OA
HETATM   16  N           1     -20.784  -6.314  -6.084  0.00  0.00    -0.345 N 
HETATM   17  H           1     -21.262  -6.707  -6.886  0.00  0.00     0.163 HD
BRANCH  16  18
HETATM   18  C           1     -20.435  -7.162  -4.961  0.00  0.00     0.185 C 
BRANCH  18  19
HETATM   19  C           1     -21.611  -7.236  -3.997  0.00  0.00     0.040 C 
BRANCH  19  20
HETATM   20  C           1     -21.139  -6.882  -2.592  0.00  0.00    -0.020 C 
HETATM   21  C           1     -22.267  -6.191  -1.838  0.00  0.00     0.009 C 
HETATM   22  C           1     -20.740  -8.155  -1.856  0.00  0.00     0.009 C 
ENDBRANCH  19  20
ENDBRANCH  18  19
BRANCH  18  23
HETATM   23  C           1     -20.105  -8.547  -5.461  0.00  0.00     0.196 C 
HETATM   24  O           1     -18.917  -8.864  -5.684  0.00  0.00    -0.646 OA
HETATM   25  O           1     -21.019  -9.377  -5.650  0.00  0.00    -0.646 OA
ENDBRANCH  18  23
ENDBRANCH  16  18
ENDBRANCH   1  14
TORSDOF 11
ENDMDL
MODEL 5
REMARK VINA RESULT:      -5.8     14.690     17.062
REMARK  11 active torsions:
REMARK  status: ('A' for Active; 'I' for Inactive)
REMARK    1  A    between atoms: C_1  and  C_16 
REMARK    2  A    between atoms: C_5  and  C_16 
REMARK    3  A    between atoms: C_5  and  C_12 
REMARK    4  A    between atoms: C_5  and  N_21 
REMARK    5  A    between atoms: N_10  and  C_19 
REMARK    6  A    between atoms: N_11  and  C_23 
REMARK    7  A    between atoms: C_18  and  C_19 
REMARK    8  A    between atoms: C_18  and  C_25 
REMARK    9  A    between atoms: C_19  and  C_20 
REMARK       I    between atoms: C_20  and  N_21 
REMARK   10  A    between atoms: C_23  and  C_24 
REMARK   11  A    between atoms: C_24  and  C_25 
ROOT
HETATM    1  C           1     -21.863  -5.105  -6.882  0.00  0.00     0.274 C 
ENDROOT
BRANCH   1   2
HETATM    2  N           1     -23.288  -4.853  -6.484  0.00  0.00    -0.067 N 
HETATM    3  H           1     -23.899  -4.897  -7.331  0.00  0.00     0.275 HD
HETATM    4  H           1     -23.590  -5.580  -5.798  0.00  0.00     0.275 HD
HETATM    5  H           1     -23.366  -3.907  -6.047  0.00  0.00     0.275 HD
ENDBRANCH   1   2
BRANCH   1   6
HETATM    6  C           1     -21.203  -3.786  -7.263  0.00  0.00     0.042 C 
BRANCH   6   7
HETATM    7  C           1     -20.318  -3.995  -8.485  0.00  0.00     0.004 C 
BRANCH   7   8
HETATM    8  C           1     -21.187  -4.308  -9.695  0.00  0.00     0.027 C 
BRANCH   8   9
HETATM    9  C           1     -20.373  -4.121 -10.968  0.00  0.00     0.229 C 
BRANCH   9  10
HETATM   10  N           1     -20.921  -2.962 -11.747  0.00  0.00    -0.079 N 
HETATM   11  H           1     -20.695  -3.086 -12.760  0.00  0.00     0.274 HD
HETATM   12  H           1     -20.492  -2.074 -11.400  0.00  0.00     0.274 HD
HETATM   13  H           1     -21.958  -2.919 -11.623  0.00  0.00     0.274 HD
ENDBRANCH   9  10
ENDBRANCH   8   9
ENDBRANCH   7   8
ENDBRANCH   6   7
ENDBRANCH   1   6
BRANCH   1  14
HETATM   14  C           1     -21.120  -5.722  -5.722  0.00  0.00     0.249 C 
HETATM   15  O           1     -20.482  -5.022  -4.972  0.00  0.00    -0.271 OA
HETATM   16  N           1     -21.169  -7.075  -5.520  0.00  0.00    -0.345 N 
HETATM   17  H           1     -21.704  -7.662  -6.149  0.00  0.00     0.163 HD
BRANCH  16  18
HETATM   18  C           1     -20.455  -7.669  -4.407  0.00  0.00     0.185 C 
BRANCH  18  19
HETATM   19  C           1     -21.449  -8.091  -3.334  0.00  0.00     0.040 C 
BRANCH  19  20
HETATM   20  C           1     -21.189  -7.297  -2.060  0.00  0.00    -0.020 C 
HETATM   21  C           1     -22.159  -6.125  -1.987  0.00  0.00     0.009 C 
HETATM   22  C           1     -21.391  -8.200  -0.850  0.00  0.00     0.009 C 
ENDBRANCH  19  20
ENDBRANCH  18  19
BRANCH  18  23
HETATM   23  C           1     -19.689  -8.876  -4.888  0.00  0.00     0.196 C 
HETATM   24  O           1     -20.182  -9.623  -5.760  0.00  0.00    -0.646 OA
HETATM   25  O           1     -18.561  -9.131  -4.414  0.00  0.00    -0.646 OA
ENDBRANCH  18  23
ENDBRANCH  16  18
ENDBRANCH   1  14
TORSDOF 11
ENDMDL
MODEL 6
REMARK VINA RESULT:      -5.5     14.546     17.520
REMARK  11 active torsions:
REMARK  status: ('A' for Active; 'I' for Inactive)
REMARK    1  A    between atoms: C_1  and  C_16 
REMARK    2  A    between atoms: C_5  and  C_16 
REMARK    3  A    between atoms: C_5  and  C_12 
REMARK    4  A    between atoms: C_5  and  N_21 
REMARK    5  A    between atoms: N_10  and  C_19 
REMARK    6  A    between atoms: N_11  and  C_23 
REMARK    7  A    between atoms: C_18  and  C_19 
REMARK    8  A    between atoms: C_18  and  C_25 
REMARK    9  A    between atoms: C_19  and  C_20 
REMARK       I    between atoms: C_20  and  N_21 
REMARK   10  A    between atoms: C_23  and  C_24 
REMARK   11  A    between atoms: C_24  and  C_25 
ROOT
HETATM    1  C           1     -21.396  -6.497  -5.501  0.00  0.00     0.274 C 
ENDROOT
BRANCH   1   2
HETATM    2  N           1     -22.750  -6.229  -4.911  0.00  0.00    -0.067 N 
HETATM    3  H           1     -23.254  -5.529  -5.500  0.00  0.00     0.275 HD
HETATM    4  H           1     -23.297  -7.118  -4.881  0.00  0.00     0.275 HD
HETATM    5  H           1     -22.639  -5.855  -3.942  0.00  0.00     0.275 HD
ENDBRANCH   1   2
BRANCH   1   6
HETATM    6  C           1     -20.559  -5.226  -5.447  0.00  0.00     0.042 C 
BRANCH   6   7
HETATM    7  C           1     -20.324  -4.712  -6.861  0.00  0.00     0.004 C 
BRANCH   7   8
HETATM    8  C           1     -21.314  -3.597  -7.169  0.00  0.00     0.027 C 
BRANCH   8   9
HETATM    9  C           1     -22.276  -4.056  -8.256  0.00  0.00     0.229 C 
BRANCH   9  10
HETATM   10  N           1     -23.660  -4.163  -7.688  0.00  0.00    -0.079 N 
HETATM   11  H           1     -24.025  -3.206  -7.480  0.00  0.00     0.274 HD
HETATM   12  H           1     -23.633  -4.726  -6.808  0.00  0.00     0.274 HD
HETATM   13  H           1     -24.286  -4.633  -8.382  0.00  0.00     0.274 HD
ENDBRANCH   9  10
ENDBRANCH   8   9
ENDBRANCH   7   8
ENDBRANCH   6   7
ENDBRANCH   1   6
BRANCH   1  14
HETATM   14  C           1     -20.711  -7.585  -4.710  0.00  0.00     0.249 C 
HETATM   15  O           1     -19.625  -7.988  -5.053  0.00  0.00    -0.271 OA
HETATM   16  N           1     -21.320  -8.116  -3.605  0.00  0.00    -0.345 N 
HETATM   17  H           1     -22.231  -7.778  -3.318  0.00  0.00     0.163 HD
BRANCH  16  18
HETATM   18  C           1     -20.663  -9.162  -2.846  0.00  0.00     0.185 C 
BRANCH  18  19
HETATM   19  C           1     -20.819  -8.883  -1.358  0.00  0.00     0.040 C 
BRANCH  19  20
HETATM   20  C           1     -22.275  -8.552  -1.054  0.00  0.00    -0.020 C 
HETATM   21  C           1     -22.838  -9.585  -0.086  0.00  0.00     0.009 C 
HETATM   22  C           1     -22.360  -7.167  -0.425  0.00  0.00     0.009 C 
ENDBRANCH  19  20
ENDBRANCH  18  19
BRANCH  18  23
HETATM   23  C           1     -21.289 -10.493  -3.178  0.00  0.00     0.196 C 
HETATM   24  O           1     -22.333 -10.539  -3.865  0.00  0.00    -0.646 OA
HETATM   25  O           1     -20.765 -11.550  -2.768  0.00  0.00    -0.646 OA
ENDBRANCH  18  23
ENDBRANCH  16  18
ENDBRANCH   1  14
TORSDOF 11
ENDMDL
MODEL 7
REMARK VINA RESULT:      -5.4      5.942      8.989
REMARK  11 active torsions:
REMARK  status: ('A' for Active; 'I' for Inactive)
REMARK    1  A    between atoms: C_1  and  C_16 
REMARK    2  A    between atoms: C_5  and  C_16 
REMARK    3  A    between atoms: C_5  and  C_12 
REMARK    4  A    between atoms: C_5  and  N_21 
REMARK    5  A    between atoms: N_10  and  C_19 
REMARK    6  A    between atoms: N_11  and  C_23 
REMARK    7  A    between atoms: C_18  and  C_19 
REMARK    8  A    between atoms: C_18  and  C_25 
REMARK    9  A    between atoms: C_19  and  C_20 
REMARK       I    between atoms: C_20  and  N_21 
REMARK   10  A    between atoms: C_23  and  C_24 
REMARK   11  A    between atoms: C_24  and  C_25 
ROOT
HETATM    1  C           1     -33.777  -4.112 -16.363  0.00  0.00     0.274 C 
ENDROOT
BRANCH   1   2
HETATM    2  N           1     -33.788  -4.061 -14.863  0.00  0.00    -0.067 N 
HETATM    3  H           1     -34.587  -3.470 -14.541  0.00  0.00     0.275 HD
HETATM    4  H           1     -33.896  -5.029 -14.485  0.00  0.00     0.275 HD
HETATM    5  H           1     -32.890  -3.651 -14.522  0.00  0.00     0.275 HD
ENDBRANCH   1   2
BRANCH   1   6
HETATM    6  C           1     -34.241  -2.771 -16.918  0.00  0.00     0.042 C 
BRANCH   6   7
HETATM    7  C           1     -35.238  -2.140 -15.955  0.00  0.00     0.004 C 
BRANCH   7   8
HETATM    8  C           1     -35.757  -0.836 -16.544  0.00  0.00     0.027 C 
BRANCH   8   9
HETATM    9  C           1     -36.054   0.147 -15.420  0.00  0.00     0.229 C 
BRANCH   9  10
HETATM   10  N           1     -36.690   1.381 -15.989  0.00  0.00    -0.079 N 
HETATM   11  H           1     -37.643   1.147 -16.349  0.00  0.00     0.274 HD
HETATM   12  H           1     -36.102   1.748 -16.771  0.00  0.00     0.274 HD
HETATM   13  H           1     -36.768   2.109 -15.242  0.00  0.00     0.274 HD
ENDBRANCH   9  10
ENDBRANCH   8   9
ENDBRANCH   7   8
ENDBRANCH   6   7
ENDBRANCH   1   6
BRANCH   1  14
HETATM   14  C           1     -32.375  -4.398 -16.845  0.00  0.00     0.249 C 
HETATM   15  O           1     -31.705  -3.510 -17.315  0.00  0.00    -0.271 OA
HETATM   16  N           1     -31.865  -5.665 -16.750  0.00  0.00    -0.345 N 
HETATM   17  H           1     -32.427  -6.410 -16.357  0.00  0.00     0.163 HD
BRANCH  16  18
HETATM   18  C           1     -30.519  -5.941 -17.214  0.00  0.00     0.185 C 
BRANCH  18  19
HETATM   19  C           1     -29.546  -5.819 -16.049  0.00  0.00     0.040 C 
BRANCH  19  20
HETATM   20  C           1     -28.354  -4.969 -16.471  0.00  0.00    -0.020 C 
HETATM   21  C           1     -27.112  -5.847 -16.556  0.00  0.00     0.009 C 
HETATM   22  C           1     -28.631  -4.347 -17.833  0.00  0.00     0.009 C 
ENDBRANCH  19  20
ENDBRANCH  18  19
BRANCH  18  23
HETATM   23  C           1     -30.459  -7.339 -17.777  0.00  0.00     0.196 C 
HETATM   24  O           1     -29.691  -8.185 -17.269  0.00  0.00    -0.646 OA
HETATM   25  O           1     -31.176  -7.652 -18.751  0.00  0.00    -0.646 OA
ENDBRANCH  18  23
ENDBRANCH  16  18
ENDBRANCH   1  14
TORSDOF 11
ENDMDL
MODEL 8
REMARK VINA RESULT:      -5.3     13.962     16.051
REMARK  11 active torsions:
REMARK  status: ('A' for Active; 'I' for Inactive)
REMARK    1  A    between atoms: C_1  and  C_16 
REMARK    2  A    between atoms: C_5  and  C_16 
REMARK    3  A    between atoms: C_5  and  C_12 
REMARK    4  A    between atoms: C_5  and  N_21 
REMARK    5  A    between atoms: N_10  and  C_19 
REMARK    6  A    between atoms: N_11  and  C_23 
REMARK    7  A    between atoms: C_18  and  C_19 
REMARK    8  A    between atoms: C_18  and  C_25 
REMARK    9  A    between atoms: C_19  and  C_20 
REMARK       I    between atoms: C_20  and  N_21 
REMARK   10  A    between atoms: C_23  and  C_24 
REMARK   11  A    between atoms: C_24  and  C_25 
ROOT
HETATM    1  C           1     -21.764  -8.084  -4.173  0.00  0.00     0.274 C 
ENDROOT
BRANCH   1   2
HETATM    2  N           1     -21.046  -9.389  -3.990  0.00  0.00    -0.067 N 
HETATM    3  H           1     -20.030  -9.261  -4.197  0.00  0.00     0.275 HD
HETATM    4  H           1     -21.162  -9.713  -3.003  0.00  0.00     0.275 HD
HETATM    5  H           1     -21.447 -10.102  -4.640  0.00  0.00     0.275 HD
ENDBRANCH   1   2
BRANCH   1   6
HETATM    6  C           1     -21.591  -7.232  -2.923  0.00  0.00     0.042 C 
BRANCH   6   7
HETATM    7  C           1     -20.602  -7.905  -1.981  0.00  0.00     0.004 C 
BRANCH   7   8
HETATM    8  C           1     -21.285  -8.204  -0.654  0.00  0.00     0.027 C 
BRANCH   8   9
HETATM    9  C           1     -22.512  -7.315  -0.502  0.00  0.00     0.229 C 
BRANCH   9  10
HETATM   10  N           1     -23.439  -7.910   0.516  0.00  0.00    -0.079 N 
HETATM   11  H           1     -24.378  -7.459   0.438  0.00  0.00     0.274 HD
HETATM   12  H           1     -23.053  -7.751   1.475  0.00  0.00     0.274 HD
HETATM   13  H           1     -23.530  -8.938   0.345  0.00  0.00     0.274 HD
ENDBRANCH   9  10
ENDBRANCH   8   9
ENDBRANCH   7   8
ENDBRANCH   6   7
ENDBRANCH   1   6
BRANCH   1  14
HETATM   14  C           1     -21.186  -7.357  -5.363  0.00  0.00     0.249 C 
HETATM   15  O           1     -20.275  -7.847  -5.986  0.00  0.00    -0.271 OA
HETATM   16  N           1     -21.694  -6.141  -5.735  0.00  0.00    -0.345 N 
HETATM   17  H           1     -22.457  -5.730  -5.211  0.00  0.00     0.163 HD
BRANCH  16  18
HETATM   18  C           1     -21.138  -5.441  -6.876  0.00  0.00     0.185 C 
BRANCH  18  19
HETATM   19  C           1     -22.132  -4.394  -7.361  0.00  0.00     0.040 C 
BRANCH  19  20
HETATM   20  C           1     -22.470  -4.654  -8.824  0.00  0.00    -0.020 C 
HETATM   21  C           1     -23.813  -4.018  -9.155  0.00  0.00     0.009 C 
HETATM   22  C           1     -21.388  -4.048  -9.709  0.00  0.00     0.009 C 
ENDBRANCH  19  20
ENDBRANCH  18  19
BRANCH  18  23
HETATM   23  C           1     -19.851  -4.766  -6.474  0.00  0.00     0.196 C 
HETATM   24  O           1     -19.704  -4.345  -5.307  0.00  0.00    -0.646 OA
HETATM   25  O           1     -18.931  -4.628  -7.308  0.00  0.00    -0.646 OA
ENDBRANCH  18  23
ENDBRANCH  16  18
ENDBRANCH   1  14
TORSDOF 11
ENDMDL
MODEL 9
REMARK VINA RESULT:      -5.3     15.073     17.939
REMARK  11 active torsions:
REMARK  status: ('A' for Active; 'I' for Inactive)
REMARK    1  A    between atoms: C_1  and  C_16 
REMARK    2  A    between atoms: C_5  and  C_16 
REMARK    3  A    between atoms: C_5  and  C_12 
REMARK    4  A    between atoms: C_5  and  N_21 
REMARK    5  A    between atoms: N_10  and  C_19 
REMARK    6  A    between atoms: N_11  and  C_23 
REMARK    7  A    between atoms: C_18  and  C_19 
REMARK    8  A    between atoms: C_18  and  C_25 
REMARK    9  A    between atoms: C_19  and  C_20 
REMARK       I    between atoms: C_20  and  N_21 
REMARK   10  A    between atoms: C_23  and  C_24 
REMARK   11  A    between atoms: C_24  and  C_25 
ROOT
HETATM    1  C           1     -19.970  -7.770  -5.034  0.00  0.00     0.274 C 
ENDROOT
BRANCH   1   2
HETATM    2  N           1     -19.337  -8.989  -5.638  0.00  0.00    -0.067 N 
HETATM    3  H           1     -18.619  -8.697  -6.338  0.00  0.00     0.275 HD
HETATM    4  H           1     -18.882  -9.552  -4.886  0.00  0.00     0.275 HD
HETATM    5  H           1     -20.070  -9.565  -6.110  0.00  0.00     0.275 HD
ENDBRANCH   1   2
BRANCH   1   6
HETATM    6  C           1     -20.723  -7.003  -6.113  0.00  0.00     0.042 C 
BRANCH   6   7
HETATM    7  C           1     -20.734  -5.519  -5.768  0.00  0.00     0.004 C 
BRANCH   7   8
HETATM    8  C           1     -20.310  -4.710  -6.986  0.00  0.00     0.027 C 
BRANCH   8   9
HETATM    9  C           1     -21.261  -3.537  -7.175  0.00  0.00     0.229 C 
BRANCH   9  10
HETATM   10  N           1     -22.636  -4.052  -7.483  0.00  0.00    -0.079 N 
HETATM   11  H           1     -23.202  -4.081  -6.605  0.00  0.00     0.274 HD
HETATM   12  H           1     -22.566  -5.014  -7.885  0.00  0.00     0.274 HD
HETATM   13  H           1     -23.098  -3.419  -8.176  0.00  0.00     0.274 HD
ENDBRANCH   9  10
ENDBRANCH   8   9
ENDBRANCH   7   8
ENDBRANCH   6   7
ENDBRANCH   1   6
BRANCH   1  14
HETATM   14  C           1     -20.933  -8.190  -3.950  0.00  0.00     0.249 C 
HETATM   15  O           1     -21.863  -8.914  -4.216  0.00  0.00    -0.271 OA
HETATM   16  N           1     -20.754  -7.749  -2.667  0.00  0.00    -0.345 N 
HETATM   17  H           1     -19.975  -7.141  -2.444  0.00  0.00     0.163 HD
BRANCH  16  18
HETATM   18  C           1     -21.680  -8.151  -1.626  0.00  0.00     0.185 C 
BRANCH  18  19
HETATM   19  C           1     -20.904  -8.760  -0.466  0.00  0.00     0.040 C 
BRANCH  19  20
HETATM   20  C           1     -21.107 -10.270  -0.457  0.00  0.00    -0.020 C 
HETATM   21  C           1     -20.740 -10.823   0.914  0.00  0.00     0.009 C 
HETATM   22  C           1     -22.566 -10.587  -0.758  0.00  0.00     0.009 C 
ENDBRANCH  19  20
ENDBRANCH  18  19
BRANCH  18  23
HETATM   23  C           1     -22.446  -6.946  -1.142  0.00  0.00     0.196 C 
HETATM   24  O           1     -23.068  -6.994  -0.058  0.00  0.00    -0.646 OA
HETATM   25  O           1     -22.460  -5.898  -1.824  0.00  0.00    -0.646 OA
ENDBRANCH  18  23
ENDBRANCH  16  18
ENDBRANCH   1  14
TORSDOF 11
ENDMDL
