MODEL 1
REMARK VINA RESULT:      -5.7      0.000      0.000
REMARK  9 active torsions:
REMARK  status: ('A' for Active; 'I' for Inactive)
REMARK    1  A    between atoms: C_2  and  C_4 
REMARK    2  A    between atoms: C_4  and  C_5 
REMARK    3  A    between atoms: C_4  and  N_8 
REMARK       I    between atoms: N_8  and  C_9 
REMARK    4  A    between atoms: C_9  and  C_10 
REMARK    5  A    between atoms: C_10  and  C_11 
REMARK    6  A    between atoms: C_10  and  N_17 
REMARK    7  A    between atoms: C_11  and  O_12 
REMARK    8  A    between atoms: O_12  and  P_13 
REMARK    9  A    between atoms: P_13  and  O_14 
ROOT
HETATM    1  C           1     -24.606  -6.970 -16.945  0.00  0.00     0.298 C 
ENDROOT
BRANCH   1   2
HETATM    2  C           1     -26.053  -6.915 -16.523  0.00  0.00     0.251 C 
HETATM    3  N           1     -26.987  -6.350 -17.349  0.00  0.00    -0.344 N 
HETATM    4  H           1     -26.707  -5.971 -18.244  0.00  0.00     0.163 HD
HETATM    5  O           1     -26.387  -7.367 -15.453  0.00  0.00    -0.271 OA
BRANCH   3   6
HETATM    6  C           1     -28.377  -6.296 -16.942  0.00  0.00     0.189 C 
BRANCH   6   7
HETATM    7  C           1     -28.994  -4.986 -17.415  0.00  0.00     0.010 C 
HETATM    8  C           1     -30.432  -4.895 -16.920  0.00  0.00     0.012 C 
HETATM    9  C           1     -28.190  -3.818 -16.858  0.00  0.00     0.012 C 
ENDBRANCH   6   7
BRANCH   6  10
HETATM   10  C           1     -29.125  -7.456 -17.556  0.00  0.00     0.197 C 
HETATM   11  O           1     -29.369  -7.463 -18.781  0.00  0.00    -0.646 OA
HETATM   12  O           1     -29.501  -8.407 -16.836  0.00  0.00    -0.646 OA
ENDBRANCH   6  10
ENDBRANCH   3   6
ENDBRANCH   1   2
BRANCH   1  13
HETATM   13  C           1     -24.516  -7.423 -18.396  0.00  0.00     0.224 C 
BRANCH  13  14
HETATM   14  O           1     -24.850  -6.356 -19.241  0.00  0.00    -0.287 OA
BRANCH  14  15
HETATM   15  P           1     -25.529  -6.756 -20.652  0.00  0.00     0.406 P 
HETATM   16  O           1     -24.665  -7.730 -21.354  0.00  0.00    -0.624 OA
HETATM   17  O           1     -25.685  -5.543 -21.484  0.00  0.00    -0.624 OA
BRANCH  15  18
HETATM   18  O           1     -26.978  -7.417 -20.385  0.00  0.00    -0.300 OA
HETATM   19  H           1     -27.591  -6.842 -20.811  0.00  0.00     0.223 HD
ENDBRANCH  15  18
ENDBRANCH  14  15
ENDBRANCH  13  14
ENDBRANCH   1  13
BRANCH   1  20
HETATM   20  N           1     -23.866  -7.939 -16.072  0.00  0.00    -0.064 N 
HETATM   21  H           1     -23.657  -7.491 -15.152  0.00  0.00     0.275 HD
HETATM   22  H           1     -24.454  -8.789 -15.920  0.00  0.00     0.275 HD
HETATM   23  H           1     -22.971  -8.213 -16.538  0.00  0.00     0.275 HD
ENDBRANCH   1  20
TORSDOF 9
ENDMDL
MODEL 2
REMARK VINA RESULT:      -5.7      5.972      7.929
REMARK  9 active torsions:
REMARK  status: ('A' for Active; 'I' for Inactive)
REMARK    1  A    between atoms: C_2  and  C_4 
REMARK    2  A    between atoms: C_4  and  C_5 
REMARK    3  A    between atoms: C_4  and  N_8 
REMARK       I    between atoms: N_8  and  C_9 
REMARK    4  A    between atoms: C_9  and  C_10 
REMARK    5  A    between atoms: C_10  and  C_11 
REMARK    6  A    between atoms: C_10  and  N_17 
REMARK    7  A    between atoms: C_11  and  O_12 
REMARK    8  A    between atoms: O_12  and  P_13 
REMARK    9  A    between atoms: P_13  and  O_14 
ROOT
HETATM    1  C           1     -33.252  -4.419 -16.761  0.00  0.00     0.298 C 
ENDROOT
BRANCH   1   2
HETATM    2  C           1     -33.999  -4.518 -15.453  0.00  0.00     0.251 C 
HETATM    3  N           1     -33.464  -3.975 -14.317  0.00  0.00    -0.344 N 
HETATM    4  H           1     -32.569  -3.505 -14.353  0.00  0.00     0.163 HD
HETATM    5  O           1     -35.069  -5.079 -15.410  0.00  0.00    -0.271 OA
BRANCH   3   6
HETATM    6  C           1     -34.182  -4.070 -13.061  0.00  0.00     0.189 C 
BRANCH   6   7
HETATM    7  C           1     -33.192  -4.303 -11.926  0.00  0.00     0.010 C 
HETATM    8  C           1     -33.009  -3.012 -11.141  0.00  0.00     0.012 C 
HETATM    9  C           1     -33.727  -5.390 -11.002  0.00  0.00     0.012 C 
ENDBRANCH   6   7
BRANCH   6  10
HETATM   10  C           1     -34.937  -2.786 -12.814  0.00  0.00     0.197 C 
HETATM   11  O           1     -35.762  -2.717 -11.879  0.00  0.00    -0.646 OA
HETATM   12  O           1     -34.735  -1.793 -13.546  0.00  0.00    -0.646 OA
ENDBRANCH   6  10
ENDBRANCH   3   6
ENDBRANCH   1   2
BRANCH   1  13
HETATM   13  C           1     -31.766  -4.642 -16.515  0.00  0.00     0.224 C 
BRANCH  13  14
HETATM   14  O           1     -31.022  -3.900 -17.443  0.00  0.00    -0.287 OA
BRANCH  14  15
HETATM   15  P           1     -29.431  -4.181 -17.462  0.00  0.00     0.406 P 
HETATM   16  O           1     -29.088  -5.139 -16.387  0.00  0.00    -0.624 OA
HETATM   17  O           1     -28.704  -2.911 -17.244  0.00  0.00    -0.624 OA
BRANCH  15  18
HETATM   18  O           1     -29.010  -4.804 -18.891  0.00  0.00    -0.300 OA
HETATM   19  H           1     -29.777  -5.259 -19.195  0.00  0.00     0.223 HD
ENDBRANCH  15  18
ENDBRANCH  14  15
ENDBRANCH  13  14
ENDBRANCH   1  13
BRANCH   1  20
HETATM   20  N           1     -33.461  -3.059 -17.355  0.00  0.00    -0.064 N 
HETATM   21  H           1     -33.732  -3.154 -18.360  0.00  0.00     0.275 HD
HETATM   22  H           1     -34.222  -2.566 -16.836  0.00  0.00     0.275 HD
HETATM   23  H           1     -32.576  -2.508 -17.283  0.00  0.00     0.275 HD
ENDBRANCH   1  20
TORSDOF 9
ENDMDL
MODEL 3
REMARK VINA RESULT:      -5.7      9.190     10.717
REMARK  9 active torsions:
REMARK  status: ('A' for Active; 'I' for Inactive)
REMARK    1  A    between atoms: C_2  and  C_4 
REMARK    2  A    between atoms: C_4  and  C_5 
REMARK    3  A    between atoms: C_4  and  N_8 
REMARK       I    between atoms: N_8  and  C_9 
REMARK    4  A    between atoms: C_9  and  C_10 
REMARK    5  A    between atoms: C_10  and  C_11 
REMARK    6  A    between atoms: C_10  and  N_17 
REMARK    7  A    between atoms: C_11  and  O_12 
REMARK    8  A    between atoms: O_12  and  P_13 
REMARK    9  A    between atoms: P_13  and  O_14 
ROOT
HETATM    1  C           1     -33.897  -3.782 -15.497  0.00  0.00     0.298 C 
ENDROOT
BRANCH   1   2
HETATM    2  C           1     -34.466  -4.070 -14.129  0.00  0.00     0.251 C 
HETATM    3  N           1     -34.279  -3.178 -13.108  0.00  0.00    -0.344 N 
HETATM    4  H           1     -33.760  -2.325 -13.270  0.00  0.00     0.163 HD
HETATM    5  O           1     -35.086  -5.089 -13.936  0.00  0.00    -0.271 OA
BRANCH   3   6
HETATM    6  C           1     -34.825  -3.456 -11.794  0.00  0.00     0.189 C 
BRANCH   6   7
HETATM    7  C           1     -33.739  -4.055 -10.909  0.00  0.00     0.010 C 
HETATM    8  C           1     -34.159  -5.450 -10.466  0.00  0.00     0.012 C 
HETATM    9  C           1     -32.436  -4.140 -11.694  0.00  0.00     0.012 C 
ENDBRANCH   6   7
BRANCH   6  10
HETATM   10  C           1     -35.326  -2.172 -11.177  0.00  0.00     0.197 C 
HETATM   11  O           1     -36.448  -1.723 -11.493  0.00  0.00    -0.646 OA
HETATM   12  O           1     -34.617  -1.559 -10.349  0.00  0.00    -0.646 OA
ENDBRANCH   6  10
ENDBRANCH   3   6
ENDBRANCH   1   2
BRANCH   1  13
HETATM   13  C           1     -34.790  -2.783 -16.219  0.00  0.00     0.224 C 
BRANCH  13  14
HETATM   14  O           1     -35.062  -1.700 -15.372  0.00  0.00    -0.287 OA
BRANCH  14  15
HETATM   15  P           1     -36.160  -0.642 -15.905  0.00  0.00     0.406 P 
HETATM   16  O           1     -35.708   0.734 -15.596  0.00  0.00    -0.624 OA
HETATM   17  O           1     -37.455  -0.898 -15.238  0.00  0.00    -0.624 OA
BRANCH  15  18
HETATM   18  O           1     -36.335  -0.804 -17.502  0.00  0.00    -0.300 OA
HETATM   19  H           1     -37.008  -0.190 -17.737  0.00  0.00     0.223 HD
ENDBRANCH  15  18
ENDBRANCH  14  15
ENDBRANCH  13  14
ENDBRANCH   1  13
BRANCH   1  20
HETATM   20  N           1     -33.828  -5.055 -16.288  0.00  0.00    -0.064 N 
HETATM   21  H           1     -33.538  -5.839 -15.662  0.00  0.00     0.275 HD
HETATM   22  H           1     -34.768  -5.263 -16.694  0.00  0.00     0.275 HD
HETATM   23  H           1     -33.131  -4.946 -17.059  0.00  0.00     0.275 HD
ENDBRANCH   1  20
TORSDOF 9
ENDMDL
MODEL 4
REMARK VINA RESULT:      -5.6     10.279     12.576
REMARK  9 active torsions:
REMARK  status: ('A' for Active; 'I' for Inactive)
REMARK    1  A    between atoms: C_2  and  C_4 
REMARK    2  A    between atoms: C_4  and  C_5 
REMARK    3  A    between atoms: C_4  and  N_8 
REMARK       I    between atoms: N_8  and  C_9 
REMARK    4  A    between atoms: C_9  and  C_10 
REMARK    5  A    between atoms: C_10  and  C_11 
REMARK    6  A    between atoms: C_10  and  N_17 
REMARK    7  A    between atoms: C_11  and  O_12 
REMARK    8  A    between atoms: O_12  and  P_13 
REMARK    9  A    between atoms: P_13  and  O_14 
ROOT
HETATM    1  C           1     -21.289  -5.971  -7.052  0.00  0.00     0.298 C 
ENDROOT
BRANCH   1   2
HETATM    2  C           1     -21.754  -4.736  -7.783  0.00  0.00     0.251 C 
HETATM    3  N           1     -22.260  -4.840  -9.050  0.00  0.00    -0.344 N 
HETATM    4  H           1     -22.325  -5.746  -9.496  0.00  0.00     0.163 HD
HETATM    5  O           1     -21.676  -3.653  -7.251  0.00  0.00    -0.271 OA
BRANCH   3   6
HETATM    6  C           1     -22.706  -3.652  -9.753  0.00  0.00     0.189 C 
BRANCH   6   7
HETATM    7  C           1     -21.901  -3.491 -11.037  0.00  0.00     0.010 C 
HETATM    8  C           1     -20.416  -3.449 -10.703  0.00  0.00     0.012 C 
HETATM    9  C           1     -22.182  -4.669 -11.962  0.00  0.00     0.012 C 
ENDBRANCH   6   7
BRANCH   6  10
HETATM   10  C           1     -24.171  -3.788 -10.091  0.00  0.00     0.197 C 
HETATM   11  O           1     -24.790  -4.827  -9.780  0.00  0.00    -0.646 OA
HETATM   12  O           1     -24.764  -2.859 -10.681  0.00  0.00    -0.646 OA
ENDBRANCH   6  10
ENDBRANCH   3   6
ENDBRANCH   1   2
BRANCH   1  13
HETATM   13  C           1     -21.597  -5.829  -5.568  0.00  0.00     0.224 C 
BRANCH  13  14
HETATM   14  O           1     -22.140  -7.028  -5.086  0.00  0.00    -0.287 OA
BRANCH  14  15
HETATM   15  P           1     -21.194  -7.889  -4.100  0.00  0.00     0.406 P 
HETATM   16  O           1     -21.818  -9.206  -3.844  0.00  0.00    -0.624 OA
HETATM   17  O           1     -21.026  -7.164  -2.821  0.00  0.00    -0.624 OA
BRANCH  15  18
HETATM   18  O           1     -19.750  -8.104  -4.790  0.00  0.00    -0.300 OA
HETATM   19  H           1     -19.403  -8.884  -4.392  0.00  0.00     0.223 HD
ENDBRANCH  15  18
ENDBRANCH  14  15
ENDBRANCH  13  14
ENDBRANCH   1  13
BRANCH   1  20
HETATM   20  N           1     -19.811  -6.139  -7.242  0.00  0.00    -0.064 N 
HETATM   21  H           1     -19.627  -6.607  -8.158  0.00  0.00     0.275 HD
HETATM   22  H           1     -19.350  -5.201  -7.232  0.00  0.00     0.275 HD
HETATM   23  H           1     -19.425  -6.725  -6.467  0.00  0.00     0.275 HD
ENDBRANCH   1  20
TORSDOF 9
ENDMDL
MODEL 5
REMARK VINA RESULT:      -5.5     11.013     13.016
REMARK  9 active torsions:
REMARK  status: ('A' for Active; 'I' for Inactive)
REMARK    1  A    between atoms: C_2  and  C_4 
REMARK    2  A    between atoms: C_4  and  C_5 
REMARK    3  A    between atoms: C_4  and  N_8 
REMARK       I    between atoms: N_8  and  C_9 
REMARK    4  A    between atoms: C_9  and  C_10 
REMARK    5  A    between atoms: C_10  and  C_11 
REMARK    6  A    between atoms: C_10  and  N_17 
REMARK    7  A    between atoms: C_11  and  O_12 
REMARK    8  A    between atoms: O_12  and  P_13 
REMARK    9  A    between atoms: P_13  and  O_14 
ROOT
HETATM    1  C           1     -22.185  -4.352  -7.125  0.00  0.00     0.298 C 
ENDROOT
BRANCH   1   2
HETATM    2  C           1     -21.229  -5.195  -6.317  0.00  0.00     0.251 C 
HETATM    3  N           1     -21.712  -6.149  -5.462  0.00  0.00    -0.344 N 
HETATM    4  H           1     -22.709  -6.290  -5.374  0.00  0.00     0.163 HD
HETATM    5  O           1     -20.037  -5.025  -6.423  0.00  0.00    -0.271 OA
BRANCH   3   6
HETATM    6  C           1     -20.793  -6.957  -4.685  0.00  0.00     0.189 C 
BRANCH   6   7
HETATM    7  C           1     -21.461  -7.373  -3.381  0.00  0.00     0.010 C 
HETATM    8  C           1     -20.472  -8.162  -2.533  0.00  0.00     0.012 C 
HETATM    9  C           1     -21.904  -6.130  -2.620  0.00  0.00     0.012 C 
ENDBRANCH   6   7
BRANCH   6  10
HETATM   10  C           1     -20.417  -8.189  -5.473  0.00  0.00     0.197 C 
HETATM   11  O           1     -19.224  -8.394  -5.780  0.00  0.00    -0.646 OA
HETATM   12  O           1     -21.301  -9.003  -5.818  0.00  0.00    -0.646 OA
ENDBRANCH   6  10
ENDBRANCH   3   6
ENDBRANCH   1   2
BRANCH   1  13
HETATM   13  C           1     -22.343  -4.954  -8.515  0.00  0.00     0.224 C 
BRANCH  13  14
HETATM   14  O           1     -22.621  -3.935  -9.437  0.00  0.00    -0.287 OA
BRANCH  14  15
HETATM   15  P           1     -23.947  -4.137 -10.337  0.00  0.00     0.406 P 
HETATM   16  O           1     -23.590  -4.850 -11.585  0.00  0.00    -0.624 OA
HETATM   17  O           1     -24.524  -2.816 -10.669  0.00  0.00    -0.624 OA
BRANCH  15  18
HETATM   18  O           1     -25.031  -5.007  -9.514  0.00  0.00    -0.300 OA
HETATM   19  H           1     -25.048  -4.624  -8.653  0.00  0.00     0.223 HD
ENDBRANCH  15  18
ENDBRANCH  14  15
ENDBRANCH  13  14
ENDBRANCH   1  13
BRANCH   1  20
HETATM   20  N           1     -21.647  -2.957  -7.242  0.00  0.00    -0.064 N 
HETATM   21  H           1     -22.426  -2.300  -7.471  0.00  0.00     0.275 HD
HETATM   22  H           1     -21.209  -2.677  -6.336  0.00  0.00     0.275 HD
HETATM   23  H           1     -20.928  -2.925  -8.001  0.00  0.00     0.275 HD
ENDBRANCH   1  20
TORSDOF 9
ENDMDL
MODEL 6
REMARK VINA RESULT:      -5.4      1.695      2.072
REMARK  9 active torsions:
REMARK  status: ('A' for Active; 'I' for Inactive)
REMARK    1  A    between atoms: C_2  and  C_4 
REMARK    2  A    between atoms: C_4  and  C_5 
REMARK    3  A    between atoms: C_4  and  N_8 
REMARK       I    between atoms: N_8  and  C_9 
REMARK    4  A    between atoms: C_9  and  C_10 
REMARK    5  A    between atoms: C_10  and  C_11 
REMARK    6  A    between atoms: C_10  and  N_17 
REMARK    7  A    between atoms: C_11  and  O_12 
REMARK    8  A    between atoms: O_12  and  P_13 
REMARK    9  A    between atoms: P_13  and  O_14 
ROOT
HETATM    1  C           1     -24.600  -6.800 -17.764  0.00  0.00     0.298 C 
ENDROOT
BRANCH   1   2
HETATM    2  C           1     -25.709  -6.150 -16.974  0.00  0.00     0.251 C 
HETATM    3  N           1     -27.015  -6.362 -17.325  0.00  0.00    -0.344 N 
HETATM    4  H           1     -27.236  -6.957 -18.113  0.00  0.00     0.163 HD
HETATM    5  O           1     -25.444  -5.440 -16.033  0.00  0.00    -0.271 OA
BRANCH   3   6
HETATM    6  C           1     -28.080  -5.737 -16.567  0.00  0.00     0.189 C 
BRANCH   6   7
HETATM    7  C           1     -29.341  -5.673 -17.420  0.00  0.00     0.010 C 
HETATM    8  C           1     -29.268  -4.464 -18.343  0.00  0.00     0.012 C 
HETATM    9  C           1     -29.452  -6.943 -18.254  0.00  0.00     0.012 C 
ENDBRANCH   6   7
BRANCH   6  10
HETATM   10  C           1     -28.355  -6.548 -15.323  0.00  0.00     0.197 C 
HETATM   11  O           1     -29.179  -6.137 -14.479  0.00  0.00    -0.646 OA
HETATM   12  O           1     -27.756  -7.630 -15.139  0.00  0.00    -0.646 OA
ENDBRANCH   6  10
ENDBRANCH   3   6
ENDBRANCH   1   2
BRANCH   1  13
HETATM   13  C           1     -25.089  -7.104 -19.173  0.00  0.00     0.224 C 
BRANCH  13  14
HETATM   14  O           1     -24.026  -7.602 -19.940  0.00  0.00    -0.287 OA
BRANCH  14  15
HETATM   15  P           1     -24.316  -7.783 -21.518  0.00  0.00     0.406 P 
HETATM   16  O           1     -23.149  -8.427 -22.162  0.00  0.00    -0.624 OA
HETATM   17  O           1     -24.549  -6.457 -22.131  0.00  0.00    -0.624 OA
BRANCH  15  18
HETATM   18  O           1     -25.623  -8.709 -21.725  0.00  0.00    -0.300 OA
HETATM   19  H           1     -25.864  -8.593 -22.628  0.00  0.00     0.223 HD
ENDBRANCH  15  18
ENDBRANCH  14  15
ENDBRANCH  13  14
ENDBRANCH   1  13
BRANCH   1  20
HETATM   20  N           1     -24.188  -8.076 -17.091  0.00  0.00    -0.064 N 
HETATM   21  H           1     -23.197  -7.997 -16.769  0.00  0.00     0.275 HD
HETATM   22  H           1     -24.809  -8.252 -16.269  0.00  0.00     0.275 HD
HETATM   23  H           1     -24.273  -8.868 -17.768  0.00  0.00     0.275 HD
ENDBRANCH   1  20
TORSDOF 9
ENDMDL
MODEL 7
REMARK VINA RESULT:      -5.4     11.533     13.629
REMARK  9 active torsions:
REMARK  status: ('A' for Active; 'I' for Inactive)
REMARK    1  A    between atoms: C_2  and  C_4 
REMARK    2  A    between atoms: C_4  and  C_5 
REMARK    3  A    between atoms: C_4  and  N_8 
REMARK       I    between atoms: N_8  and  C_9 
REMARK    4  A    between atoms: C_9  and  C_10 
REMARK    5  A    between atoms: C_10  and  C_11 
REMARK    6  A    between atoms: C_10  and  N_17 
REMARK    7  A    between atoms: C_11  and  O_12 
REMARK    8  A    between atoms: O_12  and  P_13 
REMARK    9  A    between atoms: P_13  and  O_14 
ROOT
HETATM    1  C           1     -20.936  -4.985  -6.742  0.00  0.00     0.298 C 
ENDROOT
BRANCH   1   2
HETATM    2  C           1     -21.635  -5.856  -5.727  0.00  0.00     0.251 C 
HETATM    3  N           1     -20.906  -6.686  -4.919  0.00  0.00    -0.344 N 
HETATM    4  H           1     -19.898  -6.714  -5.001  0.00  0.00     0.163 HD
HETATM    5  O           1     -22.839  -5.822  -5.630  0.00  0.00    -0.271 OA
BRANCH   3   6
HETATM    6  C           1     -21.578  -7.523  -3.945  0.00  0.00     0.189 C 
BRANCH   6   7
HETATM    7  C           1     -20.864  -8.866  -3.851  0.00  0.00     0.010 C 
HETATM    8  C           1     -21.868  -9.990  -4.070  0.00  0.00     0.012 C 
HETATM    9  C           1     -19.779  -8.938  -4.918  0.00  0.00     0.012 C 
ENDBRANCH   6   7
BRANCH   6  10
HETATM   10  C           1     -21.554  -6.845  -2.596  0.00  0.00     0.197 C 
HETATM   11  O           1     -22.324  -5.889  -2.364  0.00  0.00    -0.646 OA
HETATM   12  O           1     -20.762  -7.240  -1.713  0.00  0.00    -0.646 OA
ENDBRANCH   6  10
ENDBRANCH   3   6
ENDBRANCH   1   2
BRANCH   1  13
HETATM   13  C           1     -21.970  -4.201  -7.538  0.00  0.00     0.224 C 
BRANCH  13  14
HETATM   14  O           1     -22.107  -4.768  -8.813  0.00  0.00    -0.287 OA
BRANCH  14  15
HETATM   15  P           1     -23.311  -4.187  -9.720  0.00  0.00     0.406 P 
HETATM   16  O           1     -23.961  -5.301 -10.446  0.00  0.00    -0.624 OA
HETATM   17  O           1     -22.770  -3.212 -10.692  0.00  0.00    -0.624 OA
BRANCH  15  18
HETATM   18  O           1     -24.397  -3.458  -8.773  0.00  0.00    -0.300 OA
HETATM   19  H           1     -25.180  -3.973  -8.858  0.00  0.00     0.223 HD
ENDBRANCH  15  18
ENDBRANCH  14  15
ENDBRANCH  13  14
ENDBRANCH   1  13
BRANCH   1  20
HETATM   20  N           1     -20.136  -5.846  -7.674  0.00  0.00    -0.064 N 
HETATM   21  H           1     -19.127  -5.808  -7.404  0.00  0.00     0.275 HD
HETATM   22  H           1     -20.475  -6.832  -7.613  0.00  0.00     0.275 HD
HETATM   23  H           1     -20.249  -5.497  -8.652  0.00  0.00     0.275 HD
ENDBRANCH   1  20
TORSDOF 9
ENDMDL
MODEL 8
REMARK VINA RESULT:      -5.0      6.093      8.705
REMARK  9 active torsions:
REMARK  status: ('A' for Active; 'I' for Inactive)
REMARK    1  A    between atoms: C_2  and  C_4 
REMARK    2  A    between atoms: C_4  and  C_5 
REMARK    3  A    between atoms: C_4  and  N_8 
REMARK       I    between atoms: N_8  and  C_9 
REMARK    4  A    between atoms: C_9  and  C_10 
REMARK    5  A    between atoms: C_10  and  C_11 
REMARK    6  A    between atoms: C_10  and  N_17 
REMARK    7  A    between atoms: C_11  and  O_12 
REMARK    8  A    between atoms: O_12  and  P_13 
REMARK    9  A    between atoms: P_13  and  O_14 
ROOT
HETATM    1  C           1     -34.136  -4.227 -15.713  0.00  0.00     0.298 C 
ENDROOT
BRANCH   1   2
HETATM    2  C           1     -32.855  -4.139 -16.504  0.00  0.00     0.251 C 
HETATM    3  N           1     -31.882  -5.088 -16.339  0.00  0.00    -0.344 N 
HETATM    4  H           1     -32.022  -5.849 -15.687  0.00  0.00     0.163 HD
HETATM    5  O           1     -32.687  -3.230 -17.282  0.00  0.00    -0.271 OA
BRANCH   3   6
HETATM    6  C           1     -30.650  -5.002 -17.098  0.00  0.00     0.189 C 
BRANCH   6   7
HETATM    7  C           1     -29.512  -4.584 -16.175  0.00  0.00     0.010 C 
HETATM    8  C           1     -28.920  -5.819 -15.508  0.00  0.00     0.012 C 
HETATM    9  C           1     -28.434  -3.878 -16.988  0.00  0.00     0.012 C 
ENDBRANCH   6   7
BRANCH   6  10
HETATM   10  C           1     -30.338  -6.350 -17.703  0.00  0.00     0.197 C 
HETATM   11  O           1     -29.405  -6.464 -18.526  0.00  0.00    -0.646 OA
HETATM   12  O           1     -31.013  -7.351 -17.379  0.00  0.00    -0.646 OA
ENDBRANCH   6  10
ENDBRANCH   3   6
ENDBRANCH   1   2
BRANCH   1  13
HETATM   13  C           1     -33.836  -4.025 -14.234  0.00  0.00     0.224 C 
BRANCH  13  14
HETATM   14  O           1     -34.602  -2.957 -13.743  0.00  0.00    -0.287 OA
BRANCH  14  15
HETATM   15  P           1     -34.465  -2.657 -12.162  0.00  0.00     0.406 P 
HETATM   16  O           1     -35.587  -3.300 -11.441  0.00  0.00    -0.624 OA
HETATM   17  O           1     -34.504  -1.195 -11.933  0.00  0.00    -0.624 OA
BRANCH  15  18
HETATM   18  O           1     -33.066  -3.251 -11.618  0.00  0.00    -0.300 OA
HETATM   19  H           1     -32.529  -3.353 -12.386  0.00  0.00     0.223 HD
ENDBRANCH  15  18
ENDBRANCH  14  15
ENDBRANCH  13  14
ENDBRANCH   1  13
BRANCH   1  20
HETATM   20  N           1     -34.758  -5.577 -15.916  0.00  0.00    -0.064 N 
HETATM   21  H           1     -34.224  -6.293 -15.374  0.00  0.00     0.275 HD
HETATM   22  H           1     -35.749  -5.557 -15.585  0.00  0.00     0.275 HD
HETATM   23  H           1     -34.736  -5.820 -16.933  0.00  0.00     0.275 HD
ENDBRANCH   1  20
TORSDOF 9
ENDMDL
MODEL 9
REMARK VINA RESULT:      -5.0     14.109     16.038
REMARK  9 active torsions:
REMARK  status: ('A' for Active; 'I' for Inactive)
REMARK    1  A    between atoms: C_2  and  C_4 
REMARK    2  A    between atoms: C_4  and  C_5 
REMARK    3  A    between atoms: C_4  and  N_8 
REMARK       I    between atoms: N_8  and  C_9 
REMARK    4  A    between atoms: C_9  and  C_10 
REMARK    5  A    between atoms: C_10  and  C_11 
REMARK    6  A    between atoms: C_10  and  N_17 
REMARK    7  A    between atoms: C_11  and  O_12 
REMARK    8  A    between atoms: O_12  and  P_13 
REMARK    9  A    between atoms: P_13  and  O_14 
ROOT
HETATM    1  C           1     -20.045  -8.205  -4.726  0.00  0.00     0.298 C 
ENDROOT
BRANCH   1   2
HETATM    2  C           1     -20.170  -8.635  -3.285  0.00  0.00     0.251 C 
HETATM    3  N           1     -21.392  -8.615  -2.669  0.00  0.00    -0.344 N 
HETATM    4  H           1     -22.211  -8.312  -3.179  0.00  0.00     0.163 HD
HETATM    5  O           1     -19.191  -8.996  -2.676  0.00  0.00    -0.271 OA
BRANCH   3   6
HETATM    6  C           1     -21.512  -9.027  -1.284  0.00  0.00     0.189 C 
BRANCH   6   7
HETATM    7  C           1     -22.418  -8.054  -0.541  0.00  0.00     0.010 C 
HETATM    8  C           1     -22.002  -7.991   0.923  0.00  0.00     0.012 C 
HETATM    9  C           1     -22.293  -6.669  -1.165  0.00  0.00     0.012 C 
ENDBRANCH   6   7
BRANCH   6  10
HETATM   10  C           1     -22.106 -10.414  -1.223  0.00  0.00     0.197 C 
HETATM   11  O           1     -23.343 -10.561  -1.137  0.00  0.00    -0.646 OA
HETATM   12  O           1     -21.357 -11.416  -1.258  0.00  0.00    -0.646 OA
ENDBRANCH   6  10
ENDBRANCH   3   6
ENDBRANCH   1   2
BRANCH   1  13
HETATM   13  C           1     -21.414  -7.804  -5.259  0.00  0.00     0.224 C 
BRANCH  13  14
HETATM   14  O           1     -21.618  -6.434  -5.041  0.00  0.00    -0.287 OA
BRANCH  14  15
HETATM   15  P           1     -21.280  -5.461  -6.285  0.00  0.00     0.406 P 
HETATM   16  O           1     -20.715  -6.261  -7.395  0.00  0.00    -0.624 OA
HETATM   17  O           1     -20.296  -4.442  -5.860  0.00  0.00    -0.624 OA
BRANCH  15  18
HETATM   18  O           1     -22.632  -4.732  -6.782  0.00  0.00    -0.300 OA
HETATM   19  H           1     -23.333  -5.262  -6.446  0.00  0.00     0.223 HD
ENDBRANCH  15  18
ENDBRANCH  14  15
ENDBRANCH  13  14
ENDBRANCH   1  13
BRANCH   1  20
HETATM   20  N           1     -19.504  -9.341  -5.543  0.00  0.00    -0.064 N 
HETATM   21  H           1     -19.596 -10.232  -5.005  0.00  0.00     0.275 HD
HETATM   22  H           1     -20.042  -9.415  -6.435  0.00  0.00     0.275 HD
HETATM   23  H           1     -18.496  -9.166  -5.757  0.00  0.00     0.275 HD
ENDBRANCH   1  20
TORSDOF 9
ENDMDL
