MODEL 1
REMARK VINA RESULT:      -7.5      0.000      0.000
REMARK  12 active torsions:
REMARK  status: ('A' for Active; 'I' for Inactive)
REMARK    1  A    between atoms: C_5  and  C_25 
REMARK    2  A    between atoms: C_5  and  C_14 
REMARK    3  A    between atoms: C_11  and  C_13 
REMARK    4  A    between atoms: C_11  and  C_20 
REMARK    5  A    between atoms: N_12  and  C_13 
REMARK    6  A    between atoms: C_13  and  C_18 
REMARK    7  A    between atoms: C_14  and  C_23 
REMARK    8  A    between atoms: C_16  and  O_17 
REMARK       I    between atoms: C_18  and  N_19 
REMARK    9  A    between atoms: N_19  and  C_27 
REMARK   10  A    between atoms: C_23  and  C_27 
REMARK   11  A    between atoms: N_24  and  C_25 
REMARK   12  A    between atoms: C_27  and  C_28 
ROOT
HETATM    1  O           1     -34.995  -4.773 -15.693  0.00  0.00    -0.271 OA
HETATM    2  H           1     -32.444  -3.777 -14.162  0.00  0.00     0.163 HD
HETATM    3  C           1     -33.842  -4.450 -15.532  0.00  0.00     0.249 C 
HETATM    4  N           1     -33.410  -4.047 -14.297  0.00  0.00    -0.345 N 
ENDROOT
BRANCH   3   5
HETATM    5  C           1     -32.878  -4.492 -16.692  0.00  0.00     0.278 C 
BRANCH   5   6
HETATM    6  C           1     -31.450  -4.461 -16.167  0.00  0.00     0.081 C 
BRANCH   6   7
HETATM    7  C           1     -30.571  -5.282 -17.059  0.00  0.00    -0.056 A 
HETATM    8  C           1     -30.866  -6.627 -17.282  0.00  0.00     0.010 A 
HETATM    9  C           1     -30.047  -7.391 -18.114  0.00  0.00     0.037 A 
HETATM   10  C           1     -28.934  -6.812 -18.721  0.00  0.00     0.065 A 
HETATM   11  C           1     -28.638  -5.467 -18.496  0.00  0.00     0.037 A 
HETATM   12  C           1     -29.457  -4.702 -17.666  0.00  0.00     0.010 A 
BRANCH  10  13
HETATM   13  O           1     -28.138  -7.555 -19.527  0.00  0.00    -0.361 OA
HETATM   14  H           1     -28.379  -7.362 -20.448  0.00  0.00     0.217 HD
ENDBRANCH  10  13
ENDBRANCH   6   7
ENDBRANCH   5   6
BRANCH   5  15
HETATM   15  N           1     -33.111  -3.303 -17.578  0.00  0.00    -0.066 N 
HETATM   16  H           1     -34.127  -3.240 -17.814  0.00  0.00     0.275 HD
HETATM   17  H           1     -32.814  -2.434 -17.079  0.00  0.00     0.275 HD
HETATM   18  H           1     -32.554  -3.408 -18.455  0.00  0.00     0.275 HD
ENDBRANCH   5  15
ENDBRANCH   3   5
BRANCH   4  19
HETATM   19  C           1     -34.337  -4.007 -13.183  0.00  0.00     0.185 C 
BRANCH  19  20
HETATM   20  C           1     -33.745  -4.767 -12.002  0.00  0.00     0.036 C 
BRANCH  20  21
HETATM   21  C           1     -34.724  -5.841 -11.547  0.00  0.00     0.004 C 
BRANCH  21  22
HETATM   22  C           1     -34.238  -6.450 -10.239  0.00  0.00     0.027 C 
BRANCH  22  23
HETATM   23  C           1     -34.713  -7.895 -10.143  0.00  0.00     0.229 C 
BRANCH  23  24
HETATM   24  N           1     -33.538  -8.817 -10.274  0.00  0.00    -0.079 N 
HETATM   25  H           1     -33.557  -9.274 -11.215  0.00  0.00     0.274 HD
HETATM   26  H           1     -32.654  -8.272 -10.170  0.00  0.00     0.274 HD
HETATM   27  H           1     -33.587  -9.551  -9.532  0.00  0.00     0.274 HD
ENDBRANCH  23  24
ENDBRANCH  22  23
ENDBRANCH  21  22
ENDBRANCH  20  21
ENDBRANCH  19  20
BRANCH  19  28
HETATM   28  C           1     -34.582  -2.572 -12.785  0.00  0.00     0.196 C 
HETATM   29  O           1     -35.062  -1.767 -13.611  0.00  0.00    -0.646 OA
HETATM   30  O           1     -34.303  -2.189 -11.628  0.00  0.00    -0.646 OA
ENDBRANCH  19  28
ENDBRANCH   4  19
TORSDOF 12
ENDMDL
MODEL 2
REMARK VINA RESULT:      -7.3     13.618     14.749
REMARK  12 active torsions:
REMARK  status: ('A' for Active; 'I' for Inactive)
REMARK    1  A    between atoms: C_5  and  C_25 
REMARK    2  A    between atoms: C_5  and  C_14 
REMARK    3  A    between atoms: C_11  and  C_13 
REMARK    4  A    between atoms: C_11  and  C_20 
REMARK    5  A    between atoms: N_12  and  C_13 
REMARK    6  A    between atoms: C_13  and  C_18 
REMARK    7  A    between atoms: C_14  and  C_23 
REMARK    8  A    between atoms: C_16  and  O_17 
REMARK       I    between atoms: C_18  and  N_19 
REMARK    9  A    between atoms: N_19  and  C_27 
REMARK   10  A    between atoms: C_23  and  C_27 
REMARK   11  A    between atoms: N_24  and  C_25 
REMARK   12  A    between atoms: C_27  and  C_28 
ROOT
HETATM    1  O           1     -20.245  -5.181  -5.188  0.00  0.00    -0.271 OA
HETATM    2  H           1     -22.992  -6.575  -4.593  0.00  0.00     0.163 HD
HETATM    3  C           1     -21.384  -5.534  -5.379  0.00  0.00     0.249 C 
HETATM    4  N           1     -22.038  -6.280  -4.433  0.00  0.00    -0.345 N 
ENDROOT
BRANCH   3   5
HETATM    5  C           1     -22.089  -5.152  -6.657  0.00  0.00     0.278 C 
BRANCH   5   6
HETATM    6  C           1     -21.495  -3.859  -7.198  0.00  0.00     0.081 C 
BRANCH   6   7
HETATM    7  C           1     -21.550  -3.871  -8.694  0.00  0.00    -0.056 A 
HETATM    8  C           1     -22.747  -3.580  -9.349  0.00  0.00     0.010 A 
HETATM    9  C           1     -22.799  -3.591 -10.743  0.00  0.00     0.037 A 
HETATM   10  C           1     -21.655  -3.893 -11.482  0.00  0.00     0.065 A 
HETATM   11  C           1     -20.459  -4.184 -10.826  0.00  0.00     0.037 A 
HETATM   12  C           1     -20.407  -4.173  -9.433  0.00  0.00     0.010 A 
BRANCH  10  13
HETATM   13  O           1     -21.706  -3.904 -12.836  0.00  0.00    -0.361 OA
HETATM   14  H           1     -21.481  -4.799 -13.138  0.00  0.00     0.217 HD
ENDBRANCH  10  13
ENDBRANCH   6   7
ENDBRANCH   5   6
BRANCH   5  15
HETATM   15  N           1     -23.551  -4.954  -6.382  0.00  0.00    -0.066 N 
HETATM   16  H           1     -24.036  -5.881  -6.398  0.00  0.00     0.275 HD
HETATM   17  H           1     -23.672  -4.515  -5.441  0.00  0.00     0.275 HD
HETATM   18  H           1     -23.962  -4.332  -7.112  0.00  0.00     0.275 HD
ENDBRANCH   5  15
ENDBRANCH   3   5
BRANCH   4  19
HETATM   19  C           1     -21.360  -6.647  -3.205  0.00  0.00     0.185 C 
BRANCH  19  20
HETATM   20  C           1     -22.294  -6.422  -2.023  0.00  0.00     0.036 C 
BRANCH  20  21
HETATM   21  C           1     -21.752  -7.151  -0.801  0.00  0.00     0.004 C 
BRANCH  21  22
HETATM   22  C           1     -22.892  -7.869  -0.090  0.00  0.00     0.027 C 
BRANCH  22  23
HETATM   23  C           1     -22.516  -9.330   0.126  0.00  0.00     0.229 C 
BRANCH  23  24
HETATM   24  N           1     -22.973 -10.142  -1.049  0.00  0.00    -0.079 N 
HETATM   25  H           1     -22.397 -11.012  -1.117  0.00  0.00     0.274 HD
HETATM   26  H           1     -23.978 -10.398  -0.925  0.00  0.00     0.274 HD
HETATM   27  H           1     -22.860  -9.583  -1.924  0.00  0.00     0.274 HD
ENDBRANCH  23  24
ENDBRANCH  22  23
ENDBRANCH  21  22
ENDBRANCH  20  21
ENDBRANCH  19  20
BRANCH  19  28
HETATM   28  C           1     -20.967  -8.102  -3.264  0.00  0.00     0.196 C 
HETATM   29  O           1     -19.814  -8.452  -2.932  0.00  0.00    -0.646 OA
HETATM   30  O           1     -21.794  -8.958  -3.647  0.00  0.00    -0.646 OA
ENDBRANCH  19  28
ENDBRANCH   4  19
TORSDOF 12
ENDMDL
MODEL 3
REMARK VINA RESULT:      -7.3     13.788     15.056
REMARK  12 active torsions:
REMARK  status: ('A' for Active; 'I' for Inactive)
REMARK    1  A    between atoms: C_5  and  C_25 
REMARK    2  A    between atoms: C_5  and  C_14 
REMARK    3  A    between atoms: C_11  and  C_13 
REMARK    4  A    between atoms: C_11  and  C_20 
REMARK    5  A    between atoms: N_12  and  C_13 
REMARK    6  A    between atoms: C_13  and  C_18 
REMARK    7  A    between atoms: C_14  and  C_23 
REMARK    8  A    between atoms: C_16  and  O_17 
REMARK       I    between atoms: C_18  and  N_19 
REMARK    9  A    between atoms: N_19  and  C_27 
REMARK   10  A    between atoms: C_23  and  C_27 
REMARK   11  A    between atoms: N_24  and  C_25 
REMARK   12  A    between atoms: C_27  and  C_28 
ROOT
HETATM    1  O           1     -20.754  -5.525  -4.612  0.00  0.00    -0.271 OA
HETATM    2  H           1     -20.980  -7.994  -6.535  0.00  0.00     0.163 HD
HETATM    3  C           1     -21.083  -6.155  -5.589  0.00  0.00     0.249 C 
HETATM    4  N           1     -20.704  -7.465  -5.717  0.00  0.00    -0.345 N 
ENDROOT
BRANCH   3   5
HETATM    5  C           1     -21.912  -5.501  -6.666  0.00  0.00     0.278 C 
BRANCH   5   6
HETATM    6  C           1     -21.219  -4.231  -7.139  0.00  0.00     0.081 C 
BRANCH   6   7
HETATM    7  C           1     -21.343  -4.117  -8.627  0.00  0.00    -0.056 A 
HETATM    8  C           1     -22.548  -3.701  -9.196  0.00  0.00     0.010 A 
HETATM    9  C           1     -22.664  -3.596 -10.582  0.00  0.00     0.037 A 
HETATM   10  C           1     -21.578  -3.906 -11.399  0.00  0.00     0.065 A 
HETATM   11  C           1     -20.374  -4.323 -10.830  0.00  0.00     0.037 A 
HETATM   12  C           1     -20.257  -4.428  -9.444  0.00  0.00     0.010 A 
BRANCH  10  13
HETATM   13  O           1     -21.691  -3.804 -12.745  0.00  0.00    -0.361 OA
HETATM   14  H           1     -20.971  -4.317 -13.147  0.00  0.00     0.217 HD
ENDBRANCH  10  13
ENDBRANCH   6   7
ENDBRANCH   5   6
BRANCH   5  15
HETATM   15  N           1     -23.265  -5.157  -6.116  0.00  0.00    -0.066 N 
HETATM   16  H           1     -23.807  -6.036  -5.953  0.00  0.00     0.275 HD
HETATM   17  H           1     -23.153  -4.644  -5.212  0.00  0.00     0.275 HD
HETATM   18  H           1     -23.775  -4.553  -6.798  0.00  0.00     0.275 HD
ENDBRANCH   5  15
ENDBRANCH   3   5
BRANCH   4  19
HETATM   19  C           1     -19.908  -8.094  -4.681  0.00  0.00     0.185 C 
BRANCH  19  20
HETATM   20  C           1     -20.829  -8.724  -3.644  0.00  0.00     0.036 C 
BRANCH  20  21
HETATM   21  C           1     -20.578  -8.082  -2.285  0.00  0.00     0.004 C 
BRANCH  21  22
HETATM   22  C           1     -21.831  -8.198  -1.429  0.00  0.00     0.027 C 
BRANCH  22  23
HETATM   23  C           1     -22.260  -6.812  -0.964  0.00  0.00     0.229 C 
BRANCH  23  24
HETATM   24  N           1     -22.403  -5.908  -2.153  0.00  0.00    -0.079 N 
HETATM   25  H           1     -21.507  -5.391  -2.307  0.00  0.00     0.274 HD
HETATM   26  H           1     -22.625  -6.479  -2.999  0.00  0.00     0.274 HD
HETATM   27  H           1     -23.173  -5.224  -1.979  0.00  0.00     0.274 HD
ENDBRANCH  23  24
ENDBRANCH  22  23
ENDBRANCH  21  22
ENDBRANCH  20  21
ENDBRANCH  19  20
BRANCH  19  28
HETATM   28  C           1     -19.039  -9.164  -5.296  0.00  0.00     0.196 C 
HETATM   29  O           1     -18.386  -8.919  -6.334  0.00  0.00    -0.646 OA
HETATM   30  O           1     -18.974 -10.295  -4.768  0.00  0.00    -0.646 OA
ENDBRANCH  19  28
ENDBRANCH   4  19
TORSDOF 12
ENDMDL
MODEL 4
REMARK VINA RESULT:      -6.6     13.738     14.884
REMARK  12 active torsions:
REMARK  status: ('A' for Active; 'I' for Inactive)
REMARK    1  A    between atoms: C_5  and  C_25 
REMARK    2  A    between atoms: C_5  and  C_14 
REMARK    3  A    between atoms: C_11  and  C_13 
REMARK    4  A    between atoms: C_11  and  C_20 
REMARK    5  A    between atoms: N_12  and  C_13 
REMARK    6  A    between atoms: C_13  and  C_18 
REMARK    7  A    between atoms: C_14  and  C_23 
REMARK    8  A    between atoms: C_16  and  O_17 
REMARK       I    between atoms: C_18  and  N_19 
REMARK    9  A    between atoms: N_19  and  C_27 
REMARK   10  A    between atoms: C_23  and  C_27 
REMARK   11  A    between atoms: N_24  and  C_25 
REMARK   12  A    between atoms: C_27  and  C_28 
ROOT
HETATM    1  O           1     -23.053  -6.072  -5.250  0.00  0.00    -0.271 OA
HETATM    2  H           1     -20.090  -6.697  -4.429  0.00  0.00     0.163 HD
HETATM    3  C           1     -21.847  -6.002  -5.274  0.00  0.00     0.249 C 
HETATM    4  N           1     -21.100  -6.755  -4.408  0.00  0.00    -0.345 N 
ENDROOT
BRANCH   3   5
HETATM    5  C           1     -21.165  -5.085  -6.259  0.00  0.00     0.278 C 
BRANCH   5   6
HETATM    6  C           1     -20.785  -5.872  -7.506  0.00  0.00     0.081 C 
BRANCH   6   7
HETATM    7  C           1     -21.025  -5.030  -8.721  0.00  0.00    -0.056 A 
HETATM    8  C           1     -20.002  -4.841  -9.650  0.00  0.00     0.010 A 
HETATM    9  C           1     -20.225  -4.057 -10.782  0.00  0.00     0.037 A 
HETATM   10  C           1     -21.470  -3.461 -10.984  0.00  0.00     0.065 A 
HETATM   11  C           1     -22.492  -3.649 -10.054  0.00  0.00     0.037 A 
HETATM   12  C           1     -22.270  -4.433  -8.922  0.00  0.00     0.010 A 
BRANCH  10  13
HETATM   13  O           1     -21.686  -2.698 -12.083  0.00  0.00    -0.361 OA
HETATM   14  H           1     -22.506  -3.004 -12.505  0.00  0.00     0.217 HD
ENDBRANCH  10  13
ENDBRANCH   6   7
ENDBRANCH   5   6
BRANCH   5  15
HETATM   15  N           1     -19.927  -4.512  -5.634  0.00  0.00    -0.066 N 
HETATM   16  H           1     -19.227  -5.275  -5.487  0.00  0.00     0.275 HD
HETATM   17  H           1     -19.522  -3.785  -6.266  0.00  0.00     0.275 HD
HETATM   18  H           1     -20.169  -4.079  -4.715  0.00  0.00     0.275 HD
ENDBRANCH   5  15
ENDBRANCH   3   5
BRANCH   4  19
HETATM   19  C           1     -21.756  -7.636  -3.462  0.00  0.00     0.185 C 
BRANCH  19  20
HETATM   20  C           1     -21.027  -8.973  -3.422  0.00  0.00     0.036 C 
BRANCH  20  21
HETATM   21  C           1     -22.045 -10.104  -3.348  0.00  0.00     0.004 C 
BRANCH  21  22
HETATM   22  C           1     -21.731 -10.993  -2.152  0.00  0.00     0.027 C 
BRANCH  22  23
HETATM   23  C           1     -22.971 -11.127  -1.278  0.00  0.00     0.229 C 
BRANCH  23  24
HETATM   24  N           1     -23.167  -9.866  -0.490  0.00  0.00    -0.079 N 
HETATM   25  H           1     -24.189  -9.709  -0.331  0.00  0.00     0.274 HD
HETATM   26  H           1     -22.680  -9.951   0.429  0.00  0.00     0.274 HD
HETATM   27  H           1     -22.771  -9.058  -1.022  0.00  0.00     0.274 HD
ENDBRANCH  23  24
ENDBRANCH  22  23
ENDBRANCH  21  22
ENDBRANCH  20  21
ENDBRANCH  19  20
BRANCH  19  28
HETATM   28  C           1     -21.729  -7.008  -2.090  0.00  0.00     0.196 C 
HETATM   29  O           1     -22.285  -5.906  -1.895  0.00  0.00    -0.646 OA
HETATM   30  O           1     -21.147  -7.590  -1.148  0.00  0.00    -0.646 OA
ENDBRANCH  19  28
ENDBRANCH   4  19
TORSDOF 12
ENDMDL
MODEL 5
REMARK VINA RESULT:      -6.3     14.267     15.338
REMARK  12 active torsions:
REMARK  status: ('A' for Active; 'I' for Inactive)
REMARK    1  A    between atoms: C_5  and  C_25 
REMARK    2  A    between atoms: C_5  and  C_14 
REMARK    3  A    between atoms: C_11  and  C_13 
REMARK    4  A    between atoms: C_11  and  C_20 
REMARK    5  A    between atoms: N_12  and  C_13 
REMARK    6  A    between atoms: C_13  and  C_18 
REMARK    7  A    between atoms: C_14  and  C_23 
REMARK    8  A    between atoms: C_16  and  O_17 
REMARK       I    between atoms: C_18  and  N_19 
REMARK    9  A    between atoms: N_19  and  C_27 
REMARK   10  A    between atoms: C_23  and  C_27 
REMARK   11  A    between atoms: N_24  and  C_25 
REMARK   12  A    between atoms: C_27  and  C_28 
ROOT
HETATM    1  O           1     -22.465  -5.827  -5.566  0.00  0.00    -0.271 OA
HETATM    2  H           1     -19.744  -6.955  -4.486  0.00  0.00     0.163 HD
HETATM    3  C           1     -21.269  -5.975  -5.485  0.00  0.00     0.249 C 
HETATM    4  N           1     -20.746  -6.830  -4.553  0.00  0.00    -0.345 N 
ENDROOT
BRANCH   3   5
HETATM    5  C           1     -20.351  -5.219  -6.414  0.00  0.00     0.278 C 
BRANCH   5   6
HETATM    6  C           1     -21.047  -3.955  -6.898  0.00  0.00     0.081 C 
BRANCH   6   7
HETATM    7  C           1     -21.364  -4.085  -8.356  0.00  0.00    -0.056 A 
HETATM    8  C           1     -20.355  -3.925  -9.305  0.00  0.00     0.010 A 
HETATM    9  C           1     -20.650  -4.046 -10.663  0.00  0.00     0.037 A 
HETATM   10  C           1     -21.954  -4.326 -11.072  0.00  0.00     0.065 A 
HETATM   11  C           1     -22.963  -4.484 -10.122  0.00  0.00     0.037 A 
HETATM   12  C           1     -22.668  -4.363  -8.764  0.00  0.00     0.010 A 
BRANCH  10  13
HETATM   13  O           1     -22.241  -4.442 -12.391  0.00  0.00    -0.361 OA
HETATM   14  H           1     -22.171  -3.561 -12.793  0.00  0.00     0.217 HD
ENDBRANCH  10  13
ENDBRANCH   6   7
ENDBRANCH   5   6
BRANCH   5  15
HETATM   15  N           1     -20.009  -6.084  -7.592  0.00  0.00    -0.066 N 
HETATM   16  H           1     -19.376  -6.857  -7.283  0.00  0.00     0.275 HD
HETATM   17  H           1     -20.886  -6.490  -7.991  0.00  0.00     0.275 HD
HETATM   18  H           1     -19.529  -5.509  -8.319  0.00  0.00     0.275 HD
ENDBRANCH   5  15
ENDBRANCH   3   5
BRANCH   4  19
HETATM   19  C           1     -21.628  -7.556  -3.660  0.00  0.00     0.185 C 
BRANCH  19  20
HETATM   20  C           1     -21.106  -8.975  -3.472  0.00  0.00     0.036 C 
BRANCH  20  21
HETATM   21  C           1     -19.640  -9.035  -3.880  0.00  0.00     0.004 C 
BRANCH  21  22
HETATM   22  C           1     -18.809  -9.555  -2.714  0.00  0.00     0.027 C 
BRANCH  22  23
HETATM   23  C           1     -17.330  -9.493  -3.077  0.00  0.00     0.229 C 
BRANCH  23  24
HETATM   24  N           1     -16.766 -10.882  -3.114  0.00  0.00    -0.079 N 
HETATM   25  H           1     -17.349 -11.479  -3.744  0.00  0.00     0.274 HD
HETATM   26  H           1     -15.786 -10.850  -3.474  0.00  0.00     0.274 HD
HETATM   27  H           1     -16.772 -11.286  -2.150  0.00  0.00     0.274 HD
ENDBRANCH  23  24
ENDBRANCH  22  23
ENDBRANCH  21  22
ENDBRANCH  20  21
ENDBRANCH  19  20
BRANCH  19  28
HETATM   28  C           1     -21.676  -6.858  -2.324  0.00  0.00     0.196 C 
HETATM   29  O           1     -22.180  -5.718  -2.231  0.00  0.00    -0.646 OA
HETATM   30  O           1     -21.210  -7.420  -1.308  0.00  0.00    -0.646 OA
ENDBRANCH  19  28
ENDBRANCH   4  19
TORSDOF 12
ENDMDL
MODEL 6
REMARK VINA RESULT:      -6.2     14.794     16.101
REMARK  12 active torsions:
REMARK  status: ('A' for Active; 'I' for Inactive)
REMARK    1  A    between atoms: C_5  and  C_25 
REMARK    2  A    between atoms: C_5  and  C_14 
REMARK    3  A    between atoms: C_11  and  C_13 
REMARK    4  A    between atoms: C_11  and  C_20 
REMARK    5  A    between atoms: N_12  and  C_13 
REMARK    6  A    between atoms: C_13  and  C_18 
REMARK    7  A    between atoms: C_14  and  C_23 
REMARK    8  A    between atoms: C_16  and  O_17 
REMARK       I    between atoms: C_18  and  N_19 
REMARK    9  A    between atoms: N_19  and  C_27 
REMARK   10  A    between atoms: C_23  and  C_27 
REMARK   11  A    between atoms: N_24  and  C_25 
REMARK   12  A    between atoms: C_27  and  C_28 
ROOT
HETATM    1  O           1     -19.678  -7.469  -6.218  0.00  0.00    -0.271 OA
HETATM    2  H           1     -21.903  -8.569  -4.299  0.00  0.00     0.163 HD
HETATM    3  C           1     -20.678  -7.454  -5.540  0.00  0.00     0.249 C 
HETATM    4  N           1     -21.066  -8.582  -4.867  0.00  0.00    -0.345 N 
ENDROOT
BRANCH   3   5
HETATM    5  C           1     -21.498  -6.192  -5.433  0.00  0.00     0.278 C 
BRANCH   5   6
HETATM    6  C           1     -20.670  -5.006  -5.909  0.00  0.00     0.081 C 
BRANCH   6   7
HETATM    7  C           1     -21.124  -4.596  -7.275  0.00  0.00    -0.056 A 
HETATM    8  C           1     -22.470  -4.314  -7.507  0.00  0.00     0.010 A 
HETATM    9  C           1     -22.893  -3.932  -8.781  0.00  0.00     0.037 A 
HETATM   10  C           1     -21.970  -3.832  -9.822  0.00  0.00     0.065 A 
HETATM   11  C           1     -20.624  -4.115  -9.589  0.00  0.00     0.037 A 
HETATM   12  C           1     -20.201  -4.497  -8.317  0.00  0.00     0.010 A 
BRANCH  10  13
HETATM   13  O           1     -22.381  -3.462 -11.058  0.00  0.00    -0.361 OA
HETATM   14  H           1     -21.596  -3.387 -11.626  0.00  0.00     0.217 HD
ENDBRANCH  10  13
ENDBRANCH   6   7
ENDBRANCH   5   6
BRANCH   5  15
HETATM   15  N           1     -21.901  -5.979  -4.004  0.00  0.00    -0.066 N 
HETATM   16  H           1     -22.935  -6.111  -3.911  0.00  0.00     0.275 HD
HETATM   17  H           1     -21.406  -6.670  -3.395  0.00  0.00     0.275 HD
HETATM   18  H           1     -21.646  -5.010  -3.710  0.00  0.00     0.275 HD
ENDBRANCH   5  15
ENDBRANCH   3   5
BRANCH   4  19
HETATM   19  C           1     -20.277  -9.794  -4.971  0.00  0.00     0.185 C 
BRANCH  19  20
HETATM   20  C           1     -19.746 -10.175  -3.594  0.00  0.00     0.036 C 
BRANCH  20  21
HETATM   21  C           1     -18.394  -9.511  -3.370  0.00  0.00     0.004 C 
BRANCH  21  22
HETATM   22  C           1     -17.496  -9.769  -4.572  0.00  0.00     0.027 C 
BRANCH  22  23
HETATM   23  C           1     -16.070 -10.018  -4.097  0.00  0.00     0.229 C 
BRANCH  23  24
HETATM   24  N           1     -15.887  -9.427  -2.730  0.00  0.00    -0.079 N 
HETATM   25  H           1     -16.515  -9.916  -2.052  0.00  0.00     0.274 HD
HETATM   26  H           1     -14.894  -9.543  -2.431  0.00  0.00     0.274 HD
HETATM   27  H           1     -16.129  -8.411  -2.756  0.00  0.00     0.274 HD
ENDBRANCH  23  24
ENDBRANCH  22  23
ENDBRANCH  21  22
ENDBRANCH  20  21
ENDBRANCH  19  20
BRANCH  19  28
HETATM   28  C           1     -21.142 -10.911  -5.502  0.00  0.00     0.196 C 
HETATM   29  O           1     -21.082 -11.229  -6.709  0.00  0.00    -0.646 OA
HETATM   30  O           1     -21.920 -11.518  -4.733  0.00  0.00    -0.646 OA
ENDBRANCH  19  28
ENDBRANCH   4  19
TORSDOF 12
ENDMDL
MODEL 7
REMARK VINA RESULT:      -6.2     13.995     16.434
REMARK  12 active torsions:
REMARK  status: ('A' for Active; 'I' for Inactive)
REMARK    1  A    between atoms: C_5  and  C_25 
REMARK    2  A    between atoms: C_5  and  C_14 
REMARK    3  A    between atoms: C_11  and  C_13 
REMARK    4  A    between atoms: C_11  and  C_20 
REMARK    5  A    between atoms: N_12  and  C_13 
REMARK    6  A    between atoms: C_13  and  C_18 
REMARK    7  A    between atoms: C_14  and  C_23 
REMARK    8  A    between atoms: C_16  and  O_17 
REMARK       I    between atoms: C_18  and  N_19 
REMARK    9  A    between atoms: N_19  and  C_27 
REMARK   10  A    between atoms: C_23  and  C_27 
REMARK   11  A    between atoms: N_24  and  C_25 
REMARK   12  A    between atoms: C_27  and  C_28 
ROOT
HETATM    1  O           1     -19.344  -7.108  -6.106  0.00  0.00    -0.271 OA
HETATM    2  H           1     -22.373  -6.292  -6.141  0.00  0.00     0.163 HD
HETATM    3  C           1     -20.524  -7.179  -5.859  0.00  0.00     0.249 C 
HETATM    4  N           1     -21.384  -6.232  -6.348  0.00  0.00    -0.345 N 
ENDROOT
BRANCH   3   5
HETATM    5  C           1     -21.051  -8.313  -5.014  0.00  0.00     0.278 C 
BRANCH   5   6
HETATM    6  C           1     -20.235  -8.413  -3.733  0.00  0.00     0.081 C 
BRANCH   6   7
HETATM    7  C           1     -21.131  -8.204  -2.552  0.00  0.00    -0.056 A 
HETATM    8  C           1     -21.547  -6.916  -2.212  0.00  0.00     0.010 A 
HETATM    9  C           1     -22.381  -6.721  -1.111  0.00  0.00     0.037 A 
HETATM   10  C           1     -22.800  -7.813  -0.351  0.00  0.00     0.065 A 
HETATM   11  C           1     -22.383  -9.100  -0.691  0.00  0.00     0.037 A 
HETATM   12  C           1     -21.549  -9.295  -1.791  0.00  0.00     0.010 A 
BRANCH  10  13
HETATM   13  O           1     -23.610  -7.623   0.718  0.00  0.00    -0.361 OA
HETATM   14  H           1     -24.461  -7.285   0.395  0.00  0.00     0.217 HD
ENDBRANCH  10  13
ENDBRANCH   6   7
ENDBRANCH   5   6
BRANCH   5  15
HETATM   15  N           1     -20.941  -9.599  -5.780  0.00  0.00    -0.066 N 
HETATM   16  H           1     -19.954  -9.730  -6.098  0.00  0.00     0.275 HD
HETATM   17  H           1     -21.216 -10.396  -5.162  0.00  0.00     0.275 HD
HETATM   18  H           1     -21.574  -9.566  -6.609  0.00  0.00     0.275 HD
ENDBRANCH   5  15
ENDBRANCH   3   5
BRANCH   4  19
HETATM   19  C           1     -20.877  -5.143  -7.159  0.00  0.00     0.185 C 
BRANCH  19  20
HETATM   20  C           1     -20.638  -5.636  -8.581  0.00  0.00     0.036 C 
BRANCH  20  21
HETATM   21  C           1     -19.999  -4.526  -9.404  0.00  0.00     0.004 C 
BRANCH  21  22
HETATM   22  C           1     -20.619  -4.503 -10.794  0.00  0.00     0.027 C 
BRANCH  22  23
HETATM   23  C           1     -21.618  -3.356 -10.887  0.00  0.00     0.229 C 
BRANCH  23  24
HETATM   24  N           1     -22.988  -3.856 -10.538  0.00  0.00    -0.079 N 
HETATM   25  H           1     -23.676  -3.072 -10.611  0.00  0.00     0.274 HD
HETATM   26  H           1     -23.259  -4.619 -11.198  0.00  0.00     0.274 HD
HETATM   27  H           1     -22.986  -4.224  -9.560  0.00  0.00     0.274 HD
ENDBRANCH  23  24
ENDBRANCH  22  23
ENDBRANCH  21  22
ENDBRANCH  20  21
ENDBRANCH  19  20
BRANCH  19  28
HETATM   28  C           1     -21.886  -4.021  -7.181  0.00  0.00     0.196 C 
HETATM   29  O           1     -23.089  -4.266  -7.415  0.00  0.00    -0.646 OA
HETATM   30  O           1     -21.518  -2.846  -6.965  0.00  0.00    -0.646 OA
ENDBRANCH  19  28
ENDBRANCH   4  19
TORSDOF 12
ENDMDL
MODEL 8
REMARK VINA RESULT:      -6.2     14.066     16.300
REMARK  12 active torsions:
REMARK  status: ('A' for Active; 'I' for Inactive)
REMARK    1  A    between atoms: C_5  and  C_25 
REMARK    2  A    between atoms: C_5  and  C_14 
REMARK    3  A    between atoms: C_11  and  C_13 
REMARK    4  A    between atoms: C_11  and  C_20 
REMARK    5  A    between atoms: N_12  and  C_13 
REMARK    6  A    between atoms: C_13  and  C_18 
REMARK    7  A    between atoms: C_14  and  C_23 
REMARK    8  A    between atoms: C_16  and  O_17 
REMARK       I    between atoms: C_18  and  N_19 
REMARK    9  A    between atoms: N_19  and  C_27 
REMARK   10  A    between atoms: C_23  and  C_27 
REMARK   11  A    between atoms: N_24  and  C_25 
REMARK   12  A    between atoms: C_27  and  C_28 
ROOT
HETATM    1  O           1     -20.159  -7.298  -6.403  0.00  0.00    -0.271 OA
HETATM    2  H           1     -22.039  -4.808  -6.736  0.00  0.00     0.163 HD
HETATM    3  C           1     -21.038  -6.516  -6.129  0.00  0.00     0.249 C 
HETATM    4  N           1     -21.302  -5.463  -6.965  0.00  0.00    -0.345 N 
ENDROOT
BRANCH   3   5
HETATM    5  C           1     -21.846  -6.699  -4.869  0.00  0.00     0.278 C 
BRANCH   5   6
HETATM    6  C           1     -21.154  -5.990  -3.713  0.00  0.00     0.081 C 
BRANCH   6   7
HETATM    7  C           1     -21.314  -6.797  -2.463  0.00  0.00    -0.056 A 
HETATM    8  C           1     -22.328  -6.484  -1.557  0.00  0.00     0.010 A 
HETATM    9  C           1     -22.477  -7.236  -0.391  0.00  0.00     0.037 A 
HETATM   10  C           1     -21.613  -8.299  -0.130  0.00  0.00     0.065 A 
HETATM   11  C           1     -20.599  -8.611  -1.036  0.00  0.00     0.037 A 
HETATM   12  C           1     -20.449  -7.860  -2.202  0.00  0.00     0.010 A 
BRANCH  10  13
HETATM   13  O           1     -21.758  -9.029   1.002  0.00  0.00    -0.361 OA
HETATM   14  H           1     -22.165  -9.877   0.763  0.00  0.00     0.217 HD
ENDBRANCH  10  13
ENDBRANCH   6   7
ENDBRANCH   5   6
BRANCH   5  15
HETATM   15  N           1     -21.963  -8.163  -4.559  0.00  0.00    -0.066 N 
HETATM   16  H           1     -22.512  -8.635  -5.314  0.00  0.00     0.275 HD
HETATM   17  H           1     -21.008  -8.585  -4.508  0.00  0.00     0.275 HD
HETATM   18  H           1     -22.449  -8.288  -3.643  0.00  0.00     0.275 HD
ENDBRANCH   5  15
ENDBRANCH   3   5
BRANCH   4  19
HETATM   19  C           1     -20.525  -5.287  -8.176  0.00  0.00     0.185 C 
BRANCH  19  20
HETATM   20  C           1     -21.436  -4.808  -9.299  0.00  0.00     0.036 C 
BRANCH  20  21
HETATM   21  C           1     -22.777  -4.379  -8.718  0.00  0.00     0.004 C 
BRANCH  21  22
HETATM   22  C           1     -23.881  -4.654  -9.730  0.00  0.00     0.027 C 
BRANCH  22  23
HETATM   23  C           1     -24.581  -3.348 -10.087  0.00  0.00     0.229 C 
BRANCH  23  24
HETATM   24  N           1     -26.011  -3.409  -9.640  0.00  0.00    -0.079 N 
HETATM   25  H           1     -26.161  -4.269  -9.065  0.00  0.00     0.274 HD
HETATM   26  H           1     -26.233  -2.564  -9.067  0.00  0.00     0.274 HD
HETATM   27  H           1     -26.636  -3.438 -10.477  0.00  0.00     0.274 HD
ENDBRANCH  23  24
ENDBRANCH  22  23
ENDBRANCH  21  22
ENDBRANCH  20  21
ENDBRANCH  19  20
BRANCH  19  28
HETATM   28  C           1     -19.445  -4.261  -7.935  0.00  0.00     0.196 C 
HETATM   29  O           1     -18.472  -4.538  -7.200  0.00  0.00    -0.646 OA
HETATM   30  O           1     -19.524  -3.133  -8.469  0.00  0.00    -0.646 OA
ENDBRANCH  19  28
ENDBRANCH   4  19
TORSDOF 12
ENDMDL
MODEL 9
REMARK VINA RESULT:      -6.0     14.746     16.202
REMARK  12 active torsions:
REMARK  status: ('A' for Active; 'I' for Inactive)
REMARK    1  A    between atoms: C_5  and  C_25 
REMARK    2  A    between atoms: C_5  and  C_14 
REMARK    3  A    between atoms: C_11  and  C_13 
REMARK    4  A    between atoms: C_11  and  C_20 
REMARK    5  A    between atoms: N_12  and  C_13 
REMARK    6  A    between atoms: C_13  and  C_18 
REMARK    7  A    between atoms: C_14  and  C_23 
REMARK    8  A    between atoms: C_16  and  O_17 
REMARK       I    between atoms: C_18  and  N_19 
REMARK    9  A    between atoms: N_19  and  C_27 
REMARK   10  A    between atoms: C_23  and  C_27 
REMARK   11  A    between atoms: N_24  and  C_25 
REMARK   12  A    between atoms: C_27  and  C_28 
ROOT
HETATM    1  O           1     -21.403  -7.438  -6.653  0.00  0.00    -0.271 OA
HETATM    2  H           1     -20.815  -4.506  -5.704  0.00  0.00     0.163 HD
HETATM    3  C           1     -21.139  -6.543  -5.887  0.00  0.00     0.249 C 
HETATM    4  N           1     -21.035  -5.257  -6.346  0.00  0.00    -0.345 N 
ENDROOT
BRANCH   3   5
HETATM    5  C           1     -20.924  -6.840  -4.423  0.00  0.00     0.278 C 
BRANCH   5   6
HETATM    6  C           1     -20.978  -8.345  -4.197  0.00  0.00     0.081 C 
BRANCH   6   7
HETATM    7  C           1     -19.586  -8.883  -4.079  0.00  0.00    -0.056 A 
HETATM    8  C           1     -18.989  -9.001  -2.823  0.00  0.00     0.010 A 
HETATM    9  C           1     -17.692  -9.502  -2.712  0.00  0.00     0.037 A 
HETATM   10  C           1     -16.991  -9.885  -3.856  0.00  0.00     0.065 A 
HETATM   11  C           1     -17.588  -9.765  -5.111  0.00  0.00     0.037 A 
HETATM   12  C           1     -18.885  -9.265  -5.222  0.00  0.00     0.010 A 
BRANCH  10  13
HETATM   13  O           1     -15.732 -10.370  -3.748  0.00  0.00    -0.361 OA
HETATM   14  H           1     -15.352 -10.423  -4.641  0.00  0.00     0.217 HD
ENDBRANCH  10  13
ENDBRANCH   6   7
ENDBRANCH   5   6
BRANCH   5  15
HETATM   15  N           1     -21.999  -6.175  -3.616  0.00  0.00    -0.066 N 
HETATM   16  H           1     -21.698  -5.204  -3.369  0.00  0.00     0.275 HD
HETATM   17  H           1     -22.881  -6.133  -4.176  0.00  0.00     0.275 HD
HETATM   18  H           1     -22.168  -6.721  -2.742  0.00  0.00     0.275 HD
ENDBRANCH   5  15
ENDBRANCH   3   5
BRANCH   4  19
HETATM   19  C           1     -21.242  -4.971  -7.753  0.00  0.00     0.185 C 
BRANCH  19  20
HETATM   20  C           1     -22.115  -3.731  -7.897  0.00  0.00     0.036 C 
BRANCH  20  21
HETATM   21  C           1     -23.463  -4.125  -8.486  0.00  0.00     0.004 C 
BRANCH  21  22
HETATM   22  C           1     -23.250  -4.811  -9.828  0.00  0.00     0.027 C 
BRANCH  22  23
HETATM   23  C           1     -22.767  -3.791 -10.851  0.00  0.00     0.229 C 
BRANCH  23  24
HETATM   24  N           1     -21.933  -4.479 -11.890  0.00  0.00    -0.079 N 
HETATM   25  H           1     -20.997  -4.711 -11.488  0.00  0.00     0.274 HD
HETATM   26  H           1     -22.410  -5.358 -12.192  0.00  0.00     0.274 HD
HETATM   27  H           1     -21.811  -3.847 -12.713  0.00  0.00     0.274 HD
ENDBRANCH  23  24
ENDBRANCH  22  23
ENDBRANCH  21  22
ENDBRANCH  20  21
ENDBRANCH  19  20
BRANCH  19  28
HETATM   28  C           1     -19.909  -4.726  -8.415  0.00  0.00     0.196 C 
HETATM   29  O           1     -19.783  -4.891  -9.648  0.00  0.00    -0.646 OA
HETATM   30  O           1     -18.929  -4.359  -7.731  0.00  0.00    -0.646 OA
ENDBRANCH  19  28
ENDBRANCH   4  19
TORSDOF 12
ENDMDL
