MODEL 1
REMARK VINA RESULT:      -7.8      0.000      0.000
REMARK  9 active torsions:
REMARK  status: ('A' for Active; 'I' for Inactive)
REMARK    1  A    between atoms: N_4  and  C_7 
REMARK    2  A    between atoms: N_6  and  C_13 
REMARK       I    between atoms: N_6  and  C_9 
REMARK    3  A    between atoms: C_7  and  C_9 
REMARK    4  A    between atoms: C_7  and  C_8 
REMARK    5  A    between atoms: C_8  and  C_14 
REMARK    6  A    between atoms: C_11  and  C_13 
REMARK    7  A    between atoms: C_13  and  C_20 
REMARK    8  A    between atoms: C_20  and  C_29 
REMARK    9  A    between atoms: O_23  and  C_26 
ROOT
HETATM    1  N           1     -21.478  -6.569  -5.944  0.00  0.00    -0.344 N 
HETATM    2  C           1     -20.744  -7.677  -5.616  0.00  0.00     0.249 C 
HETATM    3  H           1     -22.383  -6.417  -5.517  0.00  0.00     0.163 HD
HETATM    4  O           1     -19.664  -7.858  -6.125  0.00  0.00    -0.271 OA
ENDROOT
BRANCH   1   5
HETATM    5  C           1     -20.960  -5.614  -6.903  0.00  0.00     0.189 C 
BRANCH   5   6
HETATM    6  C           1     -19.854  -4.809  -6.264  0.00  0.00     0.197 C 
HETATM    7  O           1     -19.994  -4.367  -5.102  0.00  0.00    -0.646 OA
HETATM    8  O           1     -18.799  -4.585  -6.895  0.00  0.00    -0.646 OA
ENDBRANCH   5   6
BRANCH   5   9
HETATM    9  C           1     -22.079  -4.679  -7.344  0.00  0.00     0.074 C 
BRANCH   9  10
HETATM   10  C           1     -22.002  -4.471  -8.824  0.00  0.00    -0.056 A 
HETATM   11  C           1     -23.169  -4.458  -9.588  0.00  0.00     0.010 A 
HETATM   12  C           1     -23.098  -4.264 -10.968  0.00  0.00     0.037 A 
HETATM   13  C           1     -21.859  -4.084 -11.583  0.00  0.00     0.065 A 
HETATM   14  C           1     -20.692  -4.098 -10.819  0.00  0.00     0.037 A 
HETATM   15  C           1     -20.764  -4.292  -9.440  0.00  0.00     0.010 A 
BRANCH  13  16
HETATM   16  O           1     -21.789  -3.896 -12.923  0.00  0.00    -0.361 OA
HETATM   17  H           1     -20.865  -4.022 -13.196  0.00  0.00     0.217 HD
ENDBRANCH  13  16
ENDBRANCH   9  10
ENDBRANCH   5   9
ENDBRANCH   1   5
BRANCH   2  18
HETATM   18  C           1     -21.284  -8.671  -4.617  0.00  0.00     0.280 C 
BRANCH  18  19
HETATM   19  N           1     -21.122 -10.061  -5.158  0.00  0.00    -0.066 N 
HETATM   20  H           1     -20.843 -10.013  -6.164  0.00  0.00     0.275 HD
HETATM   21  H           1     -20.382 -10.561  -4.614  0.00  0.00     0.275 HD
HETATM   22  H           1     -22.027 -10.576  -5.071  0.00  0.00     0.275 HD
ENDBRANCH  18  19
BRANCH  18  23
HETATM   23  C           1     -20.517  -8.543  -3.308  0.00  0.00     0.101 C 
BRANCH  23  24
HETATM   24  C           1     -21.316  -7.731  -2.337  0.00  0.00     0.028 A 
HETATM   25  N           1     -21.857  -8.217  -1.175  0.00  0.00    -0.355 N 
HETATM   26  C           1     -22.470  -7.195  -0.624  0.00  0.00     0.180 A 
ATOM     27  HN          1     -21.797  -9.169  -0.815  1.00  0.00     0.166 HD
HETATM   28  N           1     -22.346  -6.068  -1.385  0.00  0.00    -0.360 N 
HETATM   29  C           1     -21.607  -6.396  -2.488  0.00  0.00     0.114 A 
HETATM   30  H           1     -22.744  -5.122  -1.164  0.00  0.00     0.166 HD
ENDBRANCH  23  24
ENDBRANCH  18  23
ENDBRANCH   2  18
TORSDOF 9
ENDMDL
MODEL 2
REMARK VINA RESULT:      -7.7     11.693     14.712
REMARK  9 active torsions:
REMARK  status: ('A' for Active; 'I' for Inactive)
REMARK    1  A    between atoms: N_4  and  C_7 
REMARK    2  A    between atoms: N_6  and  C_13 
REMARK       I    between atoms: N_6  and  C_9 
REMARK    3  A    between atoms: C_7  and  C_9 
REMARK    4  A    between atoms: C_7  and  C_8 
REMARK    5  A    between atoms: C_8  and  C_14 
REMARK    6  A    between atoms: C_11  and  C_13 
REMARK    7  A    between atoms: C_13  and  C_20 
REMARK    8  A    between atoms: C_20  and  C_29 
REMARK    9  A    between atoms: O_23  and  C_26 
ROOT
HETATM    1  N           1     -26.705  -6.871 -18.065  0.00  0.00    -0.344 N 
HETATM    2  C           1     -25.676  -6.892 -18.968  0.00  0.00     0.249 C 
HETATM    3  H           1     -27.554  -7.387 -18.253  0.00  0.00     0.163 HD
HETATM    4  O           1     -24.662  -6.276 -18.743  0.00  0.00    -0.271 OA
ENDROOT
BRANCH   1   5
HETATM    5  C           1     -26.577  -6.109 -16.838  0.00  0.00     0.189 C 
BRANCH   5   6
HETATM    6  C           1     -25.365  -6.584 -16.075  0.00  0.00     0.197 C 
HETATM    7  O           1     -25.174  -7.808 -15.903  0.00  0.00    -0.646 OA
HETATM    8  O           1     -24.550  -5.754 -15.616  0.00  0.00    -0.646 OA
ENDBRANCH   5   6
BRANCH   5   9
HETATM    9  C           1     -27.824  -6.308 -15.986  0.00  0.00     0.074 C 
BRANCH   9  10
HETATM   10  C           1     -28.919  -5.421 -16.488  0.00  0.00    -0.056 A 
HETATM   11  C           1     -30.243  -5.857 -16.449  0.00  0.00     0.010 A 
HETATM   12  C           1     -31.265  -5.031 -16.918  0.00  0.00     0.037 A 
HETATM   13  C           1     -30.962  -3.768 -17.425  0.00  0.00     0.065 A 
HETATM   14  C           1     -29.637  -3.331 -17.466  0.00  0.00     0.037 A 
HETATM   15  C           1     -28.617  -4.158 -16.997  0.00  0.00     0.010 A 
BRANCH  13  16
HETATM   16  O           1     -31.953  -2.965 -17.881  0.00  0.00    -0.361 OA
HETATM   17  H           1     -31.634  -2.520 -18.684  0.00  0.00     0.217 HD
ENDBRANCH  13  16
ENDBRANCH   9  10
ENDBRANCH   5   9
ENDBRANCH   1   5
BRANCH   2  18
HETATM   18  C           1     -25.810  -7.685 -20.245  0.00  0.00     0.280 C 
BRANCH  18  19
HETATM   19  N           1     -27.251  -7.730 -20.657  0.00  0.00    -0.066 N 
HETATM   20  H           1     -27.678  -6.784 -20.536  0.00  0.00     0.275 HD
HETATM   21  H           1     -27.316  -8.017 -21.660  0.00  0.00     0.275 HD
HETATM   22  H           1     -27.761  -8.422 -20.063  0.00  0.00     0.275 HD
ENDBRANCH  18  19
BRANCH  18  23
HETATM   23  C           1     -24.989  -7.021 -21.343  0.00  0.00     0.101 C 
BRANCH  23  24
HETATM   24  C           1     -23.785  -7.860 -21.644  0.00  0.00     0.028 A 
HETATM   25  N           1     -22.890  -8.304 -20.705  0.00  0.00    -0.355 N 
HETATM   26  C           1     -21.999  -8.996 -21.375  0.00  0.00     0.180 A 
ATOM     27  HN          1     -22.912  -8.133 -19.700  1.00  0.00     0.166 HD
HETATM   28  N           1     -22.283  -9.017 -22.712  0.00  0.00    -0.360 N 
HETATM   29  C           1     -23.428  -8.292 -22.899  0.00  0.00     0.114 A 
HETATM   30  H           1     -21.726  -9.500 -23.458  0.00  0.00     0.166 HD
ENDBRANCH  23  24
ENDBRANCH  18  23
ENDBRANCH   2  18
TORSDOF 9
ENDMDL
MODEL 3
REMARK VINA RESULT:      -7.7     13.961     16.158
REMARK  9 active torsions:
REMARK  status: ('A' for Active; 'I' for Inactive)
REMARK    1  A    between atoms: N_4  and  C_7 
REMARK    2  A    between atoms: N_6  and  C_13 
REMARK       I    between atoms: N_6  and  C_9 
REMARK    3  A    between atoms: C_7  and  C_9 
REMARK    4  A    between atoms: C_7  and  C_8 
REMARK    5  A    between atoms: C_8  and  C_14 
REMARK    6  A    between atoms: C_11  and  C_13 
REMARK    7  A    between atoms: C_13  and  C_20 
REMARK    8  A    between atoms: C_20  and  C_29 
REMARK    9  A    between atoms: O_23  and  C_26 
ROOT
HETATM    1  N           1     -36.222  -1.947 -10.944  0.00  0.00    -0.344 N 
HETATM    2  C           1     -34.991  -2.505 -11.168  0.00  0.00     0.249 C 
HETATM    3  H           1     -37.053  -2.522 -10.984  0.00  0.00     0.163 HD
HETATM    4  O           1     -33.999  -1.819 -11.119  0.00  0.00    -0.271 OA
ENDROOT
BRANCH   1   5
HETATM    5  C           1     -36.333  -0.532 -10.649  0.00  0.00     0.189 C 
BRANCH   5   6
HETATM    6  C           1     -36.627  -0.347  -9.180  0.00  0.00     0.197 C 
HETATM    7  O           1     -35.731   0.059  -8.409  0.00  0.00    -0.646 OA
HETATM    8  O           1     -37.768  -0.597  -8.735  0.00  0.00    -0.646 OA
ENDBRANCH   5   6
BRANCH   5   9
HETATM    9  C           1     -37.462   0.071 -11.474  0.00  0.00     0.074 C 
BRANCH   9  10
HETATM   10  C           1     -37.094   0.037 -12.924  0.00  0.00    -0.056 A 
HETATM   11  C           1     -38.073  -0.208 -13.887  0.00  0.00     0.010 A 
HETATM   12  C           1     -37.730  -0.239 -15.239  0.00  0.00     0.037 A 
HETATM   13  C           1     -36.408  -0.026 -15.628  0.00  0.00     0.065 A 
HETATM   14  C           1     -35.428   0.218 -14.665  0.00  0.00     0.037 A 
HETATM   15  C           1     -35.771   0.250 -13.314  0.00  0.00     0.010 A 
BRANCH  13  16
HETATM   16  O           1     -36.075  -0.057 -16.941  0.00  0.00    -0.361 OA
HETATM   17  H           1     -35.168   0.281 -17.028  0.00  0.00     0.217 HD
ENDBRANCH  13  16
ENDBRANCH   9  10
ENDBRANCH   5   9
ENDBRANCH   1   5
BRANCH   2  18
HETATM   18  C           1     -34.876  -3.979 -11.475  0.00  0.00     0.280 C 
BRANCH  18  19
HETATM   19  N           1     -34.497  -4.161 -12.915  0.00  0.00    -0.066 N 
HETATM   20  H           1     -34.999  -4.990 -13.305  0.00  0.00     0.275 HD
HETATM   21  H           1     -34.763  -3.306 -13.454  0.00  0.00     0.275 HD
HETATM   22  H           1     -33.466  -4.311 -12.987  0.00  0.00     0.275 HD
ENDBRANCH  18  19
BRANCH  18  23
HETATM   23  C           1     -33.807  -4.600 -10.586  0.00  0.00     0.101 C 
BRANCH  23  24
HETATM   24  C           1     -34.145  -6.035 -10.326  0.00  0.00     0.028 A 
HETATM   25  N           1     -33.427  -7.103 -10.801  0.00  0.00    -0.355 N 
HETATM   26  C           1     -34.050  -8.167 -10.351  0.00  0.00     0.180 A 
ATOM     27  HN          1     -32.589  -7.076 -11.381  1.00  0.00     0.166 HD
HETATM   28  N           1     -35.142  -7.829  -9.603  0.00  0.00    -0.360 N 
HETATM   29  C           1     -35.215  -6.463  -9.578  0.00  0.00     0.114 A 
HETATM   30  H           1     -35.804  -8.494  -9.133  0.00  0.00     0.166 HD
ENDBRANCH  23  24
ENDBRANCH  18  23
ENDBRANCH   2  18
TORSDOF 9
ENDMDL
MODEL 4
REMARK VINA RESULT:      -7.6      2.754      7.616
REMARK  9 active torsions:
REMARK  status: ('A' for Active; 'I' for Inactive)
REMARK    1  A    between atoms: N_4  and  C_7 
REMARK    2  A    between atoms: N_6  and  C_13 
REMARK       I    between atoms: N_6  and  C_9 
REMARK    3  A    between atoms: C_7  and  C_9 
REMARK    4  A    between atoms: C_7  and  C_8 
REMARK    5  A    between atoms: C_8  and  C_14 
REMARK    6  A    between atoms: C_11  and  C_13 
REMARK    7  A    between atoms: C_13  and  C_20 
REMARK    8  A    between atoms: C_20  and  C_29 
REMARK    9  A    between atoms: O_23  and  C_26 
ROOT
HETATM    1  N           1     -20.088  -6.797  -6.020  0.00  0.00    -0.344 N 
HETATM    2  C           1     -20.235  -5.437  -5.961  0.00  0.00     0.249 C 
HETATM    3  H           1     -19.991  -7.257  -6.916  0.00  0.00     0.163 HD
HETATM    4  O           1     -20.349  -4.888  -4.891  0.00  0.00    -0.271 OA
ENDROOT
BRANCH   1   5
HETATM    5  C           1     -20.070  -7.578  -4.799  0.00  0.00     0.189 C 
BRANCH   5   6
HETATM    6  C           1     -19.134  -8.750  -4.965  0.00  0.00     0.197 C 
HETATM    7  O           1     -19.022  -9.308  -6.078  0.00  0.00    -0.646 OA
HETATM    8  O           1     -18.469  -9.163  -3.990  0.00  0.00    -0.646 OA
ENDBRANCH   5   6
BRANCH   5   9
HETATM    9  C           1     -21.474  -8.087  -4.502  0.00  0.00     0.074 C 
BRANCH   9  10
HETATM   10  C           1     -21.728  -8.022  -3.029  0.00  0.00    -0.056 A 
HETATM   11  C           1     -21.701  -9.189  -2.264  0.00  0.00     0.010 A 
HETATM   12  C           1     -21.937  -9.129  -0.891  0.00  0.00     0.037 A 
HETATM   13  C           1     -22.202  -7.903  -0.282  0.00  0.00     0.065 A 
HETATM   14  C           1     -22.230  -6.736  -1.046  0.00  0.00     0.037 A 
HETATM   15  C           1     -21.994  -6.796  -2.419  0.00  0.00     0.010 A 
BRANCH  13  16
HETATM   16  O           1     -22.433  -7.844   1.052  0.00  0.00    -0.361 OA
HETATM   17  H           1     -23.325  -7.483   1.187  0.00  0.00     0.217 HD
ENDBRANCH  13  16
ENDBRANCH   9  10
ENDBRANCH   5   9
ENDBRANCH   1   5
BRANCH   2  18
HETATM   18  C           1     -20.253  -4.624  -7.232  0.00  0.00     0.280 C 
BRANCH  18  19
HETATM   19  N           1     -18.845  -4.347  -7.668  0.00  0.00    -0.066 N 
HETATM   20  H           1     -18.856  -3.706  -8.493  0.00  0.00     0.275 HD
HETATM   21  H           1     -18.321  -3.898  -6.884  0.00  0.00     0.275 HD
HETATM   22  H           1     -18.379  -5.245  -7.930  0.00  0.00     0.275 HD
ENDBRANCH  18  19
BRANCH  18  23
HETATM   23  C           1     -20.979  -5.402  -8.322  0.00  0.00     0.101 C 
BRANCH  23  24
HETATM   24  C           1     -22.218  -4.664  -8.723  0.00  0.00     0.028 A 
HETATM   25  N           1     -22.521  -4.291 -10.007  0.00  0.00    -0.355 N 
HETATM   26  C           1     -23.678  -3.677  -9.926  0.00  0.00     0.180 A 
ATOM     27  HN          1     -21.966  -4.457 -10.847  1.00  0.00     0.166 HD
HETATM   28  N           1     -24.134  -3.638  -8.639  0.00  0.00    -0.360 N 
HETATM   29  C           1     -23.207  -4.269  -7.855  0.00  0.00     0.114 A 
HETATM   30  H           1     -25.032  -3.204  -8.311  0.00  0.00     0.166 HD
ENDBRANCH  23  24
ENDBRANCH  18  23
ENDBRANCH   2  18
TORSDOF 9
ENDMDL
MODEL 5
REMARK VINA RESULT:      -7.5     11.915     14.542
REMARK  9 active torsions:
REMARK  status: ('A' for Active; 'I' for Inactive)
REMARK    1  A    between atoms: N_4  and  C_7 
REMARK    2  A    between atoms: N_6  and  C_13 
REMARK       I    between atoms: N_6  and  C_9 
REMARK    3  A    between atoms: C_7  and  C_9 
REMARK    4  A    between atoms: C_7  and  C_8 
REMARK    5  A    between atoms: C_8  and  C_14 
REMARK    6  A    between atoms: C_11  and  C_13 
REMARK    7  A    between atoms: C_13  and  C_20 
REMARK    8  A    between atoms: C_20  and  C_29 
REMARK    9  A    between atoms: O_23  and  C_26 
ROOT
HETATM    1  N           1     -27.908  -5.173 -16.716  0.00  0.00    -0.344 N 
HETATM    2  C           1     -29.089  -4.978 -17.382  0.00  0.00     0.249 C 
HETATM    3  H           1     -27.575  -4.476 -16.063  0.00  0.00     0.163 HD
HETATM    4  O           1     -29.487  -5.811 -18.161  0.00  0.00    -0.271 OA
ENDROOT
BRANCH   1   5
HETATM    5  C           1     -27.136  -6.378 -16.946  0.00  0.00     0.189 C 
BRANCH   5   6
HETATM    6  C           1     -27.042  -7.167 -15.663  0.00  0.00     0.197 C 
HETATM    7  O           1     -28.082  -7.485 -15.047  0.00  0.00    -0.646 OA
HETATM    8  O           1     -25.924  -7.504 -15.217  0.00  0.00    -0.646 OA
ENDBRANCH   5   6
BRANCH   5   9
HETATM    9  C           1     -25.737  -6.001 -17.415  0.00  0.00     0.074 C 
BRANCH   9  10
HETATM   10  C           1     -25.455  -6.662 -18.728  0.00  0.00    -0.056 A 
HETATM   11  C           1     -26.457  -6.746 -19.695  0.00  0.00     0.010 A 
HETATM   12  C           1     -26.195  -7.362 -20.920  0.00  0.00     0.037 A 
HETATM   13  C           1     -24.931  -7.894 -21.176  0.00  0.00     0.065 A 
HETATM   14  C           1     -23.930  -7.811 -20.208  0.00  0.00     0.037 A 
HETATM   15  C           1     -24.192  -7.195 -18.985  0.00  0.00     0.010 A 
BRANCH  13  16
HETATM   16  O           1     -24.677  -8.493 -22.364  0.00  0.00    -0.361 OA
HETATM   17  H           1     -25.043  -9.392 -22.331  0.00  0.00     0.217 HD
ENDBRANCH  13  16
ENDBRANCH   9  10
ENDBRANCH   5   9
ENDBRANCH   1   5
BRANCH   2  18
HETATM   18  C           1     -29.892  -3.724 -17.142  0.00  0.00     0.280 C 
BRANCH  18  19
HETATM   19  N           1     -29.035  -2.523 -17.410  0.00  0.00    -0.066 N 
HETATM   20  H           1     -28.034  -2.815 -17.469  0.00  0.00     0.275 HD
HETATM   21  H           1     -29.325  -2.084 -18.313  0.00  0.00     0.275 HD
HETATM   22  H           1     -29.152  -1.832 -16.634  0.00  0.00     0.275 HD
ENDBRANCH  18  19
BRANCH  18  23
HETATM   23  C           1     -31.096  -3.706 -18.075  0.00  0.00     0.101 C 
BRANCH  23  24
HETATM   24  C           1     -32.355  -3.774 -17.268  0.00  0.00     0.028 A 
HETATM   25  N           1     -33.402  -2.896 -17.382  0.00  0.00    -0.355 N 
HETATM   26  C           1     -34.294  -3.304 -16.509  0.00  0.00     0.180 A 
ATOM     27  HN          1     -33.474  -2.097 -18.012  1.00  0.00     0.166 HD
HETATM   28  N           1     -33.864  -4.411 -15.834  0.00  0.00    -0.360 N 
HETATM   29  C           1     -32.621  -4.725 -16.312  0.00  0.00     0.114 A 
HETATM   30  H           1     -34.390  -4.927 -15.088  0.00  0.00     0.166 HD
ENDBRANCH  23  24
ENDBRANCH  18  23
ENDBRANCH   2  18
TORSDOF 9
ENDMDL
MODEL 6
REMARK VINA RESULT:      -7.5     13.781     15.935
REMARK  9 active torsions:
REMARK  status: ('A' for Active; 'I' for Inactive)
REMARK    1  A    between atoms: N_4  and  C_7 
REMARK    2  A    between atoms: N_6  and  C_13 
REMARK       I    between atoms: N_6  and  C_9 
REMARK    3  A    between atoms: C_7  and  C_9 
REMARK    4  A    between atoms: C_7  and  C_8 
REMARK    5  A    between atoms: C_8  and  C_14 
REMARK    6  A    between atoms: C_11  and  C_13 
REMARK    7  A    between atoms: C_13  and  C_20 
REMARK    8  A    between atoms: C_20  and  C_29 
REMARK    9  A    between atoms: O_23  and  C_26 
ROOT
HETATM    1  N           1     -33.461  -3.840 -14.287  0.00  0.00    -0.344 N 
HETATM    2  C           1     -33.930  -4.463 -15.412  0.00  0.00     0.249 C 
HETATM    3  H           1     -32.551  -3.397 -14.296  0.00  0.00     0.163 HD
HETATM    4  O           1     -35.016  -4.991 -15.402  0.00  0.00    -0.271 OA
ENDROOT
BRANCH   1   5
HETATM    5  C           1     -34.268  -3.812 -13.083  0.00  0.00     0.189 C 
BRANCH   5   6
HETATM    6  C           1     -34.998  -2.494 -12.997  0.00  0.00     0.197 C 
HETATM    7  O           1     -35.736  -2.251 -12.018  0.00  0.00    -0.646 OA
HETATM    8  O           1     -34.863  -1.644 -13.904  0.00  0.00    -0.646 OA
ENDBRANCH   5   6
BRANCH   5   9
HETATM    9  C           1     -33.368  -3.976 -11.865  0.00  0.00     0.074 C 
BRANCH   9  10
HETATM   10  C           1     -33.674  -5.276 -11.189  0.00  0.00    -0.056 A 
HETATM   11  C           1     -34.905  -5.462 -10.560  0.00  0.00     0.010 A 
HETATM   12  C           1     -35.191  -6.674  -9.930  0.00  0.00     0.037 A 
HETATM   13  C           1     -34.245  -7.698  -9.929  0.00  0.00     0.065 A 
HETATM   14  C           1     -33.014  -7.512 -10.557  0.00  0.00     0.037 A 
HETATM   15  C           1     -32.729  -6.301 -11.187  0.00  0.00     0.010 A 
BRANCH  13  16
HETATM   16  O           1     -34.521  -8.875  -9.316  0.00  0.00    -0.361 OA
HETATM   17  H           1     -34.525  -9.572  -9.992  0.00  0.00     0.217 HD
ENDBRANCH  13  16
ENDBRANCH   9  10
ENDBRANCH   5   9
ENDBRANCH   1   5
BRANCH   2  18
HETATM   18  C           1     -33.089  -4.491 -16.665  0.00  0.00     0.280 C 
BRANCH  18  19
HETATM   19  N           1     -33.382  -3.274 -17.491  0.00  0.00    -0.066 N 
HETATM   20  H           1     -34.254  -3.431 -18.045  0.00  0.00     0.275 HD
HETATM   21  H           1     -33.513  -2.451 -16.861  0.00  0.00     0.275 HD
HETATM   22  H           1     -32.584  -3.094 -18.140  0.00  0.00     0.275 HD
ENDBRANCH  18  19
BRANCH  18  23
HETATM   23  C           1     -31.614  -4.504 -16.286  0.00  0.00     0.101 C 
BRANCH  23  24
HETATM   24  C           1     -30.899  -5.543 -17.093  0.00  0.00     0.028 A 
HETATM   25  N           1     -31.339  -6.830 -17.272  0.00  0.00    -0.355 N 
HETATM   26  C           1     -30.436  -7.402 -18.033  0.00  0.00     0.180 A 
ATOM     27  HN          1     -32.187  -7.252 -16.894  1.00  0.00     0.166 HD
HETATM   28  N           1     -29.430  -6.536 -18.354  0.00  0.00    -0.360 N 
HETATM   29  C           1     -29.714  -5.338 -17.758  0.00  0.00     0.114 A 
HETATM   30  H           1     -28.592  -6.750 -18.949  0.00  0.00     0.166 HD
ENDBRANCH  23  24
ENDBRANCH  18  23
ENDBRANCH   2  18
TORSDOF 9
ENDMDL
MODEL 7
REMARK VINA RESULT:      -7.1      2.636      7.833
REMARK  9 active torsions:
REMARK  status: ('A' for Active; 'I' for Inactive)
REMARK    1  A    between atoms: N_4  and  C_7 
REMARK    2  A    between atoms: N_6  and  C_13 
REMARK       I    between atoms: N_6  and  C_9 
REMARK    3  A    between atoms: C_7  and  C_9 
REMARK    4  A    between atoms: C_7  and  C_8 
REMARK    5  A    between atoms: C_8  and  C_14 
REMARK    6  A    between atoms: C_11  and  C_13 
REMARK    7  A    between atoms: C_13  and  C_20 
REMARK    8  A    between atoms: C_20  and  C_29 
REMARK    9  A    between atoms: O_23  and  C_26 
ROOT
HETATM    1  N           1     -20.860  -8.239  -4.371  0.00  0.00    -0.344 N 
HETATM    2  C           1     -20.639  -7.434  -5.456  0.00  0.00     0.249 C 
HETATM    3  H           1     -21.717  -8.150  -3.841  0.00  0.00     0.163 HD
HETATM    4  O           1     -19.617  -7.541  -6.090  0.00  0.00    -0.271 OA
ENDROOT
BRANCH   1   5
HETATM    5  C           1     -19.866  -9.220  -3.982  0.00  0.00     0.189 C 
BRANCH   5   6
HETATM    6  C           1     -20.475 -10.600  -4.034  0.00  0.00     0.197 C 
HETATM    7  O           1     -19.803 -11.593  -3.680  0.00  0.00    -0.646 OA
HETATM    8  O           1     -21.651 -10.750  -4.429  0.00  0.00    -0.646 OA
ENDBRANCH   5   6
BRANCH   5   9
HETATM    9  C           1     -19.391  -8.926  -2.565  0.00  0.00     0.074 C 
BRANCH   9  10
HETATM   10  C           1     -20.569  -8.599  -1.701  0.00  0.00    -0.056 A 
HETATM   11  C           1     -21.135  -9.583  -0.891  0.00  0.00     0.010 A 
HETATM   12  C           1     -22.233  -9.278  -0.086  0.00  0.00     0.037 A 
HETATM   13  C           1     -22.764  -7.989  -0.092  0.00  0.00     0.065 A 
HETATM   14  C           1     -22.199  -7.005  -0.902  0.00  0.00     0.037 A 
HETATM   15  C           1     -21.102  -7.310  -1.707  0.00  0.00     0.010 A 
BRANCH  13  16
HETATM   16  O           1     -23.831  -7.693   0.689  0.00  0.00    -0.361 OA
HETATM   17  H           1     -24.050  -6.756   0.556  0.00  0.00     0.217 HD
ENDBRANCH  13  16
ENDBRANCH   9  10
ENDBRANCH   5   9
ENDBRANCH   1   5
BRANCH   2  18
HETATM   18  C           1     -21.675  -6.413  -5.861  0.00  0.00     0.280 C 
BRANCH  18  19
HETATM   19  N           1     -22.660  -6.231  -4.745  0.00  0.00    -0.066 N 
HETATM   20  H           1     -23.630  -6.337  -5.117  0.00  0.00     0.275 HD
HETATM   21  H           1     -22.487  -6.951  -4.008  0.00  0.00     0.275 HD
HETATM   22  H           1     -22.546  -5.277  -4.334  0.00  0.00     0.275 HD
ENDBRANCH  18  19
BRANCH  18  23
HETATM   23  C           1     -20.990  -5.085  -6.156  0.00  0.00     0.101 C 
BRANCH  23  24
HETATM   24  C           1     -21.450  -4.569  -7.484  0.00  0.00     0.028 A 
HETATM   25  N           1     -22.644  -3.931  -7.700  0.00  0.00    -0.355 N 
HETATM   26  C           1     -22.657  -3.645  -8.981  0.00  0.00     0.180 A 
ATOM     27  HN          1     -23.368  -3.723  -7.013  1.00  0.00     0.166 HD
HETATM   28  N           1     -21.517  -4.073  -9.601  0.00  0.00    -0.360 N 
HETATM   29  C           1     -20.732  -4.668  -8.652  0.00  0.00     0.114 A 
HETATM   30  H           1     -21.286  -3.965 -10.619  0.00  0.00     0.166 HD
ENDBRANCH  23  24
ENDBRANCH  18  23
ENDBRANCH   2  18
TORSDOF 9
ENDMDL
MODEL 8
REMARK VINA RESULT:      -6.8      2.977      5.314
REMARK  9 active torsions:
REMARK  status: ('A' for Active; 'I' for Inactive)
REMARK    1  A    between atoms: N_4  and  C_7 
REMARK    2  A    between atoms: N_6  and  C_13 
REMARK       I    between atoms: N_6  and  C_9 
REMARK    3  A    between atoms: C_7  and  C_9 
REMARK    4  A    between atoms: C_7  and  C_8 
REMARK    5  A    between atoms: C_8  and  C_14 
REMARK    6  A    between atoms: C_11  and  C_13 
REMARK    7  A    between atoms: C_13  and  C_20 
REMARK    8  A    between atoms: C_20  and  C_29 
REMARK    9  A    between atoms: O_23  and  C_26 
ROOT
HETATM    1  N           1     -21.714  -8.780  -4.226  0.00  0.00    -0.344 N 
HETATM    2  C           1     -20.856  -9.609  -4.898  0.00  0.00     0.249 C 
HETATM    3  H           1     -22.547  -9.157  -3.793  0.00  0.00     0.163 HD
HETATM    4  O           1     -19.861  -9.158  -5.413  0.00  0.00    -0.271 OA
ENDROOT
BRANCH   1   5
HETATM    5  C           1     -21.427  -7.362  -4.132  0.00  0.00     0.189 C 
BRANCH   5   6
HETATM    6  C           1     -21.568  -6.914  -2.697  0.00  0.00     0.197 C 
HETATM    7  O           1     -22.358  -5.990  -2.406  0.00  0.00    -0.646 OA
HETATM    8  O           1     -20.896  -7.468  -1.801  0.00  0.00    -0.646 OA
ENDBRANCH   5   6
BRANCH   5   9
HETATM    9  C           1     -22.407  -6.588  -5.005  0.00  0.00     0.074 C 
BRANCH   9  10
HETATM   10  C           1     -21.648  -5.724  -5.962  0.00  0.00    -0.056 A 
HETATM   11  C           1     -20.256  -5.785  -6.004  0.00  0.00     0.010 A 
HETATM   12  C           1     -19.548  -4.980  -6.896  0.00  0.00     0.037 A 
HETATM   13  C           1     -20.233  -4.113  -7.746  0.00  0.00     0.065 A 
HETATM   14  C           1     -21.626  -4.050  -7.704  0.00  0.00     0.037 A 
HETATM   15  C           1     -22.333  -4.855  -6.812  0.00  0.00     0.010 A 
BRANCH  13  16
HETATM   16  O           1     -19.546  -3.329  -8.612  0.00  0.00    -0.361 OA
HETATM   17  H           1     -19.231  -3.891  -9.340  0.00  0.00     0.217 HD
ENDBRANCH  13  16
ENDBRANCH   9  10
ENDBRANCH   5   9
ENDBRANCH   1   5
BRANCH   2  18
HETATM   18  C           1     -21.154 -11.085  -4.995  0.00  0.00     0.280 C 
BRANCH  18  19
HETATM   19  N           1     -22.294 -11.425  -4.082  0.00  0.00    -0.066 N 
HETATM   20  H           1     -23.198 -11.301  -4.591  0.00  0.00     0.275 HD
HETATM   21  H           1     -22.203 -12.419  -3.769  0.00  0.00     0.275 HD
HETATM   22  H           1     -22.273 -10.794  -3.249  0.00  0.00     0.275 HD
ENDBRANCH  18  19
BRANCH  18  23
HETATM   23  C           1     -21.531 -11.433  -6.429  0.00  0.00     0.101 C 
BRANCH  23  24
HETATM   24  C           1     -20.402 -12.171  -7.078  0.00  0.00     0.028 A 
HETATM   25  N           1     -19.145 -11.659  -7.269  0.00  0.00    -0.355 N 
HETATM   26  C           1     -18.467 -12.615  -7.862  0.00  0.00     0.180 A 
ATOM     27  HN          1     -18.807 -10.733  -7.006  1.00  0.00     0.166 HD
HETATM   28  N           1     -19.238 -13.725  -8.062  0.00  0.00    -0.360 N 
HETATM   29  C           1     -20.483 -13.455  -7.562  0.00  0.00     0.114 A 
HETATM   30  H           1     -18.932 -14.620  -8.514  0.00  0.00     0.166 HD
ENDBRANCH  23  24
ENDBRANCH  18  23
ENDBRANCH   2  18
TORSDOF 9
ENDMDL
MODEL 9
REMARK VINA RESULT:      -6.7      5.303      8.586
REMARK  9 active torsions:
REMARK  status: ('A' for Active; 'I' for Inactive)
REMARK    1  A    between atoms: N_4  and  C_7 
REMARK    2  A    between atoms: N_6  and  C_13 
REMARK       I    between atoms: N_6  and  C_9 
REMARK    3  A    between atoms: C_7  and  C_9 
REMARK    4  A    between atoms: C_7  and  C_8 
REMARK    5  A    between atoms: C_8  and  C_14 
REMARK    6  A    between atoms: C_11  and  C_13 
REMARK    7  A    between atoms: C_13  and  C_20 
REMARK    8  A    between atoms: C_20  and  C_29 
REMARK    9  A    between atoms: O_23  and  C_26 
ROOT
HETATM    1  N           1     -20.875  -8.616  -2.794  0.00  0.00    -0.344 N 
HETATM    2  C           1     -21.128  -9.639  -3.669  0.00  0.00     0.249 C 
HETATM    3  H           1     -19.958  -8.189  -2.767  0.00  0.00     0.163 HD
HETATM    4  O           1     -22.222 -10.148  -3.702  0.00  0.00    -0.271 OA
ENDROOT
BRANCH   1   5
HETATM    5  C           1     -21.921  -8.144  -1.909  0.00  0.00     0.189 C 
BRANCH   5   6
HETATM    6  C           1     -22.075  -6.651  -2.064  0.00  0.00     0.197 C 
HETATM    7  O           1     -21.967  -6.125  -3.192  0.00  0.00    -0.646 OA
HETATM    8  O           1     -22.312  -5.940  -1.063  0.00  0.00    -0.646 OA
ENDBRANCH   5   6
BRANCH   5   9
HETATM    9  C           1     -21.551  -8.470  -0.468  0.00  0.00     0.074 C 
BRANCH   9  10
HETATM   10  C           1     -22.057  -9.834  -0.118  0.00  0.00    -0.056 A 
HETATM   11  C           1     -21.182 -10.796   0.386  0.00  0.00     0.010 A 
HETATM   12  C           1     -21.654 -12.068   0.712  0.00  0.00     0.037 A 
HETATM   13  C           1     -23.001 -12.377   0.532  0.00  0.00     0.065 A 
HETATM   14  C           1     -23.877 -11.417   0.027  0.00  0.00     0.037 A 
HETATM   15  C           1     -23.405 -10.146  -0.298  0.00  0.00     0.010 A 
BRANCH  13  16
HETATM   16  O           1     -23.460 -13.613   0.848  0.00  0.00    -0.361 OA
HETATM   17  H           1     -22.771 -14.068   1.360  0.00  0.00     0.217 HD
ENDBRANCH  13  16
ENDBRANCH   9  10
ENDBRANCH   5   9
ENDBRANCH   1   5
BRANCH   2  18
HETATM   18  C           1     -20.038 -10.130  -4.591  0.00  0.00     0.280 C 
BRANCH  18  19
HETATM   19  N           1     -20.629 -10.464  -5.928  0.00  0.00    -0.066 N 
HETATM   20  H           1     -21.394 -11.164  -5.806  0.00  0.00     0.275 HD
HETATM   21  H           1     -21.016  -9.596  -6.363  0.00  0.00     0.275 HD
HETATM   22  H           1     -19.887 -10.863  -6.546  0.00  0.00     0.275 HD
ENDBRANCH  18  19
BRANCH  18  23
HETATM   23  C           1     -18.986  -9.042  -4.758  0.00  0.00     0.101 C 
BRANCH  23  24
HETATM   24  C           1     -17.687  -9.509  -4.178  0.00  0.00     0.028 A 
HETATM   25  N           1     -17.331  -9.380  -2.861  0.00  0.00    -0.355 N 
HETATM   26  C           1     -16.133  -9.910  -2.772  0.00  0.00     0.180 A 
ATOM     27  HN          1     -17.880  -8.962  -2.109  1.00  0.00     0.166 HD
HETATM   28  N           1     -15.701 -10.376  -3.981  0.00  0.00    -0.360 N 
HETATM   29  C           1     -16.689 -10.126  -4.894  0.00  0.00     0.114 A 
HETATM   30  H           1     -14.781 -10.842  -4.175  0.00  0.00     0.166 HD
ENDBRANCH  23  24
ENDBRANCH  18  23
ENDBRANCH   2  18
TORSDOF 9
ENDMDL
