MODEL 1
REMARK VINA RESULT:      -6.0      0.000      0.000
REMARK  9 active torsions:
REMARK  status: ('A' for Active; 'I' for Inactive)
REMARK    1  A    between atoms: N_1  and  C_6 
REMARK       I    between atoms: N_1  and  C_16 
REMARK    2  A    between atoms: C_3  and  C_16 
REMARK    3  A    between atoms: C_3  and  C_18 
REMARK    4  A    between atoms: C_3  and  N_14 
REMARK    5  A    between atoms: C_5  and  C_6 
REMARK    6  A    between atoms: C_6  and  C_15 
REMARK    7  A    between atoms: C_10  and  C_23 
REMARK    8  A    between atoms: C_10  and  C_15 
REMARK    9  A    between atoms: N_22  and  C_23 
ROOT
HETATM    1  N           1     -35.107  -1.483 -12.764  0.00  0.00    -0.345 N 
HETATM    2  H           1     -35.586  -1.845 -13.579  0.00  0.00     0.163 HD
HETATM    3  O           1     -33.806  -1.893 -10.996  0.00  0.00    -0.271 OA
HETATM    4  C           1     -34.378  -2.325 -11.968  0.00  0.00     0.249 C 
ENDROOT
BRANCH   1   5
HETATM    5  C           1     -35.190  -0.072 -12.442  0.00  0.00     0.185 C 
BRANCH   5   6
HETATM    6  C           1     -36.407   0.175 -11.583  0.00  0.00     0.196 C 
HETATM    7  O           1     -36.271   0.583 -10.410  0.00  0.00    -0.646 OA
HETATM    8  O           1     -37.550  -0.027 -12.048  0.00  0.00    -0.646 OA
ENDBRANCH   5   6
BRANCH   5   9
HETATM    9  C           1     -35.301   0.737 -13.728  0.00  0.00     0.038 C 
BRANCH   9  10
HETATM   10  C           1     -35.447  -0.208 -14.913  0.00  0.00     0.030 C 
BRANCH  10  11
HETATM   11  C           1     -36.600   0.255 -15.794  0.00  0.00     0.230 C 
BRANCH  11  12
HETATM   12  N           1     -37.793   0.561 -14.938  0.00  0.00    -0.079 N 
HETATM   13  H           1     -38.605  -0.016 -15.253  0.00  0.00     0.274 HD
HETATM   14  H           1     -38.033   1.574 -15.023  0.00  0.00     0.274 HD
HETATM   15  H           1     -37.572   0.337 -13.941  0.00  0.00     0.274 HD
ENDBRANCH  11  12
ENDBRANCH  10  11
ENDBRANCH   9  10
ENDBRANCH   5   9
ENDBRANCH   1   5
BRANCH   4  16
HETATM   16  C           1     -34.292  -3.794 -12.304  0.00  0.00     0.278 C 
BRANCH  16  17
HETATM   17  C           1     -33.288  -4.469 -11.378  0.00  0.00     0.017 C 
HETATM   18  C           1     -31.999  -4.741 -12.141  0.00  0.00     0.012 C 
HETATM   19  C           1     -33.866  -5.784 -10.873  0.00  0.00     0.012 C 
ENDBRANCH  16  17
BRANCH  16  20
HETATM   20  N           1     -33.845  -3.955 -13.726  0.00  0.00    -0.066 N 
HETATM   21  H           1     -34.473  -3.404 -14.354  0.00  0.00     0.275 HD
HETATM   22  H           1     -32.864  -3.606 -13.825  0.00  0.00     0.275 HD
HETATM   23  H           1     -33.885  -4.964 -13.993  0.00  0.00     0.275 HD
ENDBRANCH  16  20
ENDBRANCH   4  16
TORSDOF 9
ENDMDL
MODEL 2
REMARK VINA RESULT:      -5.4      1.777      5.763
REMARK  9 active torsions:
REMARK  status: ('A' for Active; 'I' for Inactive)
REMARK    1  A    between atoms: N_1  and  C_6 
REMARK       I    between atoms: N_1  and  C_16 
REMARK    2  A    between atoms: C_3  and  C_16 
REMARK    3  A    between atoms: C_3  and  C_18 
REMARK    4  A    between atoms: C_3  and  N_14 
REMARK    5  A    between atoms: C_5  and  C_6 
REMARK    6  A    between atoms: C_6  and  C_15 
REMARK    7  A    between atoms: C_10  and  C_23 
REMARK    8  A    between atoms: C_10  and  C_15 
REMARK    9  A    between atoms: N_22  and  C_23 
ROOT
HETATM    1  N           1     -34.623  -1.989 -13.095  0.00  0.00    -0.345 N 
HETATM    2  H           1     -33.740  -2.085 -13.580  0.00  0.00     0.163 HD
HETATM    3  O           1     -36.655  -1.065 -13.029  0.00  0.00    -0.271 OA
HETATM    4  C           1     -35.600  -1.179 -13.607  0.00  0.00     0.249 C 
ENDROOT
BRANCH   1   5
HETATM    5  C           1     -34.853  -2.712 -11.860  0.00  0.00     0.185 C 
BRANCH   5   6
HETATM    6  C           1     -34.425  -1.858 -10.692  0.00  0.00     0.196 C 
HETATM    7  O           1     -35.282  -1.279  -9.992  0.00  0.00    -0.646 OA
HETATM    8  O           1     -33.210  -1.730 -10.425  0.00  0.00    -0.646 OA
ENDBRANCH   5   6
BRANCH   5   9
HETATM    9  C           1     -34.046  -4.004 -11.869  0.00  0.00     0.038 C 
BRANCH   9  10
HETATM   10  C           1     -34.644  -4.984 -10.869  0.00  0.00     0.030 C 
BRANCH  10  11
HETATM   11  C           1     -33.799  -6.251 -10.833  0.00  0.00     0.230 C 
BRANCH  11  12
HETATM   12  N           1     -34.699  -7.450 -10.780  0.00  0.00    -0.079 N 
HETATM   13  H           1     -35.464  -7.343 -11.484  0.00  0.00     0.274 HD
HETATM   14  H           1     -35.115  -7.533  -9.824  0.00  0.00     0.274 HD
HETATM   15  H           1     -34.146  -8.311 -10.994  0.00  0.00     0.274 HD
ENDBRANCH  11  12
ENDBRANCH  10  11
ENDBRANCH   9  10
ENDBRANCH   5   9
ENDBRANCH   1   5
BRANCH   4  16
HETATM   16  C           1     -35.360  -0.427 -14.894  0.00  0.00     0.278 C 
BRANCH  16  17
HETATM   17  C           1     -36.592   0.402 -15.235  0.00  0.00     0.017 C 
HETATM   18  C           1     -37.466  -0.370 -16.214  0.00  0.00     0.012 C 
HETATM   19  C           1     -36.159   1.717 -15.869  0.00  0.00     0.012 C 
ENDBRANCH  16  17
BRANCH  16  20
HETATM   20  N           1     -35.094  -1.404 -16.000  0.00  0.00    -0.066 N 
HETATM   21  H           1     -34.063  -1.497 -16.142  0.00  0.00     0.275 HD
HETATM   22  H           1     -35.495  -2.335 -15.746  0.00  0.00     0.275 HD
HETATM   23  H           1     -35.537  -1.062 -16.882  0.00  0.00     0.275 HD
ENDBRANCH  16  20
ENDBRANCH   4  16
TORSDOF 9
ENDMDL
MODEL 3
REMARK VINA RESULT:      -5.4     11.500     13.716
REMARK  9 active torsions:
REMARK  status: ('A' for Active; 'I' for Inactive)
REMARK    1  A    between atoms: N_1  and  C_6 
REMARK       I    between atoms: N_1  and  C_16 
REMARK    2  A    between atoms: C_3  and  C_16 
REMARK    3  A    between atoms: C_3  and  C_18 
REMARK    4  A    between atoms: C_3  and  N_14 
REMARK    5  A    between atoms: C_5  and  C_6 
REMARK    6  A    between atoms: C_6  and  C_15 
REMARK    7  A    between atoms: C_10  and  C_23 
REMARK    8  A    between atoms: C_10  and  C_15 
REMARK    9  A    between atoms: N_22  and  C_23 
ROOT
HETATM    1  N           1     -23.226  -4.455  -8.714  0.00  0.00    -0.345 N 
HETATM    2  H           1     -23.986  -5.026  -8.368  0.00  0.00     0.163 HD
HETATM    3  O           1     -21.188  -3.607  -8.372  0.00  0.00    -0.271 OA
HETATM    4  C           1     -22.096  -4.289  -7.959  0.00  0.00     0.249 C 
ENDROOT
BRANCH   1   5
HETATM    5  C           1     -23.332  -3.814 -10.010  0.00  0.00     0.185 C 
BRANCH   5   6
HETATM    6  C           1     -24.723  -3.251 -10.179  0.00  0.00     0.196 C 
HETATM    7  O           1     -25.296  -3.324 -11.286  0.00  0.00    -0.646 OA
HETATM    8  O           1     -25.300  -2.712  -9.209  0.00  0.00    -0.646 OA
ENDBRANCH   5   6
BRANCH   5   9
HETATM    9  C           1     -23.061  -4.837 -11.106  0.00  0.00     0.038 C 
BRANCH   9  10
HETATM   10  C           1     -21.831  -4.418 -11.899  0.00  0.00     0.030 C 
BRANCH  10  11
HETATM   11  C           1     -21.549  -2.941 -11.657  0.00  0.00     0.230 C 
BRANCH  11  12
HETATM   12  N           1     -20.114  -2.766 -11.256  0.00  0.00    -0.079 N 
HETATM   13  H           1     -19.862  -3.484 -10.540  0.00  0.00     0.274 HD
HETATM   14  H           1     -19.978  -1.811 -10.853  0.00  0.00     0.274 HD
HETATM   15  H           1     -19.502  -2.880 -12.095  0.00  0.00     0.274 HD
ENDBRANCH  11  12
ENDBRANCH  10  11
ENDBRANCH   9  10
ENDBRANCH   5   9
ENDBRANCH   1   5
BRANCH   4  16
HETATM   16  C           1     -21.985  -4.956  -6.610  0.00  0.00     0.278 C 
BRANCH  16  17
HETATM   17  C           1     -21.217  -6.264  -6.753  0.00  0.00     0.017 C 
HETATM   18  C           1     -21.586  -7.195  -5.606  0.00  0.00     0.012 C 
HETATM   19  C           1     -19.721  -5.982  -6.715  0.00  0.00     0.012 C 
ENDBRANCH  16  17
BRANCH  16  20
HETATM   20  N           1     -23.358  -5.240  -6.079  0.00  0.00    -0.066 N 
HETATM   21  H           1     -23.919  -4.358  -6.074  0.00  0.00     0.275 HD
HETATM   22  H           1     -23.829  -5.947  -6.689  0.00  0.00     0.275 HD
HETATM   23  H           1     -23.286  -5.612  -5.105  0.00  0.00     0.275 HD
ENDBRANCH  16  20
ENDBRANCH   4  16
TORSDOF 9
ENDMDL
MODEL 4
REMARK VINA RESULT:      -5.3      2.715      4.993
REMARK  9 active torsions:
REMARK  status: ('A' for Active; 'I' for Inactive)
REMARK    1  A    between atoms: N_1  and  C_6 
REMARK       I    between atoms: N_1  and  C_16 
REMARK    2  A    between atoms: C_3  and  C_16 
REMARK    3  A    between atoms: C_3  and  C_18 
REMARK    4  A    between atoms: C_3  and  N_14 
REMARK    5  A    between atoms: C_5  and  C_6 
REMARK    6  A    between atoms: C_6  and  C_15 
REMARK    7  A    between atoms: C_10  and  C_23 
REMARK    8  A    between atoms: C_10  and  C_15 
REMARK    9  A    between atoms: N_22  and  C_23 
ROOT
HETATM    1  N           1     -35.811  -0.692 -10.851  0.00  0.00    -0.345 N 
HETATM    2  H           1     -34.933  -0.475 -10.397  0.00  0.00     0.163 HD
HETATM    3  O           1     -38.015  -1.004 -10.660  0.00  0.00    -0.271 OA
HETATM    4  C           1     -36.966  -0.744 -10.118  0.00  0.00     0.249 C 
ENDROOT
BRANCH   1   5
HETATM    5  C           1     -35.846  -0.946 -12.278  0.00  0.00     0.185 C 
BRANCH   5   6
HETATM    6  C           1     -34.889  -2.064 -12.612  0.00  0.00     0.196 C 
HETATM    7  O           1     -34.760  -2.443 -13.795  0.00  0.00    -0.646 OA
HETATM    8  O           1     -34.226  -2.610 -11.704  0.00  0.00    -0.646 OA
ENDBRANCH   5   6
BRANCH   5   9
HETATM    9  C           1     -35.437   0.316 -13.028  0.00  0.00     0.038 C 
BRANCH   9  10
HETATM   10  C           1     -36.278   0.453 -14.289  0.00  0.00     0.030 C 
BRANCH  10  11
HETATM   11  C           1     -35.460   1.141 -15.374  0.00  0.00     0.230 C 
BRANCH  11  12
HETATM   12  N           1     -36.313   2.155 -16.077  0.00  0.00    -0.079 N 
HETATM   13  H           1     -35.820   3.076 -16.090  0.00  0.00     0.274 HD
HETATM   14  H           1     -37.223   2.255 -15.573  0.00  0.00     0.274 HD
HETATM   15  H           1     -36.490   1.840 -17.058  0.00  0.00     0.274 HD
ENDBRANCH  11  12
ENDBRANCH  10  11
ENDBRANCH   9  10
ENDBRANCH   5   9
ENDBRANCH   1   5
BRANCH   4  16
HETATM   16  C           1     -36.930  -0.480  -8.633  0.00  0.00     0.278 C 
BRANCH  16  17
HETATM   17  C           1     -38.075   0.451  -8.255  0.00  0.00     0.017 C 
HETATM   18  C           1     -37.896   1.787  -8.963  0.00  0.00     0.012 C 
HETATM   19  C           1     -38.074   0.672  -6.747  0.00  0.00     0.012 C 
ENDBRANCH  16  17
BRANCH  16  20
HETATM   20  N           1     -35.625   0.163  -8.272  0.00  0.00    -0.066 N 
HETATM   21  H           1     -35.154   0.509  -9.139  0.00  0.00     0.275 HD
HETATM   22  H           1     -35.798   0.967  -7.627  0.00  0.00     0.275 HD
HETATM   23  H           1     -35.009  -0.537  -7.799  0.00  0.00     0.275 HD
ENDBRANCH  16  20
ENDBRANCH   4  16
TORSDOF 9
ENDMDL
MODEL 5
REMARK VINA RESULT:      -5.2     13.793     16.345
REMARK  9 active torsions:
REMARK  status: ('A' for Active; 'I' for Inactive)
REMARK    1  A    between atoms: N_1  and  C_6 
REMARK       I    between atoms: N_1  and  C_16 
REMARK    2  A    between atoms: C_3  and  C_16 
REMARK    3  A    between atoms: C_3  and  C_18 
REMARK    4  A    between atoms: C_3  and  N_14 
REMARK    5  A    between atoms: C_5  and  C_6 
REMARK    6  A    between atoms: C_6  and  C_15 
REMARK    7  A    between atoms: C_10  and  C_23 
REMARK    8  A    between atoms: C_10  and  C_15 
REMARK    9  A    between atoms: N_22  and  C_23 
ROOT
HETATM    1  N           1     -20.922  -5.593  -5.025  0.00  0.00    -0.345 N 
HETATM    2  H           1     -20.262  -4.950  -4.608  0.00  0.00     0.163 HD
HETATM    3  O           1     -22.372  -7.268  -4.740  0.00  0.00    -0.271 OA
HETATM    4  C           1     -21.584  -6.499  -4.241  0.00  0.00     0.249 C 
ENDROOT
BRANCH   1   5
HETATM    5  C           1     -21.168  -5.554  -6.453  0.00  0.00     0.185 C 
BRANCH   5   6
HETATM    6  C           1     -19.863  -5.730  -7.192  0.00  0.00     0.196 C 
HETATM    7  O           1     -19.279  -6.834  -7.175  0.00  0.00    -0.646 OA
HETATM    8  O           1     -19.368  -4.769  -7.821  0.00  0.00    -0.646 OA
ENDBRANCH   5   6
BRANCH   5   9
HETATM    9  C           1     -21.786  -4.212  -6.825  0.00  0.00     0.038 C 
BRANCH   9  10
HETATM   10  C           1     -23.177  -4.436  -7.403  0.00  0.00     0.030 C 
BRANCH  10  11
HETATM   11  C           1     -23.215  -3.940  -8.843  0.00  0.00     0.230 C 
BRANCH  11  12
HETATM   12  N           1     -24.542  -3.296  -9.115  0.00  0.00    -0.079 N 
HETATM   13  H           1     -25.309  -3.930  -8.793  0.00  0.00     0.274 HD
HETATM   14  H           1     -24.642  -3.124 -10.141  0.00  0.00     0.274 HD
HETATM   15  H           1     -24.601  -2.388  -8.602  0.00  0.00     0.274 HD
ENDBRANCH  11  12
ENDBRANCH  10  11
ENDBRANCH   9  10
ENDBRANCH   5   9
ENDBRANCH   1   5
BRANCH   4  16
HETATM   16  C           1     -21.329  -6.540  -2.755  0.00  0.00     0.278 C 
BRANCH  16  17
HETATM   17  C           1     -21.337  -7.986  -2.277  0.00  0.00     0.017 C 
HETATM   18  C           1     -21.825  -8.041  -0.836  0.00  0.00     0.012 C 
HETATM   19  C           1     -19.927  -8.557  -2.357  0.00  0.00     0.012 C 
ENDBRANCH  16  17
BRANCH  16  20
HETATM   20  N           1     -22.402  -5.773  -2.043  0.00  0.00    -0.066 N 
HETATM   21  H           1     -23.238  -6.385  -1.908  0.00  0.00     0.275 HD
HETATM   22  H           1     -22.048  -5.460  -1.111  0.00  0.00     0.275 HD
HETATM   23  H           1     -22.671  -4.938  -2.612  0.00  0.00     0.275 HD
ENDBRANCH  16  20
ENDBRANCH   4  16
TORSDOF 9
ENDMDL
MODEL 6
REMARK VINA RESULT:      -5.1     13.999     16.893
REMARK  9 active torsions:
REMARK  status: ('A' for Active; 'I' for Inactive)
REMARK    1  A    between atoms: N_1  and  C_6 
REMARK       I    between atoms: N_1  and  C_16 
REMARK    2  A    between atoms: C_3  and  C_16 
REMARK    3  A    between atoms: C_3  and  C_18 
REMARK    4  A    between atoms: C_3  and  N_14 
REMARK    5  A    between atoms: C_5  and  C_6 
REMARK    6  A    between atoms: C_6  and  C_15 
REMARK    7  A    between atoms: C_10  and  C_23 
REMARK    8  A    between atoms: C_10  and  C_15 
REMARK    9  A    between atoms: N_22  and  C_23 
ROOT
HETATM    1  N           1     -21.640  -6.270  -6.170  0.00  0.00    -0.345 N 
HETATM    2  H           1     -22.160  -7.018  -6.610  0.00  0.00     0.163 HD
HETATM    3  O           1     -20.935  -4.152  -6.251  0.00  0.00    -0.271 OA
HETATM    4  C           1     -21.555  -5.046  -6.777  0.00  0.00     0.249 C 
ENDROOT
BRANCH   1   5
HETATM    5  C           1     -20.987  -6.493  -4.895  0.00  0.00     0.185 C 
BRANCH   5   6
HETATM    6  C           1     -20.103  -7.713  -4.991  0.00  0.00     0.196 C 
HETATM    7  O           1     -19.420  -7.911  -6.017  0.00  0.00    -0.646 OA
HETATM    8  O           1     -20.056  -8.525  -4.041  0.00  0.00    -0.646 OA
ENDBRANCH   5   6
BRANCH   5   9
HETATM    9  C           1     -22.041  -6.711  -3.816  0.00  0.00     0.038 C 
BRANCH   9  10
HETATM   10  C           1     -21.611  -6.009  -2.536  0.00  0.00     0.030 C 
BRANCH  10  11
HETATM   11  C           1     -22.138  -6.779  -1.332  0.00  0.00     0.230 C 
BRANCH  11  12
HETATM   12  N           1     -21.831  -8.238  -1.498  0.00  0.00    -0.079 N 
HETATM   13  H           1     -21.262  -8.378  -2.363  0.00  0.00     0.274 HD
HETATM   14  H           1     -22.724  -8.776  -1.579  0.00  0.00     0.274 HD
HETATM   15  H           1     -21.294  -8.577  -0.668  0.00  0.00     0.274 HD
ENDBRANCH  11  12
ENDBRANCH  10  11
ENDBRANCH   9  10
ENDBRANCH   5   9
ENDBRANCH   1   5
BRANCH   4  16
HETATM   16  C           1     -22.236  -4.813  -8.104  0.00  0.00     0.278 C 
BRANCH  16  17
HETATM   17  C           1     -21.340  -3.957  -8.991  0.00  0.00     0.017 C 
HETATM   18  C           1     -22.107  -3.551 -10.242  0.00  0.00     0.012 C 
HETATM   19  C           1     -20.106  -4.756  -9.390  0.00  0.00     0.012 C 
ENDBRANCH  16  17
BRANCH  16  20
HETATM   20  N           1     -23.538  -4.106  -7.880  0.00  0.00    -0.066 N 
HETATM   21  H           1     -24.118  -4.649  -7.200  0.00  0.00     0.275 HD
HETATM   22  H           1     -23.355  -3.151  -7.495  0.00  0.00     0.275 HD
HETATM   23  H           1     -24.052  -4.024  -8.786  0.00  0.00     0.275 HD
ENDBRANCH  16  20
ENDBRANCH   4  16
TORSDOF 9
ENDMDL
MODEL 7
REMARK VINA RESULT:      -5.1      2.428      5.715
REMARK  9 active torsions:
REMARK  status: ('A' for Active; 'I' for Inactive)
REMARK    1  A    between atoms: N_1  and  C_6 
REMARK       I    between atoms: N_1  and  C_16 
REMARK    2  A    between atoms: C_3  and  C_16 
REMARK    3  A    between atoms: C_3  and  C_18 
REMARK    4  A    between atoms: C_3  and  N_14 
REMARK    5  A    between atoms: C_5  and  C_6 
REMARK    6  A    between atoms: C_6  and  C_15 
REMARK    7  A    between atoms: C_10  and  C_23 
REMARK    8  A    between atoms: C_10  and  C_15 
REMARK    9  A    between atoms: N_22  and  C_23 
ROOT
HETATM    1  N           1     -35.567  -1.324 -11.174  0.00  0.00    -0.345 N 
HETATM    2  H           1     -36.063  -2.038 -10.655  0.00  0.00     0.163 HD
HETATM    3  O           1     -35.440   0.815 -11.802  0.00  0.00    -0.271 OA
HETATM    4  C           1     -36.032  -0.037 -11.183  0.00  0.00     0.249 C 
ENDROOT
BRANCH   1   5
HETATM    5  C           1     -34.362  -1.665 -11.904  0.00  0.00     0.185 C 
BRANCH   5   6
HETATM    6  C           1     -34.735  -2.208 -13.262  0.00  0.00     0.196 C 
HETATM    7  O           1     -34.317  -3.328 -13.623  0.00  0.00    -0.646 OA
HETATM    8  O           1     -35.464  -1.537 -14.024  0.00  0.00    -0.646 OA
ENDBRANCH   5   6
BRANCH   5   9
HETATM    9  C           1     -33.580  -2.720 -11.131  0.00  0.00     0.038 C 
BRANCH   9  10
HETATM   10  C           1     -34.549  -3.712 -10.503  0.00  0.00     0.030 C 
BRANCH  10  11
HETATM   11  C           1     -34.043  -5.130 -10.730  0.00  0.00     0.230 C 
BRANCH  11  12
HETATM   12  N           1     -32.851  -5.096 -11.640  0.00  0.00    -0.079 N 
HETATM   13  H           1     -32.079  -4.561 -11.183  0.00  0.00     0.274 HD
HETATM   14  H           1     -33.112  -4.631 -12.539  0.00  0.00     0.274 HD
HETATM   15  H           1     -32.533  -6.073 -11.833  0.00  0.00     0.274 HD
ENDBRANCH  11  12
ENDBRANCH  10  11
ENDBRANCH   9  10
ENDBRANCH   5   9
ENDBRANCH   1   5
BRANCH   4  16
HETATM   16  C           1     -37.286   0.318 -10.422  0.00  0.00     0.278 C 
BRANCH  16  17
HETATM   17  C           1     -36.916   1.099  -9.168  0.00  0.00     0.017 C 
HETATM   18  C           1     -36.620   0.126  -8.034  0.00  0.00     0.012 C 
HETATM   19  C           1     -38.075   2.003  -8.771  0.00  0.00     0.012 C 
ENDBRANCH  16  17
BRANCH  16  20
HETATM   20  N           1     -38.006  -0.939 -10.033  0.00  0.00    -0.066 N 
HETATM   21  H           1     -39.010  -0.868 -10.313  0.00  0.00     0.275 HD
HETATM   22  H           1     -37.568  -1.756 -10.517  0.00  0.00     0.275 HD
HETATM   23  H           1     -37.942  -1.072  -8.998  0.00  0.00     0.275 HD
ENDBRANCH  16  20
ENDBRANCH   4  16
TORSDOF 9
ENDMDL
MODEL 8
REMARK VINA RESULT:      -5.0     17.101     18.691
REMARK  9 active torsions:
REMARK  status: ('A' for Active; 'I' for Inactive)
REMARK    1  A    between atoms: N_1  and  C_6 
REMARK       I    between atoms: N_1  and  C_16 
REMARK    2  A    between atoms: C_3  and  C_16 
REMARK    3  A    between atoms: C_3  and  C_18 
REMARK    4  A    between atoms: C_3  and  N_14 
REMARK    5  A    between atoms: C_5  and  C_6 
REMARK    6  A    between atoms: C_6  and  C_15 
REMARK    7  A    between atoms: C_10  and  C_23 
REMARK    8  A    between atoms: C_10  and  C_15 
REMARK    9  A    between atoms: N_22  and  C_23 
ROOT
HETATM    1  N           1     -20.682  -7.968  -3.247  0.00  0.00    -0.345 N 
HETATM    2  H           1     -20.252  -7.056  -3.158  0.00  0.00     0.163 HD
HETATM    3  O           1     -21.852  -9.611  -2.289  0.00  0.00    -0.271 OA
HETATM    4  C           1     -21.339  -8.523  -2.182  0.00  0.00     0.249 C 
ENDROOT
BRANCH   1   5
HETATM    5  C           1     -20.603  -8.686  -4.504  0.00  0.00     0.185 C 
BRANCH   5   6
HETATM    6  C           1     -19.156  -8.936  -4.850  0.00  0.00     0.196 C 
HETATM    7  O           1     -18.772  -8.845  -6.035  0.00  0.00    -0.646 OA
HETATM    8  O           1     -18.341  -9.234  -3.949  0.00  0.00    -0.646 OA
ENDBRANCH   5   6
BRANCH   5   9
HETATM    9  C           1     -21.253  -7.855  -5.604  0.00  0.00     0.038 C 
BRANCH   9  10
HETATM   10  C           1     -21.314  -6.397  -5.171  0.00  0.00     0.030 C 
BRANCH  10  11
HETATM   11  C           1     -20.294  -5.589  -5.963  0.00  0.00     0.230 C 
BRANCH  11  12
HETATM   12  N           1     -19.964  -6.310  -7.236  0.00  0.00    -0.079 N 
HETATM   13  H           1     -19.219  -7.019  -7.052  0.00  0.00     0.274 HD
HETATM   14  H           1     -19.624  -5.624  -7.947  0.00  0.00     0.274 HD
HETATM   15  H           1     -20.820  -6.789  -7.597  0.00  0.00     0.274 HD
ENDBRANCH  11  12
ENDBRANCH  10  11
ENDBRANCH   9  10
ENDBRANCH   5   9
ENDBRANCH   1   5
BRANCH   4  16
HETATM   16  C           1     -21.421  -7.775  -0.873  0.00  0.00     0.278 C 
BRANCH  16  17
HETATM   17  C           1     -21.994  -8.691   0.200  0.00  0.00     0.017 C 
HETATM   18  C           1     -23.350  -8.162   0.647  0.00  0.00     0.012 C 
HETATM   19  C           1     -21.048  -8.731   1.393  0.00  0.00     0.012 C 
ENDBRANCH  16  17
BRANCH  16  20
HETATM   20  N           1     -22.311  -6.580  -1.037  0.00  0.00    -0.066 N 
HETATM   21  H           1     -21.988  -6.012  -1.853  0.00  0.00     0.275 HD
HETATM   22  H           1     -23.293  -6.897  -1.201  0.00  0.00     0.275 HD
HETATM   23  H           1     -22.273  -5.995  -0.171  0.00  0.00     0.275 HD
ENDBRANCH  16  20
ENDBRANCH   4  16
TORSDOF 9
ENDMDL
MODEL 9
REMARK VINA RESULT:      -4.9     11.646     14.212
REMARK  9 active torsions:
REMARK  status: ('A' for Active; 'I' for Inactive)
REMARK    1  A    between atoms: N_1  and  C_6 
REMARK       I    between atoms: N_1  and  C_16 
REMARK    2  A    between atoms: C_3  and  C_16 
REMARK    3  A    between atoms: C_3  and  C_18 
REMARK    4  A    between atoms: C_3  and  N_14 
REMARK    5  A    between atoms: C_5  and  C_6 
REMARK    6  A    between atoms: C_6  and  C_15 
REMARK    7  A    between atoms: C_10  and  C_23 
REMARK    8  A    between atoms: C_10  and  C_15 
REMARK    9  A    between atoms: N_22  and  C_23 
ROOT
HETATM    1  N           1     -22.001  -4.211  -9.349  0.00  0.00    -0.345 N 
HETATM    2  H           1     -22.904  -3.806  -9.137  0.00  0.00     0.163 HD
HETATM    3  O           1     -20.076  -5.048  -8.586  0.00  0.00    -0.271 OA
HETATM    4  C           1     -21.154  -4.565  -8.333  0.00  0.00     0.249 C 
ENDROOT
BRANCH   1   5
HETATM    5  C           1     -21.605  -4.417 -10.727  0.00  0.00     0.185 C 
BRANCH   5   6
HETATM    6  C           1     -21.032  -3.136 -11.282  0.00  0.00     0.196 C 
HETATM    7  O           1     -19.809  -2.902 -11.178  0.00  0.00    -0.646 OA
HETATM    8  O           1     -21.781  -2.310 -11.847  0.00  0.00    -0.646 OA
ENDBRANCH   5   6
BRANCH   5   9
HETATM    9  C           1     -22.822  -4.828 -11.549  0.00  0.00     0.038 C 
BRANCH   9  10
HETATM   10  C           1     -24.046  -4.891 -10.646  0.00  0.00     0.030 C 
BRANCH  10  11
HETATM   11  C           1     -24.744  -3.538 -10.641  0.00  0.00     0.230 C 
BRANCH  11  12
HETATM   12  N           1     -25.695  -3.469  -9.483  0.00  0.00    -0.079 N 
HETATM   13  H           1     -26.618  -3.868  -9.767  0.00  0.00     0.274 HD
HETATM   14  H           1     -25.821  -2.473  -9.194  0.00  0.00     0.274 HD
HETATM   15  H           1     -25.308  -4.018  -8.683  0.00  0.00     0.274 HD
ENDBRANCH  11  12
ENDBRANCH  10  11
ENDBRANCH   9  10
ENDBRANCH   5   9
ENDBRANCH   1   5
BRANCH   4  16
HETATM   16  C           1     -21.567  -4.350  -6.897  0.00  0.00     0.278 C 
BRANCH  16  17
HETATM   17  C           1     -20.915  -5.409  -6.018  0.00  0.00     0.017 C 
HETATM   18  C           1     -21.994  -6.172  -5.261  0.00  0.00     0.012 C 
HETATM   19  C           1     -19.977  -4.738  -5.023  0.00  0.00     0.012 C 
ENDBRANCH  16  17
BRANCH  16  20
HETATM   20  N           1     -23.058  -4.456  -6.785  0.00  0.00    -0.066 N 
HETATM   21  H           1     -23.306  -4.985  -5.919  0.00  0.00     0.275 HD
HETATM   22  H           1     -23.473  -3.497  -6.738  0.00  0.00     0.275 HD
HETATM   23  H           1     -23.436  -4.958  -7.620  0.00  0.00     0.275 HD
ENDBRANCH  16  20
ENDBRANCH   4  16
TORSDOF 9
ENDMDL
