MODEL 1
REMARK VINA RESULT:      -7.7      0.000      0.000
REMARK  9 active torsions:
REMARK  status: ('A' for Active; 'I' for Inactive)
REMARK    1  A    between atoms: C_2  and  C_5 
REMARK    2  A    between atoms: C_2  and  C_16 
REMARK    3  A    between atoms: C_2  and  N_9 
REMARK    4  A    between atoms: O_4  and  C_14 
REMARK    5  A    between atoms: C_5  and  C_22 
REMARK       I    between atoms: C_7  and  N_9 
REMARK    6  A    between atoms: C_7  and  C_15 
REMARK    7  A    between atoms: C_11  and  C_15 
REMARK    8  A    between atoms: C_11  and  O_12 
REMARK    9  A    between atoms: C_15  and  N_25 
ROOT
HETATM    1  C           1     -36.042  -0.986 -11.988  0.00  0.00     0.189 C 
ENDROOT
BRANCH   1   2
HETATM    2  C           1     -34.623  -1.232 -11.494  0.00  0.00     0.074 C 
BRANCH   2   3
HETATM    3  C           1     -34.393  -2.705 -11.347  0.00  0.00    -0.056 A 
HETATM    4  C           1     -35.436  -3.536 -10.938  0.00  0.00     0.010 A 
HETATM    5  C           1     -35.222  -4.907 -10.801  0.00  0.00     0.037 A 
HETATM    6  C           1     -33.965  -5.448 -11.072  0.00  0.00     0.065 A 
HETATM    7  C           1     -32.923  -4.616 -11.480  0.00  0.00     0.037 A 
HETATM    8  C           1     -33.136  -3.244 -11.617  0.00  0.00     0.010 A 
BRANCH   6   9
HETATM    9  O           1     -33.757  -6.780 -10.939  0.00  0.00    -0.361 OA
HETATM   10  H           1     -33.408  -7.115 -11.781  0.00  0.00     0.217 HD
ENDBRANCH   6   9
ENDBRANCH   2   3
ENDBRANCH   1   2
BRANCH   1  11
HETATM   11  C           1     -36.817  -0.230 -10.938  0.00  0.00     0.197 C 
HETATM   12  O           1     -36.285   0.730 -10.338  0.00  0.00    -0.646 OA
HETATM   13  O           1     -37.991  -0.563 -10.666  0.00  0.00    -0.646 OA
ENDBRANCH   1  11
BRANCH   1  14
HETATM   14  N           1     -36.000  -0.207 -13.210  0.00  0.00    -0.344 N 
HETATM   15  C           1     -37.046  -0.259 -14.092  0.00  0.00     0.251 C 
HETATM   16  O           1     -38.004  -0.954 -13.851  0.00  0.00    -0.271 OA
HETATM   17  H           1     -35.196   0.374 -13.412  0.00  0.00     0.163 HD
BRANCH  15  18
HETATM   18  C           1     -37.001   0.552 -15.364  0.00  0.00     0.302 C 
BRANCH  18  19
HETATM   19  C           1     -36.920  -0.385 -16.561  0.00  0.00     0.153 C 
HETATM   20  C           1     -35.626  -1.183 -16.493  0.00  0.00     0.042 C 
BRANCH  19  21
HETATM   21  O           1     -38.012  -1.264 -16.542  0.00  0.00    -0.393 OA
HETATM   22  H           1     -38.168  -1.527 -17.434  0.00  0.00     0.210 HD
ENDBRANCH  19  21
ENDBRANCH  18  19
BRANCH  18  23
HETATM   23  N           1     -35.795   1.443 -15.345  0.00  0.00    -0.064 N 
HETATM   24  H           1     -35.984   2.299 -15.914  0.00  0.00     0.275 HD
HETATM   25  H           1     -35.580   1.719 -14.360  0.00  0.00     0.275 HD
HETATM   26  H           1     -34.977   0.931 -15.748  0.00  0.00     0.275 HD
ENDBRANCH  18  23
ENDBRANCH  15  18
ENDBRANCH   1  14
TORSDOF 9
ENDMDL
MODEL 2
REMARK VINA RESULT:      -6.9     13.342     16.882
REMARK  9 active torsions:
REMARK  status: ('A' for Active; 'I' for Inactive)
REMARK    1  A    between atoms: C_2  and  C_5 
REMARK    2  A    between atoms: C_2  and  C_16 
REMARK    3  A    between atoms: C_2  and  N_9 
REMARK    4  A    between atoms: O_4  and  C_14 
REMARK    5  A    between atoms: C_5  and  C_22 
REMARK       I    between atoms: C_7  and  N_9 
REMARK    6  A    between atoms: C_7  and  C_15 
REMARK    7  A    between atoms: C_11  and  C_15 
REMARK    8  A    between atoms: C_11  and  O_12 
REMARK    9  A    between atoms: C_15  and  N_25 
ROOT
HETATM    1  C           1     -21.116  -5.064  -7.024  0.00  0.00     0.189 C 
ENDROOT
BRANCH   1   2
HETATM    2  C           1     -21.911  -3.875  -7.544  0.00  0.00     0.074 C 
BRANCH   2   3
HETATM    3  C           1     -22.368  -4.151  -8.943  0.00  0.00    -0.056 A 
HETATM    4  C           1     -21.441  -4.183  -9.985  0.00  0.00     0.010 A 
HETATM    5  C           1     -21.867  -4.440 -11.288  0.00  0.00     0.037 A 
HETATM    6  C           1     -23.219  -4.666 -11.550  0.00  0.00     0.065 A 
HETATM    7  C           1     -24.144  -4.633 -10.507  0.00  0.00     0.037 A 
HETATM    8  C           1     -23.719  -4.376  -9.203  0.00  0.00     0.010 A 
BRANCH   6   9
HETATM    9  O           1     -23.632  -4.916 -12.816  0.00  0.00    -0.361 OA
HETATM   10  H           1     -23.614  -4.078 -13.308  0.00  0.00     0.217 HD
ENDBRANCH   6   9
ENDBRANCH   2   3
ENDBRANCH   1   2
BRANCH   1  11
HETATM   11  C           1     -19.701  -4.634  -6.727  0.00  0.00     0.197 C 
HETATM   12  O           1     -18.884  -4.484  -7.661  0.00  0.00    -0.646 OA
HETATM   13  O           1     -19.346  -4.427  -5.546  0.00  0.00    -0.646 OA
ENDBRANCH   1  11
BRANCH   1  14
HETATM   14  N           1     -21.733  -5.566  -5.812  0.00  0.00    -0.344 N 
HETATM   15  C           1     -21.523  -6.861  -5.421  0.00  0.00     0.251 C 
HETATM   16  O           1     -20.823  -7.586  -6.087  0.00  0.00    -0.271 OA
HETATM   17  H           1     -22.320  -4.958  -5.255  0.00  0.00     0.163 HD
BRANCH  15  18
HETATM   18  C           1     -22.166  -7.382  -4.158  0.00  0.00     0.302 C 
BRANCH  18  19
HETATM   19  C           1     -22.017  -6.349  -3.050  0.00  0.00     0.153 C 
HETATM   20  C           1     -22.078  -7.045  -1.697  0.00  0.00     0.042 C 
BRANCH  19  21
HETATM   21  O           1     -20.784  -5.694  -3.182  0.00  0.00    -0.393 OA
HETATM   22  H           1     -20.955  -4.771  -3.101  0.00  0.00     0.210 HD
ENDBRANCH  19  21
ENDBRANCH  18  19
BRANCH  18  23
HETATM   23  N           1     -21.493  -8.657  -3.746  0.00  0.00    -0.064 N 
HETATM   24  H           1     -22.113  -9.467  -3.974  0.00  0.00     0.275 HD
HETATM   25  H           1     -20.587  -8.755  -4.259  0.00  0.00     0.275 HD
HETATM   26  H           1     -21.309  -8.638  -2.717  0.00  0.00     0.275 HD
ENDBRANCH  18  23
ENDBRANCH  15  18
ENDBRANCH   1  14
TORSDOF 9
ENDMDL
MODEL 3
REMARK VINA RESULT:      -6.4     14.922     18.006
REMARK  9 active torsions:
REMARK  status: ('A' for Active; 'I' for Inactive)
REMARK    1  A    between atoms: C_2  and  C_5 
REMARK    2  A    between atoms: C_2  and  C_16 
REMARK    3  A    between atoms: C_2  and  N_9 
REMARK    4  A    between atoms: O_4  and  C_14 
REMARK    5  A    between atoms: C_5  and  C_22 
REMARK       I    between atoms: C_7  and  N_9 
REMARK    6  A    between atoms: C_7  and  C_15 
REMARK    7  A    between atoms: C_11  and  C_15 
REMARK    8  A    between atoms: C_11  and  O_12 
REMARK    9  A    between atoms: C_15  and  N_25 
ROOT
HETATM    1  C           1     -20.119  -7.492  -4.956  0.00  0.00     0.189 C 
ENDROOT
BRANCH   1   2
HETATM    2  C           1     -21.447  -8.144  -4.601  0.00  0.00     0.074 C 
BRANCH   2   3
HETATM    3  C           1     -21.684  -8.026  -3.127  0.00  0.00    -0.056 A 
HETATM    4  C           1     -21.640  -9.164  -2.321  0.00  0.00     0.010 A 
HETATM    5  C           1     -21.861  -9.054  -0.948  0.00  0.00     0.037 A 
HETATM    6  C           1     -22.125  -7.807  -0.381  0.00  0.00     0.065 A 
HETATM    7  C           1     -22.169  -6.671  -1.188  0.00  0.00     0.037 A 
HETATM    8  C           1     -21.948  -6.780  -2.561  0.00  0.00     0.010 A 
BRANCH   6   9
HETATM    9  O           1     -22.339  -7.700   0.953  0.00  0.00    -0.361 OA
HETATM   10  H           1     -23.235  -8.026   1.140  0.00  0.00     0.217 HD
ENDBRANCH   6   9
ENDBRANCH   2   3
ENDBRANCH   1   2
BRANCH   1  11
HETATM   11  C           1     -19.082  -8.560  -5.201  0.00  0.00     0.197 C 
HETATM   12  O           1     -18.732  -9.316  -4.269  0.00  0.00    -0.646 OA
HETATM   13  O           1     -18.573  -8.689  -6.335  0.00  0.00    -0.646 OA
ENDBRANCH   1  11
BRANCH   1  14
HETATM   14  N           1     -20.279  -6.691  -6.154  0.00  0.00    -0.344 N 
HETATM   15  C           1     -20.359  -5.327  -6.062  0.00  0.00     0.251 C 
HETATM   16  O           1     -20.297  -4.791  -4.981  0.00  0.00    -0.271 OA
HETATM   17  H           1     -20.331  -7.141  -7.059  0.00  0.00     0.163 HD
BRANCH  15  18
HETATM   18  C           1     -20.525  -4.495  -7.310  0.00  0.00     0.302 C 
BRANCH  18  19
HETATM   19  C           1     -21.985  -4.088  -7.458  0.00  0.00     0.153 C 
HETATM   20  C           1     -22.454  -4.389  -8.874  0.00  0.00     0.042 C 
BRANCH  19  21
HETATM   21  O           1     -22.767  -4.808  -6.544  0.00  0.00    -0.393 OA
HETATM   22  H           1     -23.634  -4.862  -6.909  0.00  0.00     0.210 HD
ENDBRANCH  19  21
ENDBRANCH  18  19
BRANCH  18  23
HETATM   23  N           1     -20.107  -5.299  -8.505  0.00  0.00    -0.064 N 
HETATM   24  H           1     -20.774  -6.093  -8.641  0.00  0.00     0.275 HD
HETATM   25  H           1     -20.111  -4.690  -9.354  0.00  0.00     0.275 HD
HETATM   26  H           1     -19.144  -5.676  -8.352  0.00  0.00     0.275 HD
ENDBRANCH  18  23
ENDBRANCH  15  18
ENDBRANCH   1  14
TORSDOF 9
ENDMDL
MODEL 4
REMARK VINA RESULT:      -6.4     14.373     16.693
REMARK  9 active torsions:
REMARK  status: ('A' for Active; 'I' for Inactive)
REMARK    1  A    between atoms: C_2  and  C_5 
REMARK    2  A    between atoms: C_2  and  C_16 
REMARK    3  A    between atoms: C_2  and  N_9 
REMARK    4  A    between atoms: O_4  and  C_14 
REMARK    5  A    between atoms: C_5  and  C_22 
REMARK       I    between atoms: C_7  and  N_9 
REMARK    6  A    between atoms: C_7  and  C_15 
REMARK    7  A    between atoms: C_11  and  C_15 
REMARK    8  A    between atoms: C_11  and  O_12 
REMARK    9  A    between atoms: C_15  and  N_25 
ROOT
HETATM    1  C           1     -21.107  -5.705  -6.218  0.00  0.00     0.189 C 
ENDROOT
BRANCH   1   2
HETATM    2  C           1     -20.852  -7.131  -5.749  0.00  0.00     0.074 C 
BRANCH   2   3
HETATM    3  C           1     -21.107  -7.226  -4.276  0.00  0.00    -0.056 A 
HETATM    4  C           1     -20.478  -8.216  -3.522  0.00  0.00     0.010 A 
HETATM    5  C           1     -20.716  -8.304  -2.151  0.00  0.00     0.037 A 
HETATM    6  C           1     -21.584  -7.402  -1.533  0.00  0.00     0.065 A 
HETATM    7  C           1     -22.213  -6.413  -2.289  0.00  0.00     0.037 A 
HETATM    8  C           1     -21.975  -6.325  -3.661  0.00  0.00     0.010 A 
BRANCH   6   9
HETATM    9  O           1     -21.816  -7.488  -0.201  0.00  0.00    -0.361 OA
HETATM   10  H           1     -22.678  -7.916  -0.073  0.00  0.00     0.217 HD
ENDBRANCH   6   9
ENDBRANCH   2   3
ENDBRANCH   1   2
BRANCH   1  11
HETATM   11  C           1     -19.853  -4.885  -6.043  0.00  0.00     0.197 C 
HETATM   12  O           1     -19.661  -4.255  -4.980  0.00  0.00    -0.646 OA
HETATM   13  O           1     -19.005  -4.835  -6.960  0.00  0.00    -0.646 OA
ENDBRANCH   1  11
BRANCH   1  14
HETATM   14  N           1     -21.483  -5.718  -7.618  0.00  0.00    -0.344 N 
HETATM   15  C           1     -22.075  -4.617  -8.179  0.00  0.00     0.251 C 
HETATM   16  O           1     -22.284  -3.636  -7.506  0.00  0.00    -0.271 OA
HETATM   17  H           1     -21.309  -6.541  -8.181  0.00  0.00     0.163 HD
BRANCH  15  18
HETATM   18  C           1     -22.467  -4.631  -9.636  0.00  0.00     0.302 C 
BRANCH  18  19
HETATM   19  C           1     -21.230  -4.414 -10.496  0.00  0.00     0.153 C 
HETATM   20  C           1     -21.420  -3.169 -11.352  0.00  0.00     0.042 C 
BRANCH  19  21
HETATM   21  O           1     -20.109  -4.247  -9.671  0.00  0.00    -0.393 OA
HETATM   22  H           1     -20.045  -5.020  -9.136  0.00  0.00     0.210 HD
ENDBRANCH  19  21
ENDBRANCH  18  19
BRANCH  18  23
HETATM   23  N           1     -23.455  -3.534  -9.897  0.00  0.00    -0.064 N 
HETATM   24  H           1     -23.483  -2.887  -9.077  0.00  0.00     0.275 HD
HETATM   25  H           1     -23.170  -3.003 -10.751  0.00  0.00     0.275 HD
HETATM   26  H           1     -24.404  -3.948 -10.046  0.00  0.00     0.275 HD
ENDBRANCH  18  23
ENDBRANCH  15  18
ENDBRANCH   1  14
TORSDOF 9
ENDMDL
MODEL 5
REMARK VINA RESULT:      -6.0     13.479     16.140
REMARK  9 active torsions:
REMARK  status: ('A' for Active; 'I' for Inactive)
REMARK    1  A    between atoms: C_2  and  C_5 
REMARK    2  A    between atoms: C_2  and  C_16 
REMARK    3  A    between atoms: C_2  and  N_9 
REMARK    4  A    between atoms: O_4  and  C_14 
REMARK    5  A    between atoms: C_5  and  C_22 
REMARK       I    between atoms: C_7  and  N_9 
REMARK    6  A    between atoms: C_7  and  C_15 
REMARK    7  A    between atoms: C_11  and  C_15 
REMARK    8  A    between atoms: C_11  and  O_12 
REMARK    9  A    between atoms: C_15  and  N_25 
ROOT
HETATM    1  C           1     -21.171  -5.302  -6.613  0.00  0.00     0.189 C 
ENDROOT
BRANCH   1   2
HETATM    2  C           1     -21.113  -6.807  -6.398  0.00  0.00     0.074 C 
BRANCH   2   3
HETATM    3  C           1     -21.080  -7.102  -4.930  0.00  0.00    -0.056 A 
HETATM    4  C           1     -21.864  -6.355  -4.051  0.00  0.00     0.010 A 
HETATM    5  C           1     -21.832  -6.630  -2.684  0.00  0.00     0.037 A 
HETATM    6  C           1     -21.017  -7.651  -2.196  0.00  0.00     0.065 A 
HETATM    7  C           1     -20.233  -8.397  -3.076  0.00  0.00     0.037 A 
HETATM    8  C           1     -20.264  -8.123  -4.443  0.00  0.00     0.010 A 
BRANCH   6   9
HETATM    9  O           1     -20.986  -7.918  -0.867  0.00  0.00    -0.361 OA
HETATM   10  H           1     -21.860  -7.711  -0.499  0.00  0.00     0.217 HD
ENDBRANCH   6   9
ENDBRANCH   2   3
ENDBRANCH   1   2
BRANCH   1  11
HETATM   11  C           1     -19.774  -4.732  -6.567  0.00  0.00     0.197 C 
HETATM   12  O           1     -19.112  -4.616  -7.620  0.00  0.00    -0.646 OA
HETATM   13  O           1     -19.280  -4.377  -5.475  0.00  0.00    -0.646 OA
ENDBRANCH   1  11
BRANCH   1  14
HETATM   14  N           1     -21.764  -5.020  -7.905  0.00  0.00    -0.344 N 
HETATM   15  C           1     -23.048  -4.550  -7.983  0.00  0.00     0.251 C 
HETATM   16  O           1     -23.686  -4.370  -6.973  0.00  0.00    -0.271 OA
HETATM   17  H           1     -21.229  -5.172  -8.751  0.00  0.00     0.163 HD
BRANCH  15  18
HETATM   18  C           1     -23.664  -4.257  -9.329  0.00  0.00     0.302 C 
BRANCH  18  19
HETATM   19  C           1     -22.586  -3.768 -10.285  0.00  0.00     0.153 C 
HETATM   20  C           1     -22.430  -4.765 -11.426  0.00  0.00     0.042 C 
BRANCH  19  21
HETATM   21  O           1     -22.951  -2.518 -10.805  0.00  0.00    -0.393 OA
HETATM   22  H           1     -22.312  -1.897 -10.499  0.00  0.00     0.210 HD
ENDBRANCH  19  21
ENDBRANCH  18  19
BRANCH  18  23
HETATM   23  N           1     -24.714  -3.197  -9.176  0.00  0.00    -0.064 N 
HETATM   24  H           1     -24.333  -2.408  -8.607  0.00  0.00     0.275 HD
HETATM   25  H           1     -24.994  -2.844 -10.119  0.00  0.00     0.275 HD
HETATM   26  H           1     -25.550  -3.601  -8.695  0.00  0.00     0.275 HD
ENDBRANCH  18  23
ENDBRANCH  15  18
ENDBRANCH   1  14
TORSDOF 9
ENDMDL
MODEL 6
REMARK VINA RESULT:      -6.0     15.232     18.287
REMARK  9 active torsions:
REMARK  status: ('A' for Active; 'I' for Inactive)
REMARK    1  A    between atoms: C_2  and  C_5 
REMARK    2  A    between atoms: C_2  and  C_16 
REMARK    3  A    between atoms: C_2  and  N_9 
REMARK    4  A    between atoms: O_4  and  C_14 
REMARK    5  A    between atoms: C_5  and  C_22 
REMARK       I    between atoms: C_7  and  N_9 
REMARK    6  A    between atoms: C_7  and  C_15 
REMARK    7  A    between atoms: C_11  and  C_15 
REMARK    8  A    between atoms: C_11  and  O_12 
REMARK    9  A    between atoms: C_15  and  N_25 
ROOT
HETATM    1  C           1     -21.111  -6.445  -4.857  0.00  0.00     0.189 C 
ENDROOT
BRANCH   1   2
HETATM    2  C           1     -20.383  -5.152  -5.196  0.00  0.00     0.074 C 
BRANCH   2   3
HETATM    3  C           1     -20.751  -4.719  -6.582  0.00  0.00    -0.056 A 
HETATM    4  C           1     -22.088  -4.496  -6.911  0.00  0.00     0.010 A 
HETATM    5  C           1     -22.429  -4.093  -8.202  0.00  0.00     0.037 A 
HETATM    6  C           1     -21.435  -3.913  -9.163  0.00  0.00     0.065 A 
HETATM    7  C           1     -20.098  -4.137  -8.833  0.00  0.00     0.037 A 
HETATM    8  C           1     -19.756  -4.540  -7.542  0.00  0.00     0.010 A 
BRANCH   6   9
HETATM    9  O           1     -21.767  -3.522 -10.418  0.00  0.00    -0.361 OA
HETATM   10  H           1     -22.676  -3.181 -10.395  0.00  0.00     0.217 HD
ENDBRANCH   6   9
ENDBRANCH   2   3
ENDBRANCH   1   2
BRANCH   1  11
HETATM   11  C           1     -20.653  -7.540  -5.788  0.00  0.00     0.197 C 
HETATM   12  O           1     -21.494  -8.257  -6.372  0.00  0.00    -0.646 OA
HETATM   13  O           1     -19.431  -7.730  -5.976  0.00  0.00    -0.646 OA
ENDBRANCH   1  11
BRANCH   1  14
HETATM   14  N           1     -20.817  -6.821  -3.488  0.00  0.00    -0.344 N 
HETATM   15  C           1     -21.777  -6.689  -2.520  0.00  0.00     0.251 C 
HETATM   16  O           1     -22.868  -6.257  -2.807  0.00  0.00    -0.271 OA
HETATM   17  H           1     -19.903  -7.182  -3.249  0.00  0.00     0.163 HD
BRANCH  15  18
HETATM   18  C           1     -21.470  -7.080  -1.095  0.00  0.00     0.302 C 
BRANCH  18  19
HETATM   19  C           1     -20.919  -8.500  -1.067  0.00  0.00     0.153 C 
HETATM   20  C           1     -21.252  -9.145   0.272  0.00  0.00     0.042 C 
BRANCH  19  21
HETATM   21  O           1     -21.497  -9.247  -2.102  0.00  0.00    -0.393 OA
HETATM   22  H           1     -20.832  -9.363  -2.760  0.00  0.00     0.210 HD
ENDBRANCH  19  21
ENDBRANCH  18  19
BRANCH  18  23
HETATM   23  N           1     -22.726  -7.015  -0.279  0.00  0.00    -0.064 N 
HETATM   24  H           1     -22.515  -6.592   0.653  0.00  0.00     0.275 HD
HETATM   25  H           1     -23.435  -6.431  -0.776  0.00  0.00     0.275 HD
HETATM   26  H           1     -23.105  -7.981  -0.144  0.00  0.00     0.275 HD
ENDBRANCH  18  23
ENDBRANCH  15  18
ENDBRANCH   1  14
TORSDOF 9
ENDMDL
MODEL 7
REMARK VINA RESULT:      -6.0     14.381     17.503
REMARK  9 active torsions:
REMARK  status: ('A' for Active; 'I' for Inactive)
REMARK    1  A    between atoms: C_2  and  C_5 
REMARK    2  A    between atoms: C_2  and  C_16 
REMARK    3  A    between atoms: C_2  and  N_9 
REMARK    4  A    between atoms: O_4  and  C_14 
REMARK    5  A    between atoms: C_5  and  C_22 
REMARK       I    between atoms: C_7  and  N_9 
REMARK    6  A    between atoms: C_7  and  C_15 
REMARK    7  A    between atoms: C_11  and  C_15 
REMARK    8  A    between atoms: C_11  and  O_12 
REMARK    9  A    between atoms: C_15  and  N_25 
ROOT
HETATM    1  C           1     -20.738  -5.824  -6.869  0.00  0.00     0.189 C 
ENDROOT
BRANCH   1   2
HETATM    2  C           1     -22.000  -5.085  -7.290  0.00  0.00     0.074 C 
BRANCH   2   3
HETATM    3  C           1     -21.926  -4.760  -8.750  0.00  0.00    -0.056 A 
HETATM    4  C           1     -20.692  -4.494  -9.343  0.00  0.00     0.010 A 
HETATM    5  C           1     -20.623  -4.191 -10.702  0.00  0.00     0.037 A 
HETATM    6  C           1     -21.788  -4.153 -11.469  0.00  0.00     0.065 A 
HETATM    7  C           1     -23.022  -4.418 -10.875  0.00  0.00     0.037 A 
HETATM    8  C           1     -23.091  -4.722  -9.515  0.00  0.00     0.010 A 
BRANCH   6   9
HETATM    9  O           1     -21.721  -3.859 -12.790  0.00  0.00    -0.361 OA
HETATM   10  H           1     -20.787  -3.881 -13.056  0.00  0.00     0.217 HD
ENDBRANCH   6   9
ENDBRANCH   2   3
ENDBRANCH   1   2
BRANCH   1  11
HETATM   11  C           1     -19.707  -4.831  -6.394  0.00  0.00     0.197 C 
HETATM   12  O           1     -19.846  -4.266  -5.287  0.00  0.00    -0.646 OA
HETATM   13  O           1     -18.713  -4.572  -7.106  0.00  0.00    -0.646 OA
ENDBRANCH   1  11
BRANCH   1  14
HETATM   14  N           1     -21.052  -6.745  -5.794  0.00  0.00    -0.344 N 
HETATM   15  C           1     -20.201  -7.778  -5.505  0.00  0.00     0.251 C 
HETATM   16  O           1     -19.188  -7.922  -6.147  0.00  0.00    -0.271 OA
HETATM   17  H           1     -21.902  -6.624  -5.257  0.00  0.00     0.163 HD
BRANCH  15  18
HETATM   18  C           1     -20.529  -8.735  -4.386  0.00  0.00     0.302 C 
BRANCH  18  19
HETATM   19  C           1     -20.859 -10.103  -4.968  0.00  0.00     0.153 C 
HETATM   20  C           1     -21.979 -10.742  -4.158  0.00  0.00     0.042 C 
BRANCH  19  21
HETATM   21  O           1     -21.271  -9.958  -6.300  0.00  0.00    -0.393 OA
HETATM   22  H           1     -20.906 -10.683  -6.780  0.00  0.00     0.210 HD
ENDBRANCH  19  21
ENDBRANCH  18  19
BRANCH  18  23
HETATM   23  N           1     -21.712  -8.220  -3.620  0.00  0.00    -0.064 N 
HETATM   24  H           1     -21.678  -8.583  -2.641  0.00  0.00     0.275 HD
HETATM   25  H           1     -21.691  -7.175  -3.607  0.00  0.00     0.275 HD
HETATM   26  H           1     -22.593  -8.544  -4.080  0.00  0.00     0.275 HD
ENDBRANCH  18  23
ENDBRANCH  15  18
ENDBRANCH   1  14
TORSDOF 9
ENDMDL
MODEL 8
REMARK VINA RESULT:      -5.9     18.277     19.581
REMARK  9 active torsions:
REMARK  status: ('A' for Active; 'I' for Inactive)
REMARK    1  A    between atoms: C_2  and  C_5 
REMARK    2  A    between atoms: C_2  and  C_16 
REMARK    3  A    between atoms: C_2  and  N_9 
REMARK    4  A    between atoms: O_4  and  C_14 
REMARK    5  A    between atoms: C_5  and  C_22 
REMARK       I    between atoms: C_7  and  N_9 
REMARK    6  A    between atoms: C_7  and  C_15 
REMARK    7  A    between atoms: C_11  and  C_15 
REMARK    8  A    between atoms: C_11  and  O_12 
REMARK    9  A    between atoms: C_15  and  N_25 
ROOT
HETATM    1  C           1     -21.851  -8.162  -2.018  0.00  0.00     0.189 C 
ENDROOT
BRANCH   1   2
HETATM    2  C           1     -21.420  -8.486  -0.594  0.00  0.00     0.074 C 
BRANCH   2   3
HETATM    3  C           1     -21.966  -9.823  -0.198  0.00  0.00    -0.056 A 
HETATM    4  C           1     -23.319 -10.106  -0.385  0.00  0.00     0.010 A 
HETATM    5  C           1     -23.827 -11.351  -0.016  0.00  0.00     0.037 A 
HETATM    6  C           1     -22.983 -12.313   0.539  0.00  0.00     0.065 A 
HETATM    7  C           1     -21.631 -12.029   0.726  0.00  0.00     0.037 A 
HETATM    8  C           1     -21.122 -10.783   0.357  0.00  0.00     0.010 A 
BRANCH   6   9
HETATM    9  O           1     -23.477 -13.523   0.898  0.00  0.00    -0.361 OA
HETATM   10  H           1     -23.690 -14.014   0.087  0.00  0.00     0.217 HD
ENDBRANCH   6   9
ENDBRANCH   2   3
ENDBRANCH   1   2
BRANCH   1  11
HETATM   11  C           1     -22.011  -6.669  -2.169  0.00  0.00     0.197 C 
HETATM   12  O           1     -21.782  -6.124  -3.270  0.00  0.00    -0.646 OA
HETATM   13  O           1     -22.374  -5.977  -1.193  0.00  0.00    -0.646 OA
ENDBRANCH   1  11
BRANCH   1  14
HETATM   14  N           1     -20.845  -8.636  -2.948  0.00  0.00    -0.344 N 
HETATM   15  C           1     -21.140  -9.651  -3.818  0.00  0.00     0.251 C 
HETATM   16  O           1     -22.239 -10.152  -3.811  0.00  0.00    -0.271 OA
HETATM   17  H           1     -19.924  -8.216  -2.953  0.00  0.00     0.163 HD
BRANCH  15  18
HETATM   18  C           1     -20.091 -10.143  -4.786  0.00  0.00     0.302 C 
BRANCH  18  19
HETATM   19  C           1     -19.082  -9.034  -5.048  0.00  0.00     0.153 C 
HETATM   20  C           1     -17.926  -9.585  -5.872  0.00  0.00     0.042 C 
BRANCH  19  21
HETATM   21  O           1     -19.702  -7.993  -5.753  0.00  0.00    -0.393 OA
HETATM   22  H           1     -20.394  -8.380  -6.261  0.00  0.00     0.210 HD
ENDBRANCH  19  21
ENDBRANCH  18  19
BRANCH  18  23
HETATM   23  N           1     -20.749 -10.536  -6.076  0.00  0.00    -0.064 N 
HETATM   24  H           1     -21.221 -11.460  -5.959  0.00  0.00     0.275 HD
HETATM   25  H           1     -21.455  -9.813  -6.341  0.00  0.00     0.275 HD
HETATM   26  H           1     -20.025 -10.607  -6.828  0.00  0.00     0.275 HD
ENDBRANCH  18  23
ENDBRANCH  15  18
ENDBRANCH   1  14
TORSDOF 9
ENDMDL
MODEL 9
REMARK VINA RESULT:      -5.9     16.292     18.428
REMARK  9 active torsions:
REMARK  status: ('A' for Active; 'I' for Inactive)
REMARK    1  A    between atoms: C_2  and  C_5 
REMARK    2  A    between atoms: C_2  and  C_16 
REMARK    3  A    between atoms: C_2  and  N_9 
REMARK    4  A    between atoms: O_4  and  C_14 
REMARK    5  A    between atoms: C_5  and  C_22 
REMARK       I    between atoms: C_7  and  N_9 
REMARK    6  A    between atoms: C_7  and  C_15 
REMARK    7  A    between atoms: C_11  and  C_15 
REMARK    8  A    between atoms: C_11  and  O_12 
REMARK    9  A    between atoms: C_15  and  N_25 
ROOT
HETATM    1  C           1     -21.402  -7.369  -3.882  0.00  0.00     0.189 C 
ENDROOT
BRANCH   1   2
HETATM    2  C           1     -22.388  -6.734  -4.852  0.00  0.00     0.074 C 
BRANCH   2   3
HETATM    3  C           1     -21.644  -5.888  -5.839  0.00  0.00    -0.056 A 
HETATM    4  C           1     -22.333  -4.959  -6.619  0.00  0.00     0.010 A 
HETATM    5  C           1     -21.640  -4.172  -7.539  0.00  0.00     0.037 A 
HETATM    6  C           1     -20.259  -4.314  -7.679  0.00  0.00     0.065 A 
HETATM    7  C           1     -19.572  -5.244  -6.899  0.00  0.00     0.037 A 
HETATM    8  C           1     -20.264  -6.031  -5.979  0.00  0.00     0.010 A 
BRANCH   6   9
HETATM    9  O           1     -19.586  -3.549  -8.572  0.00  0.00    -0.361 OA
HETATM   10  H           1     -20.237  -3.129  -9.159  0.00  0.00     0.217 HD
ENDBRANCH   6   9
ENDBRANCH   2   3
ENDBRANCH   1   2
BRANCH   1  11
HETATM   11  C           1     -21.665  -6.856  -2.487  0.00  0.00     0.197 C 
HETATM   12  O           1     -21.105  -7.394  -1.507  0.00  0.00    -0.646 OA
HETATM   13  O           1     -22.444  -5.894  -2.311  0.00  0.00    -0.646 OA
ENDBRANCH   1  11
BRANCH   1  14
HETATM   14  N           1     -21.561  -8.809  -3.904  0.00  0.00    -0.344 N 
HETATM   15  C           1     -20.475  -9.616  -4.115  0.00  0.00     0.251 C 
HETATM   16  O           1     -19.383  -9.126  -4.283  0.00  0.00    -0.271 OA
HETATM   17  H           1     -22.476  -9.219  -3.764  0.00  0.00     0.163 HD
BRANCH  15  18
HETATM   18  C           1     -20.642 -11.116  -4.138  0.00  0.00     0.302 C 
BRANCH  18  19
HETATM   19  C           1     -20.968 -11.568  -5.555  0.00  0.00     0.153 C 
HETATM   20  C           1     -22.268 -12.361  -5.547  0.00  0.00     0.042 C 
BRANCH  19  21
HETATM   21  O           1     -21.110 -10.447  -6.384  0.00  0.00    -0.393 OA
HETATM   22  H           1     -21.377  -9.731  -5.833  0.00  0.00     0.210 HD
ENDBRANCH  19  21
ENDBRANCH  18  19
BRANCH  18  23
HETATM   23  N           1     -21.761 -11.507  -3.219  0.00  0.00    -0.064 N 
HETATM   24  H           1     -21.673 -10.982  -2.320  0.00  0.00     0.275 HD
HETATM   25  H           1     -22.677 -11.280  -3.669  0.00  0.00     0.275 HD
HETATM   26  H           1     -21.713 -12.534  -3.028  0.00  0.00     0.275 HD
ENDBRANCH  18  23
ENDBRANCH  15  18
ENDBRANCH   1  14
TORSDOF 9
ENDMDL
