MODEL 1
REMARK VINA RESULT:      -6.4      0.000      0.000
REMARK  10 active torsions:
REMARK  status: ('A' for Active; 'I' for Inactive)
REMARK    1  A    between atoms: C_5  and  C_21 
REMARK    2  A    between atoms: C_5  and  C_15 
REMARK    3  A    between atoms: C_5  and  N_16 
REMARK    4  A    between atoms: C_6  and  C_15 
REMARK    5  A    between atoms: C_6  and  C_13 
REMARK    6  A    between atoms: C_10  and  C_23 
REMARK    7  A    between atoms: C_10  and  C_12 
REMARK    8  A    between atoms: C_12  and  C_14 
REMARK    9  A    between atoms: C_12  and  N_19 
REMARK   10  A    between atoms: C_13  and  N_22 
REMARK       I    between atoms: N_19  and  C_21 
ROOT
HETATM    1  C           1     -34.243  -4.034 -12.456  0.00  0.00     0.274 C 
ENDROOT
BRANCH   1   2
HETATM    2  C           1     -34.378  -2.593 -12.032  0.00  0.00     0.249 C 
HETATM    3  O           1     -33.591  -2.118 -11.249  0.00  0.00    -0.271 OA
HETATM    4  N           1     -35.390  -1.822 -12.537  0.00  0.00    -0.344 N 
HETATM    5  H           1     -36.049  -2.220 -13.193  0.00  0.00     0.163 HD
BRANCH   4   6
HETATM    6  C           1     -35.519  -0.436 -12.130  0.00  0.00     0.189 C 
BRANCH   6   7
HETATM    7  C           1     -35.852   0.420 -13.345  0.00  0.00     0.014 C 
HETATM    8  C           1     -34.585   1.098 -13.850  0.00  0.00     0.012 C 
BRANCH   7   9
HETATM    9  C           1     -36.429  -0.461 -14.443  0.00  0.00     0.002 C 
HETATM   10  C           1     -35.782  -0.103 -15.775  0.00  0.00     0.005 C 
ENDBRANCH   7   9
ENDBRANCH   6   7
BRANCH   6  11
HETATM   11  C           1     -36.621  -0.313 -11.109  0.00  0.00     0.197 C 
HETATM   12  O           1     -36.532   0.531 -10.191  0.00  0.00    -0.646 OA
HETATM   13  O           1     -37.626  -1.054 -11.180  0.00  0.00    -0.646 OA
ENDBRANCH   6  11
ENDBRANCH   4   6
ENDBRANCH   1   2
BRANCH   1  14
HETATM   14  C           1     -33.387  -4.784 -11.444  0.00  0.00     0.044 C 
BRANCH  14  15
HETATM   15  C           1     -34.284  -5.422 -10.392  0.00  0.00     0.030 C 
BRANCH  15  16
HETATM   16  C           1     -34.397  -6.916 -10.657  0.00  0.00     0.230 C 
BRANCH  16  17
HETATM   17  N           1     -35.019  -7.591  -9.471  0.00  0.00    -0.079 N 
HETATM   18  H           1     -35.916  -8.043  -9.760  0.00  0.00     0.274 HD
HETATM   19  H           1     -35.210  -6.882  -8.728  0.00  0.00     0.274 HD
HETATM   20  H           1     -34.367  -8.317  -9.100  0.00  0.00     0.274 HD
ENDBRANCH  16  17
ENDBRANCH  15  16
ENDBRANCH  14  15
ENDBRANCH   1  14
BRANCH   1  21
HETATM   21  N           1     -33.594  -4.101 -13.806  0.00  0.00    -0.067 N 
HETATM   22  H           1     -32.586  -4.354 -13.697  0.00  0.00     0.275 HD
HETATM   23  H           1     -33.670  -3.170 -14.275  0.00  0.00     0.275 HD
HETATM   24  H           1     -34.074  -4.825 -14.387  0.00  0.00     0.275 HD
ENDBRANCH   1  21
TORSDOF 10
ENDMDL
MODEL 2
REMARK VINA RESULT:      -5.9      3.683      5.852
REMARK  10 active torsions:
REMARK  status: ('A' for Active; 'I' for Inactive)
REMARK    1  A    between atoms: C_5  and  C_21 
REMARK    2  A    between atoms: C_5  and  C_15 
REMARK    3  A    between atoms: C_5  and  N_16 
REMARK    4  A    between atoms: C_6  and  C_15 
REMARK    5  A    between atoms: C_6  and  C_13 
REMARK    6  A    between atoms: C_10  and  C_23 
REMARK    7  A    between atoms: C_10  and  C_12 
REMARK    8  A    between atoms: C_12  and  C_14 
REMARK    9  A    between atoms: C_12  and  N_19 
REMARK   10  A    between atoms: C_13  and  N_22 
REMARK       I    between atoms: N_19  and  C_21 
ROOT
HETATM    1  C           1     -33.057  -4.480 -16.651  0.00  0.00     0.274 C 
ENDROOT
BRANCH   1   2
HETATM    2  C           1     -33.937  -4.498 -15.425  0.00  0.00     0.249 C 
HETATM    3  O           1     -35.043  -4.978 -15.482  0.00  0.00    -0.271 OA
HETATM    4  N           1     -33.480  -3.971 -14.247  0.00  0.00    -0.344 N 
HETATM    5  H           1     -32.553  -3.568 -14.199  0.00  0.00     0.163 HD
BRANCH   4   6
HETATM    6  C           1     -34.325  -3.988 -13.069  0.00  0.00     0.189 C 
BRANCH   6   7
HETATM    7  C           1     -33.476  -4.293 -11.841  0.00  0.00     0.014 C 
HETATM    8  C           1     -32.904  -2.995 -11.286  0.00  0.00     0.012 C 
BRANCH   7   9
HETATM    9  C           1     -34.340  -4.962 -10.781  0.00  0.00     0.002 C 
HETATM   10  C           1     -34.034  -6.453 -10.743  0.00  0.00     0.005 C 
ENDBRANCH   7   9
ENDBRANCH   6   7
BRANCH   6  11
HETATM   11  C           1     -34.985  -2.642 -12.904  0.00  0.00     0.197 C 
HETATM   12  O           1     -35.768  -2.442 -11.951  0.00  0.00    -0.646 OA
HETATM   13  O           1     -34.749  -1.725 -13.721  0.00  0.00    -0.646 OA
ENDBRANCH   6  11
ENDBRANCH   4   6
ENDBRANCH   1   2
BRANCH   1  14
HETATM   14  C           1     -31.606  -4.692 -16.238  0.00  0.00     0.044 C 
BRANCH  14  15
HETATM   15  C           1     -30.946  -5.682 -17.189  0.00  0.00     0.030 C 
BRANCH  15  16
HETATM   16  C           1     -29.598  -5.135 -17.637  0.00  0.00     0.230 C 
BRANCH  16  17
HETATM   17  N           1     -29.787  -3.788 -18.268  0.00  0.00    -0.079 N 
HETATM   18  H           1     -29.211  -3.727 -19.137  0.00  0.00     0.274 HD
HETATM   19  H           1     -29.488  -3.044 -17.598  0.00  0.00     0.274 HD
HETATM   20  H           1     -30.795  -3.654 -18.509  0.00  0.00     0.274 HD
ENDBRANCH  16  17
ENDBRANCH  15  16
ENDBRANCH  14  15
ENDBRANCH   1  14
BRANCH   1  21
HETATM   21  N           1     -33.191  -3.157 -17.344  0.00  0.00    -0.067 N 
HETATM   22  H           1     -32.362  -2.999 -17.959  0.00  0.00     0.275 HD
HETATM   23  H           1     -33.247  -2.395 -16.631  0.00  0.00     0.275 HD
HETATM   24  H           1     -34.060  -3.156 -17.925  0.00  0.00     0.275 HD
ENDBRANCH   1  21
TORSDOF 10
ENDMDL
MODEL 3
REMARK VINA RESULT:      -5.7     14.415     17.071
REMARK  10 active torsions:
REMARK  status: ('A' for Active; 'I' for Inactive)
REMARK    1  A    between atoms: C_5  and  C_21 
REMARK    2  A    between atoms: C_5  and  C_15 
REMARK    3  A    between atoms: C_5  and  N_16 
REMARK    4  A    between atoms: C_6  and  C_15 
REMARK    5  A    between atoms: C_6  and  C_13 
REMARK    6  A    between atoms: C_10  and  C_23 
REMARK    7  A    between atoms: C_10  and  C_12 
REMARK    8  A    between atoms: C_12  and  C_14 
REMARK    9  A    between atoms: C_12  and  N_19 
REMARK   10  A    between atoms: C_13  and  N_22 
REMARK       I    between atoms: N_19  and  C_21 
ROOT
HETATM    1  C           1     -20.492  -5.108  -6.400  0.00  0.00     0.274 C 
ENDROOT
BRANCH   1   2
HETATM    2  C           1     -21.337  -5.943  -5.469  0.00  0.00     0.249 C 
HETATM    3  O           1     -22.542  -5.878  -5.526  0.00  0.00    -0.271 OA
HETATM    4  N           1     -20.739  -6.774  -4.562  0.00  0.00    -0.344 N 
HETATM    5  H           1     -19.729  -6.828  -4.514  0.00  0.00     0.163 HD
BRANCH   4   6
HETATM    6  C           1     -21.551  -7.577  -3.668  0.00  0.00     0.189 C 
BRANCH   6   7
HETATM    7  C           1     -20.911  -8.948  -3.495  0.00  0.00     0.014 C 
HETATM    8  C           1     -21.776 -10.000  -4.177  0.00  0.00     0.012 C 
BRANCH   7   9
HETATM    9  C           1     -19.525  -8.944  -4.124  0.00  0.00     0.002 C 
HETATM   10  C           1     -18.491  -9.344  -3.080  0.00  0.00     0.005 C 
ENDBRANCH   7   9
ENDBRANCH   6   7
BRANCH   6  11
HETATM   11  C           1     -21.647  -6.893  -2.327  0.00  0.00     0.197 C 
HETATM   12  O           1     -21.075  -7.386  -1.331  0.00  0.00    -0.646 OA
HETATM   13  O           1     -22.299  -5.833  -2.211  0.00  0.00    -0.646 OA
ENDBRANCH   6  11
ENDBRANCH   4   6
ENDBRANCH   1   2
BRANCH   1  14
HETATM   14  C           1     -21.338  -3.985  -6.985  0.00  0.00     0.044 C 
BRANCH  14  15
HETATM   15  C           1     -21.391  -4.125  -8.501  0.00  0.00     0.030 C 
BRANCH  15  16
HETATM   16  C           1     -22.843  -4.160  -8.958  0.00  0.00     0.230 C 
BRANCH  16  17
HETATM   17  N           1     -23.746  -4.137  -7.761  0.00  0.00    -0.079 N 
HETATM   18  H           1     -23.750  -3.177  -7.347  0.00  0.00     0.274 HD
HETATM   19  H           1     -23.401  -4.821  -7.051  0.00  0.00     0.274 HD
HETATM   20  H           1     -24.716  -4.395  -8.051  0.00  0.00     0.274 HD
ENDBRANCH  16  17
ENDBRANCH  15  16
ENDBRANCH  14  15
ENDBRANCH   1  14
BRANCH   1  21
HETATM   21  N           1     -19.969  -5.970  -7.510  0.00  0.00    -0.067 N 
HETATM   22  H           1     -19.316  -6.685  -7.119  0.00  0.00     0.275 HD
HETATM   23  H           1     -19.461  -5.375  -8.203  0.00  0.00     0.275 HD
HETATM   24  H           1     -20.769  -6.450  -7.982  0.00  0.00     0.275 HD
ENDBRANCH   1  21
TORSDOF 10
ENDMDL
MODEL 4
REMARK VINA RESULT:      -5.7     13.847     16.544
REMARK  10 active torsions:
REMARK  status: ('A' for Active; 'I' for Inactive)
REMARK    1  A    between atoms: C_5  and  C_21 
REMARK    2  A    between atoms: C_5  and  C_15 
REMARK    3  A    between atoms: C_5  and  N_16 
REMARK    4  A    between atoms: C_6  and  C_15 
REMARK    5  A    between atoms: C_6  and  C_13 
REMARK    6  A    between atoms: C_10  and  C_23 
REMARK    7  A    between atoms: C_10  and  C_12 
REMARK    8  A    between atoms: C_12  and  C_14 
REMARK    9  A    between atoms: C_12  and  N_19 
REMARK   10  A    between atoms: C_13  and  N_22 
REMARK       I    between atoms: N_19  and  C_21 
ROOT
HETATM    1  C           1     -21.974  -4.456  -7.113  0.00  0.00     0.274 C 
ENDROOT
BRANCH   1   2
HETATM    2  C           1     -21.051  -5.269  -6.240  0.00  0.00     0.249 C 
HETATM    3  O           1     -19.881  -4.979  -6.163  0.00  0.00    -0.271 OA
HETATM    4  N           1     -21.539  -6.335  -5.533  0.00  0.00    -0.344 N 
HETATM    5  H           1     -22.519  -6.578  -5.598  0.00  0.00     0.163 HD
BRANCH   4   6
HETATM    6  C           1     -20.652  -7.116  -4.694  0.00  0.00     0.189 C 
BRANCH   6   7
HETATM    7  C           1     -21.371  -7.487  -3.403  0.00  0.00     0.014 C 
HETATM    8  C           1     -20.423  -8.264  -2.500  0.00  0.00     0.012 C 
BRANCH   7   9
HETATM    9  C           1     -21.825  -6.219  -2.694  0.00  0.00     0.002 C 
HETATM   10  C           1     -22.277  -6.563  -1.280  0.00  0.00     0.005 C 
ENDBRANCH   7   9
ENDBRANCH   6   7
BRANCH   6  11
HETATM   11  C           1     -20.245  -8.372  -5.424  0.00  0.00     0.197 C 
HETATM   12  O           1     -19.041  -8.582  -5.684  0.00  0.00    -0.646 OA
HETATM   13  O           1     -21.113  -9.204  -5.767  0.00  0.00    -0.646 OA
ENDBRANCH   6  11
ENDBRANCH   4   6
ENDBRANCH   1   2
BRANCH   1  14
HETATM   14  C           1     -21.907  -4.974  -8.544  0.00  0.00     0.044 C 
BRANCH  14  15
HETATM   15  C           1     -22.591  -3.983  -9.476  0.00  0.00     0.030 C 
BRANCH  15  16
HETATM   16  C           1     -23.753  -4.669 -10.183  0.00  0.00     0.230 C 
BRANCH  16  17
HETATM   17  N           1     -25.048  -4.119  -9.666  0.00  0.00    -0.079 N 
HETATM   18  H           1     -24.924  -3.112  -9.416  0.00  0.00     0.274 HD
HETATM   19  H           1     -25.340  -4.654  -8.818  0.00  0.00     0.274 HD
HETATM   20  H           1     -25.784  -4.206 -10.403  0.00  0.00     0.274 HD
ENDBRANCH  16  17
ENDBRANCH  15  16
ENDBRANCH  14  15
ENDBRANCH   1  14
BRANCH   1  21
HETATM   21  N           1     -21.553  -3.017  -7.083  0.00  0.00    -0.067 N 
HETATM   22  H           1     -22.150  -2.465  -7.739  0.00  0.00     0.275 HD
HETATM   23  H           1     -20.552  -2.941  -7.374  0.00  0.00     0.275 HD
HETATM   24  H           1     -21.664  -2.643  -6.113  0.00  0.00     0.275 HD
ENDBRANCH   1  21
TORSDOF 10
ENDMDL
MODEL 5
REMARK VINA RESULT:      -5.7      2.081      2.941
REMARK  10 active torsions:
REMARK  status: ('A' for Active; 'I' for Inactive)
REMARK    1  A    between atoms: C_5  and  C_21 
REMARK    2  A    between atoms: C_5  and  C_15 
REMARK    3  A    between atoms: C_5  and  N_16 
REMARK    4  A    between atoms: C_6  and  C_15 
REMARK    5  A    between atoms: C_6  and  C_13 
REMARK    6  A    between atoms: C_10  and  C_23 
REMARK    7  A    between atoms: C_10  and  C_12 
REMARK    8  A    between atoms: C_12  and  C_14 
REMARK    9  A    between atoms: C_12  and  N_19 
REMARK   10  A    between atoms: C_13  and  N_22 
REMARK       I    between atoms: N_19  and  C_21 
ROOT
HETATM    1  C           1     -33.432  -3.674 -12.030  0.00  0.00     0.274 C 
ENDROOT
BRANCH   1   2
HETATM    2  C           1     -34.347  -2.822 -12.876  0.00  0.00     0.249 C 
HETATM    3  O           1     -34.679  -3.199 -13.974  0.00  0.00    -0.271 OA
HETATM    4  N           1     -34.801  -1.623 -12.398  0.00  0.00    -0.344 N 
HETATM    5  H           1     -34.522  -1.306 -11.478  0.00  0.00     0.163 HD
BRANCH   4   6
HETATM    6  C           1     -35.679  -0.804 -13.211  0.00  0.00     0.189 C 
BRANCH   6   7
HETATM    7  C           1     -36.675  -0.083 -12.312  0.00  0.00     0.014 C 
HETATM    8  C           1     -38.064  -0.154 -12.934  0.00  0.00     0.012 C 
BRANCH   7   9
HETATM    9  C           1     -36.696  -0.747 -10.943  0.00  0.00     0.002 C 
HETATM   10  C           1     -37.131   0.267  -9.893  0.00  0.00     0.005 C 
ENDBRANCH   7   9
ENDBRANCH   6   7
BRANCH   6  11
HETATM   11  C           1     -34.861   0.209 -13.972  0.00  0.00     0.197 C 
HETATM   12  O           1     -34.372   1.192 -13.377  0.00  0.00    -0.646 OA
HETATM   13  O           1     -34.672   0.064 -15.200  0.00  0.00    -0.646 OA
ENDBRANCH   6  11
ENDBRANCH   4   6
ENDBRANCH   1   2
BRANCH   1  14
HETATM   14  C           1     -34.067  -5.042 -11.815  0.00  0.00     0.044 C 
BRANCH  14  15
HETATM   15  C           1     -34.359  -5.241 -10.334  0.00  0.00     0.030 C 
BRANCH  15  16
HETATM   16  C           1     -34.743  -6.692 -10.081  0.00  0.00     0.230 C 
BRANCH  16  17
HETATM   17  N           1     -33.696  -7.595 -10.661  0.00  0.00    -0.079 N 
HETATM   18  H           1     -32.828  -7.540 -10.081  0.00  0.00     0.274 HD
HETATM   19  H           1     -33.480  -7.296 -11.639  0.00  0.00     0.274 HD
HETATM   20  H           1     -34.048  -8.579 -10.668  0.00  0.00     0.274 HD
ENDBRANCH  16  17
ENDBRANCH  15  16
ENDBRANCH  14  15
ENDBRANCH   1  14
BRANCH   1  21
HETATM   21  N           1     -33.216  -3.010 -10.703  0.00  0.00    -0.067 N 
HETATM   22  H           1     -32.285  -3.290 -10.320  0.00  0.00     0.275 HD
HETATM   23  H           1     -33.968  -3.306 -10.040  0.00  0.00     0.275 HD
HETATM   24  H           1     -33.245  -1.973 -10.825  0.00  0.00     0.275 HD
ENDBRANCH   1  21
TORSDOF 10
ENDMDL
MODEL 6
REMARK VINA RESULT:      -5.4     14.352     16.935
REMARK  10 active torsions:
REMARK  status: ('A' for Active; 'I' for Inactive)
REMARK    1  A    between atoms: C_5  and  C_21 
REMARK    2  A    between atoms: C_5  and  C_15 
REMARK    3  A    between atoms: C_5  and  N_16 
REMARK    4  A    between atoms: C_6  and  C_15 
REMARK    5  A    between atoms: C_6  and  C_13 
REMARK    6  A    between atoms: C_10  and  C_23 
REMARK    7  A    between atoms: C_10  and  C_12 
REMARK    8  A    between atoms: C_12  and  C_14 
REMARK    9  A    between atoms: C_12  and  N_19 
REMARK   10  A    between atoms: C_13  and  N_22 
REMARK       I    between atoms: N_19  and  C_21 
ROOT
HETATM    1  C           1     -22.047  -4.968  -7.353  0.00  0.00     0.274 C 
ENDROOT
BRANCH   1   2
HETATM    2  C           1     -21.149  -5.571  -6.300  0.00  0.00     0.249 C 
HETATM    3  O           1     -20.124  -5.013  -5.989  0.00  0.00    -0.271 OA
HETATM    4  N           1     -21.498  -6.748  -5.695  0.00  0.00    -0.344 N 
HETATM    5  H           1     -22.357  -7.215  -5.956  0.00  0.00     0.163 HD
BRANCH   4   6
HETATM    6  C           1     -20.636  -7.327  -4.684  0.00  0.00     0.189 C 
BRANCH   6   7
HETATM    7  C           1     -21.444  -7.588  -3.418  0.00  0.00     0.014 C 
HETATM    8  C           1     -20.567  -8.296  -2.394  0.00  0.00     0.012 C 
BRANCH   7   9
HETATM    9  C           1     -21.928  -6.264  -2.844  0.00  0.00     0.002 C 
HETATM   10  C           1     -22.279  -6.446  -1.373  0.00  0.00     0.005 C 
ENDBRANCH   7   9
ENDBRANCH   6   7
BRANCH   6  11
HETATM   11  C           1     -20.064  -8.626  -5.193  0.00  0.00     0.197 C 
HETATM   12  O           1     -20.815  -9.477  -5.716  0.00  0.00    -0.646 OA
HETATM   13  O           1     -18.838  -8.852  -5.093  0.00  0.00    -0.646 OA
ENDBRANCH   6  11
ENDBRANCH   4   6
ENDBRANCH   1   2
BRANCH   1  14
HETATM   14  C           1     -21.367  -3.749  -7.962  0.00  0.00     0.044 C 
BRANCH  14  15
HETATM   15  C           1     -20.790  -4.115  -9.323  0.00  0.00     0.030 C 
BRANCH  15  16
HETATM   16  C           1     -21.778  -3.727 -10.415  0.00  0.00     0.230 C 
BRANCH  16  17
HETATM   17  N           1     -21.028  -3.318 -11.647  0.00  0.00    -0.079 N 
HETATM   18  H           1     -20.677  -4.171 -12.139  0.00  0.00     0.274 HD
HETATM   19  H           1     -20.221  -2.713 -11.379  0.00  0.00     0.274 HD
HETATM   20  H           1     -21.665  -2.787 -12.283  0.00  0.00     0.274 HD
ENDBRANCH  16  17
ENDBRANCH  15  16
ENDBRANCH  14  15
ENDBRANCH   1  14
BRANCH   1  21
HETATM   21  N           1     -23.345  -4.555  -6.727  0.00  0.00    -0.067 N 
HETATM   22  H           1     -23.731  -5.348  -6.167  0.00  0.00     0.275 HD
HETATM   23  H           1     -24.025  -4.295  -7.477  0.00  0.00     0.275 HD
HETATM   24  H           1     -23.184  -3.733  -6.102  0.00  0.00     0.275 HD
ENDBRANCH   1  21
TORSDOF 10
ENDMDL
MODEL 7
REMARK VINA RESULT:      -5.1      8.721     10.935
REMARK  10 active torsions:
REMARK  status: ('A' for Active; 'I' for Inactive)
REMARK    1  A    between atoms: C_5  and  C_21 
REMARK    2  A    between atoms: C_5  and  C_15 
REMARK    3  A    between atoms: C_5  and  N_16 
REMARK    4  A    between atoms: C_6  and  C_15 
REMARK    5  A    between atoms: C_6  and  C_13 
REMARK    6  A    between atoms: C_10  and  C_23 
REMARK    7  A    between atoms: C_10  and  C_12 
REMARK    8  A    between atoms: C_12  and  C_14 
REMARK    9  A    between atoms: C_12  and  N_19 
REMARK   10  A    between atoms: C_13  and  N_22 
REMARK       I    between atoms: N_19  and  C_21 
ROOT
HETATM    1  C           1     -30.459  -6.180 -17.690  0.00  0.00     0.274 C 
ENDROOT
BRANCH   1   2
HETATM    2  C           1     -29.141  -6.904 -17.566  0.00  0.00     0.249 C 
HETATM    3  O           1     -29.120  -8.073 -17.266  0.00  0.00    -0.271 OA
HETATM    4  N           1     -27.969  -6.236 -17.796  0.00  0.00    -0.344 N 
HETATM    5  H           1     -27.986  -5.256 -18.048  0.00  0.00     0.163 HD
BRANCH   4   6
HETATM    6  C           1     -26.702  -6.932 -17.678  0.00  0.00     0.189 C 
BRANCH   6   7
HETATM    7  C           1     -25.766  -6.473 -18.789  0.00  0.00     0.014 C 
HETATM    8  C           1     -24.439  -7.211 -18.671  0.00  0.00     0.012 C 
BRANCH   7   9
HETATM    9  C           1     -26.398  -6.776 -20.141  0.00  0.00     0.002 C 
HETATM   10  C           1     -25.422  -7.581 -20.989  0.00  0.00     0.005 C 
ENDBRANCH   7   9
ENDBRANCH   6   7
BRANCH   6  11
HETATM   11  C           1     -26.083  -6.624 -16.338  0.00  0.00     0.197 C 
HETATM   12  O           1     -26.119  -7.473 -15.422  0.00  0.00    -0.646 OA
HETATM   13  O           1     -25.532  -5.518 -16.143  0.00  0.00    -0.646 OA
ENDBRANCH   6  11
ENDBRANCH   4   6
ENDBRANCH   1   2
BRANCH   1  14
HETATM   14  C           1     -30.458  -4.963 -16.773  0.00  0.00     0.044 C 
BRANCH  14  15
HETATM   15  C           1     -31.339  -3.875 -17.371  0.00  0.00     0.030 C 
BRANCH  15  16
HETATM   16  C           1     -32.767  -4.044 -16.871  0.00  0.00     0.230 C 
BRANCH  16  17
HETATM   17  N           1     -33.637  -2.978 -17.467  0.00  0.00    -0.079 N 
HETATM   18  H           1     -34.552  -3.396 -17.753  0.00  0.00     0.274 HD
HETATM   19  H           1     -33.163  -2.570 -18.303  0.00  0.00     0.274 HD
HETATM   20  H           1     -33.803  -2.228 -16.760  0.00  0.00     0.274 HD
ENDBRANCH  16  17
ENDBRANCH  15  16
ENDBRANCH  14  15
ENDBRANCH   1  14
BRANCH   1  21
HETATM   21  N           1     -31.575  -7.101 -17.296  0.00  0.00    -0.067 N 
HETATM   22  H           1     -31.548  -7.957 -17.893  0.00  0.00     0.275 HD
HETATM   23  H           1     -32.491  -6.613 -17.427  0.00  0.00     0.275 HD
HETATM   24  H           1     -31.464  -7.372 -16.293  0.00  0.00     0.275 HD
ENDBRANCH   1  21
TORSDOF 10
ENDMDL
MODEL 8
REMARK VINA RESULT:      -5.0     15.765     17.992
REMARK  10 active torsions:
REMARK  status: ('A' for Active; 'I' for Inactive)
REMARK    1  A    between atoms: C_5  and  C_21 
REMARK    2  A    between atoms: C_5  and  C_15 
REMARK    3  A    between atoms: C_5  and  N_16 
REMARK    4  A    between atoms: C_6  and  C_15 
REMARK    5  A    between atoms: C_6  and  C_13 
REMARK    6  A    between atoms: C_10  and  C_23 
REMARK    7  A    between atoms: C_10  and  C_12 
REMARK    8  A    between atoms: C_12  and  C_14 
REMARK    9  A    between atoms: C_12  and  N_19 
REMARK   10  A    between atoms: C_13  and  N_22 
REMARK       I    between atoms: N_19  and  C_21 
ROOT
HETATM    1  C           1     -21.418  -7.096  -5.586  0.00  0.00     0.274 C 
ENDROOT
BRANCH   1   2
HETATM    2  C           1     -20.781  -7.770  -4.397  0.00  0.00     0.249 C 
HETATM    3  O           1     -19.643  -8.170  -4.467  0.00  0.00    -0.271 OA
HETATM    4  N           1     -21.491  -7.927  -3.237  0.00  0.00    -0.344 N 
HETATM    5  H           1     -22.444  -7.592  -3.178  0.00  0.00     0.163 HD
BRANCH   4   6
HETATM    6  C           1     -20.878  -8.575  -2.094  0.00  0.00     0.189 C 
BRANCH   6   7
HETATM    7  C           1     -21.263  -7.830  -0.822  0.00  0.00     0.014 C 
HETATM    8  C           1     -22.245  -6.717  -1.164  0.00  0.00     0.012 C 
BRANCH   7   9
HETATM    9  C           1     -21.914  -8.798   0.155  0.00  0.00     0.002 C 
HETATM   10  C           1     -23.245  -8.227   0.627  0.00  0.00     0.005 C 
ENDBRANCH   7   9
ENDBRANCH   6   7
BRANCH   6  11
HETATM   11  C           1     -21.357 -10.002  -2.007  0.00  0.00     0.197 C 
HETATM   12  O           1     -22.487 -10.310  -2.444  0.00  0.00    -0.646 OA
HETATM   13  O           1     -20.625 -10.878  -1.498  0.00  0.00    -0.646 OA
ENDBRANCH   6  11
ENDBRANCH   4   6
ENDBRANCH   1   2
BRANCH   1  14
HETATM   14  C           1     -20.376  -6.256  -6.313  0.00  0.00     0.044 C 
BRANCH  14  15
HETATM   15  C           1     -21.002  -5.628  -7.551  0.00  0.00     0.030 C 
BRANCH  15  16
HETATM   16  C           1     -20.779  -4.123  -7.527  0.00  0.00     0.230 C 
BRANCH  16  17
HETATM   17  N           1     -22.102  -3.419  -7.565  0.00  0.00    -0.079 N 
HETATM   18  H           1     -22.043  -2.603  -8.216  0.00  0.00     0.274 HD
HETATM   19  H           1     -22.346  -3.083  -6.607  0.00  0.00     0.274 HD
HETATM   20  H           1     -22.839  -4.080  -7.901  0.00  0.00     0.274 HD
ENDBRANCH  16  17
ENDBRANCH  15  16
ENDBRANCH  14  15
ENDBRANCH   1  14
BRANCH   1  21
HETATM   21  N           1     -22.537  -6.212  -5.121  0.00  0.00    -0.067 N 
HETATM   22  H           1     -22.245  -5.707  -4.254  0.00  0.00     0.275 HD
HETATM   23  H           1     -23.379  -6.796  -4.917  0.00  0.00     0.275 HD
HETATM   24  H           1     -22.765  -5.519  -5.868  0.00  0.00     0.275 HD
ENDBRANCH   1  21
TORSDOF 10
ENDMDL
MODEL 9
REMARK VINA RESULT:      -4.9     16.405     18.691
REMARK  10 active torsions:
REMARK  status: ('A' for Active; 'I' for Inactive)
REMARK    1  A    between atoms: C_5  and  C_21 
REMARK    2  A    between atoms: C_5  and  C_15 
REMARK    3  A    between atoms: C_5  and  N_16 
REMARK    4  A    between atoms: C_6  and  C_15 
REMARK    5  A    between atoms: C_6  and  C_13 
REMARK    6  A    between atoms: C_10  and  C_23 
REMARK    7  A    between atoms: C_10  and  C_12 
REMARK    8  A    between atoms: C_12  and  C_14 
REMARK    9  A    between atoms: C_12  and  N_19 
REMARK   10  A    between atoms: C_13  and  N_22 
REMARK       I    between atoms: N_19  and  C_21 
ROOT
HETATM    1  C           1     -21.973  -6.684  -3.303  0.00  0.00     0.274 C 
ENDROOT
BRANCH   1   2
HETATM    2  C           1     -21.252  -7.938  -2.873  0.00  0.00     0.249 C 
HETATM    3  O           1     -20.139  -8.165  -3.284  0.00  0.00    -0.271 OA
HETATM    4  N           1     -21.857  -8.816  -2.017  0.00  0.00    -0.344 N 
HETATM    5  H           1     -22.790  -8.626  -1.673  0.00  0.00     0.163 HD
BRANCH   4   6
HETATM    6  C           1     -21.164 -10.021  -1.603  0.00  0.00     0.189 C 
BRANCH   6   7
HETATM    7  C           1     -21.745 -10.513  -0.284  0.00  0.00     0.014 C 
HETATM    8  C           1     -20.871 -10.031   0.867  0.00  0.00     0.012 C 
BRANCH   7   9
HETATM    9  C           1     -23.155  -9.964  -0.115  0.00  0.00     0.002 C 
HETATM   10  C           1     -24.151 -11.117  -0.103  0.00  0.00     0.005 C 
ENDBRANCH   7   9
ENDBRANCH   6   7
BRANCH   6  11
HETATM   11  C           1     -21.334 -11.086  -2.657  0.00  0.00     0.197 C 
HETATM   12  O           1     -22.445 -11.253  -3.204  0.00  0.00    -0.646 OA
HETATM   13  O           1     -20.362 -11.802  -2.985  0.00  0.00    -0.646 OA
ENDBRANCH   6  11
ENDBRANCH   4   6
ENDBRANCH   1   2
BRANCH   1  14
HETATM   14  C           1     -21.077  -5.875  -4.232  0.00  0.00     0.044 C 
BRANCH  14  15
HETATM   15  C           1     -21.693  -5.831  -5.623  0.00  0.00     0.030 C 
BRANCH  15  16
HETATM   16  C           1     -20.627  -6.149  -6.662  0.00  0.00     0.230 C 
BRANCH  16  17
HETATM   17  N           1     -19.837  -7.344  -6.221  0.00  0.00    -0.079 N 
HETATM   18  H           1     -19.476  -7.183  -5.253  0.00  0.00     0.274 HD
HETATM   19  H           1     -19.033  -7.490  -6.872  0.00  0.00     0.274 HD
HETATM   20  H           1     -20.449  -8.190  -6.228  0.00  0.00     0.274 HD
ENDBRANCH  16  17
ENDBRANCH  15  16
ENDBRANCH  14  15
ENDBRANCH   1  14
BRANCH   1  21
HETATM   21  N           1     -22.312  -5.862  -2.096  0.00  0.00    -0.067 N 
HETATM   22  H           1     -21.480  -5.299  -1.812  0.00  0.00     0.275 HD
HETATM   23  H           1     -22.589  -6.495  -1.311  0.00  0.00     0.275 HD
HETATM   24  H           1     -23.106  -5.221  -2.324  0.00  0.00     0.275 HD
ENDBRANCH   1  21
TORSDOF 10
ENDMDL
