MODEL 1
REMARK VINA RESULT:      -6.0      0.000      0.000
REMARK  11 active torsions:
REMARK  status: ('A' for Active; 'I' for Inactive)
REMARK    1  A    between atoms: C_1  and  C_14 
REMARK    2  A    between atoms: C_1  and  C_24 
REMARK    3  A    between atoms: C_2  and  C_19 
REMARK    4  A    between atoms: N_6  and  C_14 
REMARK    5  A    between atoms: N_10  and  C_15 
REMARK    6  A    between atoms: C_12  and  C_16 
REMARK    7  A    between atoms: C_12  and  C_19 
REMARK    8  A    between atoms: N_13  and  C_19 
REMARK       I    between atoms: N_13  and  C_18 
REMARK    9  A    between atoms: C_14  and  C_18 
REMARK   10  A    between atoms: C_15  and  C_16 
REMARK   11  A    between atoms: S_23  and  C_24 
ROOT
HETATM    1  O           1     -33.934  -1.933 -11.228  0.00  0.00    -0.271 OA
HETATM    2  H           1     -35.253  -1.959 -14.074  0.00  0.00     0.163 HD
HETATM    3  N           1     -34.944  -1.580 -13.188  0.00  0.00    -0.345 N 
HETATM    4  C           1     -34.303  -2.385 -12.285  0.00  0.00     0.249 C 
ENDROOT
BRANCH   3   5
HETATM    5  C           1     -35.178  -0.184 -12.875  0.00  0.00     0.185 C 
BRANCH   5   6
HETATM    6  C           1     -36.406  -0.064 -12.007  0.00  0.00     0.196 C 
HETATM    7  O           1     -37.513  -0.463 -12.430  0.00  0.00    -0.646 OA
HETATM    8  O           1     -36.317   0.434 -10.863  0.00  0.00    -0.646 OA
ENDBRANCH   5   6
BRANCH   5   9
HETATM    9  C           1     -35.391   0.596 -14.166  0.00  0.00     0.038 C 
BRANCH   9  10
HETATM   10  C           1     -35.510  -0.376 -15.332  0.00  0.00     0.030 C 
BRANCH  10  11
HETATM   11  C           1     -36.912  -0.294 -15.922  0.00  0.00     0.230 C 
BRANCH  11  12
HETATM   12  N           1     -37.427   1.110 -15.795  0.00  0.00    -0.079 N 
HETATM   13  H           1     -36.626   1.779 -15.839  0.00  0.00     0.274 HD
HETATM   14  H           1     -38.092   1.309 -16.577  0.00  0.00     0.274 HD
HETATM   15  H           1     -37.921   1.219 -14.881  0.00  0.00     0.274 HD
ENDBRANCH  11  12
ENDBRANCH  10  11
ENDBRANCH   9  10
ENDBRANCH   5   9
ENDBRANCH   3   5
BRANCH   4  16
HETATM   16  C           1     -34.059  -3.839 -12.611  0.00  0.00     0.275 C 
BRANCH  16  17
HETATM   17  C           1     -32.806  -4.318 -11.889  0.00  0.00     0.053 C 
BRANCH  17  18
HETATM   18  C           1     -33.066  -5.688 -11.276  0.00  0.00     0.076 C 
BRANCH  18  19
HETATM   19  S           1     -34.712  -5.708 -10.513  0.00  0.00    -0.173 SA
HETATM   20  C           1     -34.721  -7.478 -10.108  0.00  0.00     0.089 C 
ENDBRANCH  18  19
ENDBRANCH  17  18
ENDBRANCH  16  17
BRANCH  16  21
HETATM   21  N           1     -33.873  -3.995 -14.091  0.00  0.00    -0.066 N 
HETATM   22  H           1     -33.327  -4.864 -14.285  0.00  0.00     0.275 HD
HETATM   23  H           1     -34.807  -4.059 -14.554  0.00  0.00     0.275 HD
HETATM   24  H           1     -33.354  -3.168 -14.465  0.00  0.00     0.275 HD
ENDBRANCH  16  21
ENDBRANCH   4  16
TORSDOF 11
ENDMDL
MODEL 2
REMARK VINA RESULT:      -5.5      2.285      3.156
REMARK  11 active torsions:
REMARK  status: ('A' for Active; 'I' for Inactive)
REMARK    1  A    between atoms: C_1  and  C_14 
REMARK    2  A    between atoms: C_1  and  C_24 
REMARK    3  A    between atoms: C_2  and  C_19 
REMARK    4  A    between atoms: N_6  and  C_14 
REMARK    5  A    between atoms: N_10  and  C_15 
REMARK    6  A    between atoms: C_12  and  C_16 
REMARK    7  A    between atoms: C_12  and  C_19 
REMARK    8  A    between atoms: N_13  and  C_19 
REMARK       I    between atoms: N_13  and  C_18 
REMARK    9  A    between atoms: C_14  and  C_18 
REMARK   10  A    between atoms: C_15  and  C_16 
REMARK   11  A    between atoms: S_23  and  C_24 
ROOT
HETATM    1  O           1     -34.697  -3.234 -13.896  0.00  0.00    -0.271 OA
HETATM    2  H           1     -34.888  -1.365 -11.383  0.00  0.00     0.163 HD
HETATM    3  N           1     -35.054  -1.682 -12.330  0.00  0.00    -0.345 N 
HETATM    4  C           1     -34.500  -2.855 -12.765  0.00  0.00     0.249 C 
ENDROOT
BRANCH   3   5
HETATM    5  C           1     -35.878  -0.894 -13.225  0.00  0.00     0.185 C 
BRANCH   5   6
HETATM    6  C           1     -35.025   0.148 -13.906  0.00  0.00     0.196 C 
HETATM    7  O           1     -34.717   0.014 -15.110  0.00  0.00    -0.646 OA
HETATM    8  O           1     -34.628   1.146 -13.266  0.00  0.00    -0.646 OA
ENDBRANCH   5   6
BRANCH   5   9
HETATM    9  C           1     -36.979  -0.207 -12.427  0.00  0.00     0.038 C 
BRANCH   9  10
HETATM   10  C           1     -36.838  -0.568 -10.954  0.00  0.00     0.030 C 
BRANCH  10  11
HETATM   11  C           1     -37.471   0.524 -10.100  0.00  0.00     0.230 C 
BRANCH  11  12
HETATM   12  N           1     -36.409   1.199  -9.285  0.00  0.00    -0.079 N 
HETATM   13  H           1     -36.837   1.603  -8.421  0.00  0.00     0.274 HD
HETATM   14  H           1     -35.677   0.501  -9.018  0.00  0.00     0.274 HD
HETATM   15  H           1     -35.972   1.965  -9.846  0.00  0.00     0.274 HD
ENDBRANCH  11  12
ENDBRANCH  10  11
ENDBRANCH   9  10
ENDBRANCH   5   9
ENDBRANCH   3   5
BRANCH   4  16
HETATM   16  C           1     -33.642  -3.676 -11.834  0.00  0.00     0.275 C 
BRANCH  16  17
HETATM   17  C           1     -34.528  -4.594 -11.002  0.00  0.00     0.053 C 
BRANCH  17  18
HETATM   18  C           1     -33.910  -5.984 -10.946  0.00  0.00     0.076 C 
BRANCH  18  19
HETATM   19  S           1     -34.927  -7.060  -9.897  0.00  0.00    -0.173 SA
HETATM   20  C           1     -33.873  -8.531 -10.039  0.00  0.00     0.089 C 
ENDBRANCH  18  19
ENDBRANCH  17  18
ENDBRANCH  16  17
BRANCH  16  21
HETATM   21  N           1     -32.877  -2.761 -10.923  0.00  0.00    -0.066 N 
HETATM   22  H           1     -32.915  -3.130  -9.946  0.00  0.00     0.275 HD
HETATM   23  H           1     -31.882  -2.710 -11.238  0.00  0.00     0.275 HD
HETATM   24  H           1     -33.302  -1.807 -10.952  0.00  0.00     0.275 HD
ENDBRANCH  16  21
ENDBRANCH   4  16
TORSDOF 11
ENDMDL
MODEL 3
REMARK VINA RESULT:      -5.2     13.458     15.556
REMARK  11 active torsions:
REMARK  status: ('A' for Active; 'I' for Inactive)
REMARK    1  A    between atoms: C_1  and  C_14 
REMARK    2  A    between atoms: C_1  and  C_24 
REMARK    3  A    between atoms: C_2  and  C_19 
REMARK    4  A    between atoms: N_6  and  C_14 
REMARK    5  A    between atoms: N_10  and  C_15 
REMARK    6  A    between atoms: C_12  and  C_16 
REMARK    7  A    between atoms: C_12  and  C_19 
REMARK    8  A    between atoms: N_13  and  C_19 
REMARK       I    between atoms: N_13  and  C_18 
REMARK    9  A    between atoms: C_14  and  C_18 
REMARK   10  A    between atoms: C_15  and  C_16 
REMARK   11  A    between atoms: S_23  and  C_24 
ROOT
HETATM    1  O           1     -21.082  -7.262  -6.704  0.00  0.00    -0.271 OA
HETATM    2  H           1     -21.516  -4.215  -6.097  0.00  0.00     0.163 HD
HETATM    3  N           1     -21.424  -5.056  -6.652  0.00  0.00    -0.345 N 
HETATM    4  C           1     -21.192  -6.258  -6.041  0.00  0.00     0.249 C 
ENDROOT
BRANCH   3   5
HETATM    5  C           1     -21.537  -4.987  -8.096  0.00  0.00     0.185 C 
BRANCH   5   6
HETATM    6  C           1     -20.221  -4.540  -8.682  0.00  0.00     0.196 C 
HETATM    7  O           1     -19.421  -3.876  -7.987  0.00  0.00    -0.646 OA
HETATM    8  O           1     -19.930  -4.834  -9.862  0.00  0.00    -0.646 OA
ENDBRANCH   5   6
BRANCH   5   9
HETATM    9  C           1     -22.626  -3.990  -8.471  0.00  0.00     0.038 C 
BRANCH   9  10
HETATM   10  C           1     -23.433  -4.536  -9.641  0.00  0.00     0.030 C 
BRANCH  10  11
HETATM   11  C           1     -24.322  -3.435 -10.204  0.00  0.00     0.230 C 
BRANCH  11  12
HETATM   12  N           1     -25.711  -3.586  -9.659  0.00  0.00    -0.079 N 
HETATM   13  H           1     -26.020  -2.681  -9.239  0.00  0.00     0.274 HD
HETATM   14  H           1     -26.362  -3.851 -10.434  0.00  0.00     0.274 HD
HETATM   15  H           1     -25.720  -4.331  -8.926  0.00  0.00     0.274 HD
ENDBRANCH  11  12
ENDBRANCH  10  11
ENDBRANCH   9  10
ENDBRANCH   5   9
ENDBRANCH   3   5
BRANCH   4  16
HETATM   16  C           1     -21.074  -6.329  -4.538  0.00  0.00     0.275 C 
BRANCH  16  17
HETATM   17  C           1     -20.537  -7.697  -4.134  0.00  0.00     0.053 C 
BRANCH  17  18
HETATM   18  C           1     -21.448  -8.309  -3.078  0.00  0.00     0.076 C 
BRANCH  18  19
HETATM   19  S           1     -20.667  -8.166  -1.447  0.00  0.00    -0.173 SA
HETATM   20  C           1     -22.118  -7.496  -0.589  0.00  0.00     0.089 C 
ENDBRANCH  18  19
ENDBRANCH  17  18
ENDBRANCH  16  17
BRANCH  16  21
HETATM   21  N           1     -22.425  -6.122  -3.919  0.00  0.00    -0.066 N 
HETATM   22  H           1     -23.104  -6.804  -4.326  0.00  0.00     0.275 HD
HETATM   23  H           1     -22.360  -6.268  -2.887  0.00  0.00     0.275 HD
HETATM   24  H           1     -22.751  -5.148  -4.115  0.00  0.00     0.275 HD
ENDBRANCH  16  21
ENDBRANCH   4  16
TORSDOF 11
ENDMDL
MODEL 4
REMARK VINA RESULT:      -5.1     14.490     16.932
REMARK  11 active torsions:
REMARK  status: ('A' for Active; 'I' for Inactive)
REMARK    1  A    between atoms: C_1  and  C_14 
REMARK    2  A    between atoms: C_1  and  C_24 
REMARK    3  A    between atoms: C_2  and  C_19 
REMARK    4  A    between atoms: N_6  and  C_14 
REMARK    5  A    between atoms: N_10  and  C_15 
REMARK    6  A    between atoms: C_12  and  C_16 
REMARK    7  A    between atoms: C_12  and  C_19 
REMARK    8  A    between atoms: N_13  and  C_19 
REMARK       I    between atoms: N_13  and  C_18 
REMARK    9  A    between atoms: C_14  and  C_18 
REMARK   10  A    between atoms: C_15  and  C_16 
REMARK   11  A    between atoms: S_23  and  C_24 
ROOT
HETATM    1  O           1     -19.562  -4.598  -5.931  0.00  0.00    -0.271 OA
HETATM    2  H           1     -22.523  -5.625  -6.070  0.00  0.00     0.163 HD
HETATM    3  N           1     -21.573  -5.547  -5.730  0.00  0.00    -0.345 N 
HETATM    4  C           1     -20.696  -4.691  -6.338  0.00  0.00     0.249 C 
ENDROOT
BRANCH   3   5
HETATM    5  C           1     -21.142  -6.342  -4.596  0.00  0.00     0.185 C 
BRANCH   5   6
HETATM    6  C           1     -20.668  -7.690  -5.080  0.00  0.00     0.196 C 
HETATM    7  O           1     -21.182  -8.205  -6.096  0.00  0.00    -0.646 OA
HETATM    8  O           1     -19.760  -8.290  -4.465  0.00  0.00    -0.646 OA
ENDBRANCH   5   6
BRANCH   5   9
HETATM    9  C           1     -22.309  -6.528  -3.635  0.00  0.00     0.038 C 
BRANCH   9  10
HETATM   10  C           1     -21.860  -6.194  -2.219  0.00  0.00     0.030 C 
BRANCH  10  11
HETATM   11  C           1     -21.811  -7.469  -1.387  0.00  0.00     0.230 C 
BRANCH  11  12
HETATM   12  N           1     -20.421  -8.032  -1.415  0.00  0.00    -0.079 N 
HETATM   13  H           1     -20.276  -8.555  -2.307  0.00  0.00     0.274 HD
HETATM   14  H           1     -19.728  -7.252  -1.350  0.00  0.00     0.274 HD
HETATM   15  H           1     -20.291  -8.681  -0.606  0.00  0.00     0.274 HD
ENDBRANCH  11  12
ENDBRANCH  10  11
ENDBRANCH   9  10
ENDBRANCH   5   9
ENDBRANCH   3   5
BRANCH   4  16
HETATM   16  C           1     -21.144  -3.864  -7.518  0.00  0.00     0.275 C 
BRANCH  16  17
HETATM   17  C           1     -22.501  -4.362  -8.002  0.00  0.00     0.053 C 
BRANCH  17  18
HETATM   18  C           1     -22.920  -3.575  -9.237  0.00  0.00     0.076 C 
BRANCH  18  19
HETATM   19  S           1     -23.420  -4.726 -10.548  0.00  0.00    -0.173 SA
HETATM   20  C           1     -22.009  -4.405 -11.643  0.00  0.00     0.089 C 
ENDBRANCH  18  19
ENDBRANCH  17  18
ENDBRANCH  16  17
BRANCH  16  21
HETATM   21  N           1     -20.142  -3.991  -8.627  0.00  0.00    -0.066 N 
HETATM   22  H           1     -20.516  -4.628  -9.366  0.00  0.00     0.275 HD
HETATM   23  H           1     -19.961  -3.048  -9.040  0.00  0.00     0.275 HD
HETATM   24  H           1     -19.251  -4.383  -8.248  0.00  0.00     0.275 HD
ENDBRANCH  16  21
ENDBRANCH   4  16
TORSDOF 11
ENDMDL
MODEL 5
REMARK VINA RESULT:      -4.9      2.017      3.390
REMARK  11 active torsions:
REMARK  status: ('A' for Active; 'I' for Inactive)
REMARK    1  A    between atoms: C_1  and  C_14 
REMARK    2  A    between atoms: C_1  and  C_24 
REMARK    3  A    between atoms: C_2  and  C_19 
REMARK    4  A    between atoms: N_6  and  C_14 
REMARK    5  A    between atoms: N_10  and  C_15 
REMARK    6  A    between atoms: C_12  and  C_16 
REMARK    7  A    between atoms: C_12  and  C_19 
REMARK    8  A    between atoms: N_13  and  C_19 
REMARK       I    between atoms: N_13  and  C_18 
REMARK    9  A    between atoms: C_14  and  C_18 
REMARK   10  A    between atoms: C_15  and  C_16 
REMARK   11  A    between atoms: S_23  and  C_24 
ROOT
HETATM    1  O           1     -34.894   0.642 -12.973  0.00  0.00    -0.271 OA
HETATM    2  H           1     -35.602  -2.191 -14.118  0.00  0.00     0.163 HD
HETATM    3  N           1     -35.493  -1.185 -14.108  0.00  0.00    -0.345 N 
HETATM    4  C           1     -35.024  -0.559 -12.985  0.00  0.00     0.249 C 
ENDROOT
BRANCH   3   5
HETATM    5  C           1     -35.832  -0.407 -15.284  0.00  0.00     0.185 C 
BRANCH   5   6
HETATM    6  C           1     -37.312  -0.112 -15.280  0.00  0.00     0.196 C 
HETATM    7  O           1     -37.776   0.759 -16.047  0.00  0.00    -0.646 OA
HETATM    8  O           1     -38.073  -0.738 -14.511  0.00  0.00    -0.646 OA
ENDBRANCH   5   6
BRANCH   5   9
HETATM    9  C           1     -35.475  -1.199 -16.535  0.00  0.00     0.038 C 
BRANCH   9  10
HETATM   10  C           1     -34.868  -2.537 -16.134  0.00  0.00     0.030 C 
BRANCH  10  11
HETATM   11  C           1     -33.816  -2.945 -17.157  0.00  0.00     0.230 C 
BRANCH  11  12
HETATM   12  N           1     -33.116  -4.186 -16.687  0.00  0.00    -0.079 N 
HETATM   13  H           1     -32.867  -4.083 -15.678  0.00  0.00     0.274 HD
HETATM   14  H           1     -33.749  -5.010 -16.808  0.00  0.00     0.274 HD
HETATM   15  H           1     -32.246  -4.329 -17.247  0.00  0.00     0.274 HD
ENDBRANCH  11  12
ENDBRANCH  10  11
ENDBRANCH   9  10
ENDBRANCH   5   9
ENDBRANCH   3   5
BRANCH   4  16
HETATM   16  C           1     -34.671  -1.368 -11.761  0.00  0.00     0.275 C 
BRANCH  16  17
HETATM   17  C           1     -34.095  -2.712 -12.190  0.00  0.00     0.053 C 
BRANCH  17  18
HETATM   18  C           1     -33.395  -3.365 -11.005  0.00  0.00     0.076 C 
BRANCH  18  19
HETATM   19  S           1     -33.951  -5.085 -10.845  0.00  0.00    -0.173 SA
HETATM   20  C           1     -34.887  -5.138 -12.399  0.00  0.00     0.089 C 
ENDBRANCH  18  19
ENDBRANCH  17  18
ENDBRANCH  16  17
BRANCH  16  21
HETATM   21  N           1     -35.905  -1.595 -10.939  0.00  0.00    -0.066 N 
HETATM   22  H           1     -36.701  -1.851 -11.565  0.00  0.00     0.275 HD
HETATM   23  H           1     -35.733  -2.370 -10.260  0.00  0.00     0.275 HD
HETATM   24  H           1     -36.141  -0.720 -10.417  0.00  0.00     0.275 HD
ENDBRANCH  16  21
ENDBRANCH   4  16
TORSDOF 11
ENDMDL
MODEL 6
REMARK VINA RESULT:      -4.9     14.969     17.503
REMARK  11 active torsions:
REMARK  status: ('A' for Active; 'I' for Inactive)
REMARK    1  A    between atoms: C_1  and  C_14 
REMARK    2  A    between atoms: C_1  and  C_24 
REMARK    3  A    between atoms: C_2  and  C_19 
REMARK    4  A    between atoms: N_6  and  C_14 
REMARK    5  A    between atoms: N_10  and  C_15 
REMARK    6  A    between atoms: C_12  and  C_16 
REMARK    7  A    between atoms: C_12  and  C_19 
REMARK    8  A    between atoms: N_13  and  C_19 
REMARK       I    between atoms: N_13  and  C_18 
REMARK    9  A    between atoms: C_14  and  C_18 
REMARK   10  A    between atoms: C_15  and  C_16 
REMARK   11  A    between atoms: S_23  and  C_24 
ROOT
HETATM    1  O           1     -22.737  -5.566  -5.714  0.00  0.00    -0.271 OA
HETATM    2  H           1     -19.839  -6.391  -4.840  0.00  0.00     0.163 HD
HETATM    3  N           1     -20.850  -6.411  -4.870  0.00  0.00    -0.345 N 
HETATM    4  C           1     -21.529  -5.541  -5.679  0.00  0.00     0.249 C 
ENDROOT
BRANCH   3   5
HETATM    5  C           1     -21.580  -7.364  -4.055  0.00  0.00     0.185 C 
BRANCH   5   6
HETATM    6  C           1     -21.608  -6.884  -2.625  0.00  0.00     0.196 C 
HETATM    7  O           1     -22.376  -5.955  -2.292  0.00  0.00    -0.646 OA
HETATM    8  O           1     -20.864  -7.416  -1.773  0.00  0.00    -0.646 OA
ENDBRANCH   5   6
BRANCH   5   9
HETATM    9  C           1     -20.892  -8.721  -4.123  0.00  0.00     0.038 C 
BRANCH   9  10
HETATM   10  C           1     -19.588  -8.590  -4.898  0.00  0.00     0.030 C 
BRANCH  10  11
HETATM   11  C           1     -18.485  -9.347  -4.170  0.00  0.00     0.230 C 
BRANCH  11  12
HETATM   12  N           1     -18.706  -9.252  -2.689  0.00  0.00    -0.079 N 
HETATM   13  H           1     -18.215  -8.408  -2.318  0.00  0.00     0.274 HD
HETATM   14  H           1     -19.731  -9.173  -2.495  0.00  0.00     0.274 HD
HETATM   15  H           1     -18.328 -10.108  -2.224  0.00  0.00     0.274 HD
ENDBRANCH  11  12
ENDBRANCH  10  11
ENDBRANCH   9  10
ENDBRANCH   5   9
ENDBRANCH   3   5
BRANCH   4  16
HETATM   16  C           1     -20.770  -4.550  -6.526  0.00  0.00     0.275 C 
BRANCH  16  17
HETATM   17  C           1     -21.715  -3.916  -7.539  0.00  0.00     0.053 C 
BRANCH  17  18
HETATM   18  C           1     -21.522  -4.577  -8.897  0.00  0.00     0.076 C 
BRANCH  18  19
HETATM   19  S           1     -22.535  -3.723 -10.136  0.00  0.00    -0.173 SA
HETATM   20  C           1     -21.174  -3.331 -11.271  0.00  0.00     0.089 C 
ENDBRANCH  18  19
ENDBRANCH  17  18
ENDBRANCH  16  17
BRANCH  16  21
HETATM   21  N           1     -19.663  -5.258  -7.252  0.00  0.00    -0.066 N 
HETATM   22  H           1     -19.755  -6.288  -7.109  0.00  0.00     0.275 HD
HETATM   23  H           1     -19.723  -5.040  -8.272  0.00  0.00     0.275 HD
HETATM   24  H           1     -18.741  -4.935  -6.879  0.00  0.00     0.275 HD
ENDBRANCH  16  21
ENDBRANCH   4  16
TORSDOF 11
ENDMDL
MODEL 7
REMARK VINA RESULT:      -4.9     14.795     17.388
REMARK  11 active torsions:
REMARK  status: ('A' for Active; 'I' for Inactive)
REMARK    1  A    between atoms: C_1  and  C_14 
REMARK    2  A    between atoms: C_1  and  C_24 
REMARK    3  A    between atoms: C_2  and  C_19 
REMARK    4  A    between atoms: N_6  and  C_14 
REMARK    5  A    between atoms: N_10  and  C_15 
REMARK    6  A    between atoms: C_12  and  C_16 
REMARK    7  A    between atoms: C_12  and  C_19 
REMARK    8  A    between atoms: N_13  and  C_19 
REMARK       I    between atoms: N_13  and  C_18 
REMARK    9  A    between atoms: C_14  and  C_18 
REMARK   10  A    between atoms: C_15  and  C_16 
REMARK   11  A    between atoms: S_23  and  C_24 
ROOT
HETATM    1  O           1     -20.759  -5.216  -4.919  0.00  0.00    -0.271 OA
HETATM    2  H           1     -21.517  -7.816  -6.502  0.00  0.00     0.163 HD
HETATM    3  N           1     -21.111  -7.251  -5.767  0.00  0.00    -0.345 N 
HETATM    4  C           1     -21.244  -5.890  -5.797  0.00  0.00     0.249 C 
ENDROOT
BRANCH   3   5
HETATM    5  C           1     -20.387  -7.886  -4.683  0.00  0.00     0.185 C 
BRANCH   5   6
HETATM    6  C           1     -19.682  -9.115  -5.201  0.00  0.00     0.196 C 
HETATM    7  O           1     -20.084 -10.252  -4.869  0.00  0.00    -0.646 OA
HETATM    8  O           1     -18.698  -8.997  -5.962  0.00  0.00    -0.646 OA
ENDBRANCH   5   6
BRANCH   5   9
HETATM    9  C           1     -21.366  -8.285  -3.586  0.00  0.00     0.038 C 
BRANCH   9  10
HETATM   10  C           1     -20.854  -7.785  -2.242  0.00  0.00     0.030 C 
BRANCH  10  11
HETATM   11  C           1     -21.977  -7.064  -1.507  0.00  0.00     0.230 C 
BRANCH  11  12
HETATM   12  N           1     -22.363  -5.831  -2.269  0.00  0.00    -0.079 N 
HETATM   13  H           1     -23.140  -5.342  -1.770  0.00  0.00     0.274 HD
HETATM   14  H           1     -21.537  -5.192  -2.339  0.00  0.00     0.274 HD
HETATM   15  H           1     -22.678  -6.098  -3.228  0.00  0.00     0.274 HD
ENDBRANCH  11  12
ENDBRANCH  10  11
ENDBRANCH   9  10
ENDBRANCH   5   9
ENDBRANCH   3   5
BRANCH   4  16
HETATM   16  C           1     -21.998  -5.230  -6.926  0.00  0.00     0.275 C 
BRANCH  16  17
HETATM   17  C           1     -21.269  -3.961  -7.350  0.00  0.00     0.053 C 
BRANCH  17  18
HETATM   18  C           1     -20.787  -4.108  -8.787  0.00  0.00     0.076 C 
BRANCH  18  19
HETATM   19  S           1     -22.214  -4.115  -9.908  0.00  0.00    -0.173 SA
HETATM   20  C           1     -21.257  -4.103 -11.450  0.00  0.00     0.089 C 
ENDBRANCH  18  19
ENDBRANCH  17  18
ENDBRANCH  16  17
BRANCH  16  21
HETATM   21  N           1     -23.382  -4.880  -6.466  0.00  0.00    -0.066 N 
HETATM   22  H           1     -23.867  -5.742  -6.129  0.00  0.00     0.275 HD
HETATM   23  H           1     -23.324  -4.185  -5.687  0.00  0.00     0.275 HD
HETATM   24  H           1     -23.919  -4.468  -7.262  0.00  0.00     0.275 HD
ENDBRANCH  16  21
ENDBRANCH   4  16
TORSDOF 11
ENDMDL
MODEL 8
REMARK VINA RESULT:      -4.8     14.808     17.765
REMARK  11 active torsions:
REMARK  status: ('A' for Active; 'I' for Inactive)
REMARK    1  A    between atoms: C_1  and  C_14 
REMARK    2  A    between atoms: C_1  and  C_24 
REMARK    3  A    between atoms: C_2  and  C_19 
REMARK    4  A    between atoms: N_6  and  C_14 
REMARK    5  A    between atoms: N_10  and  C_15 
REMARK    6  A    between atoms: C_12  and  C_16 
REMARK    7  A    between atoms: C_12  and  C_19 
REMARK    8  A    between atoms: N_13  and  C_19 
REMARK       I    between atoms: N_13  and  C_18 
REMARK    9  A    between atoms: C_14  and  C_18 
REMARK   10  A    between atoms: C_15  and  C_16 
REMARK   11  A    between atoms: S_23  and  C_24 
ROOT
HETATM    1  O           1     -19.700  -7.648  -5.835  0.00  0.00    -0.271 OA
HETATM    2  H           1     -22.177  -7.095  -3.992  0.00  0.00     0.163 HD
HETATM    3  N           1     -21.318  -7.531  -4.301  0.00  0.00    -0.345 N 
HETATM    4  C           1     -20.725  -7.127  -5.466  0.00  0.00     0.249 C 
ENDROOT
BRANCH   3   5
HETATM    5  C           1     -20.714  -8.584  -3.508  0.00  0.00     0.185 C 
BRANCH   5   6
HETATM    6  C           1     -21.502  -9.859  -3.683  0.00  0.00     0.196 C 
HETATM    7  O           1     -21.448 -10.483  -4.765  0.00  0.00    -0.646 OA
HETATM    8  O           1     -22.207 -10.291  -2.745  0.00  0.00    -0.646 OA
ENDBRANCH   5   6
BRANCH   5   9
HETATM    9  C           1     -20.720  -8.180  -2.039  0.00  0.00     0.038 C 
BRANCH   9  10
HETATM   10  C           1     -21.650  -6.990  -1.844  0.00  0.00     0.030 C 
BRANCH  10  11
HETATM   11  C           1     -22.480  -7.194  -0.584  0.00  0.00     0.230 C 
BRANCH  11  12
HETATM   12  N           1     -22.552  -8.658  -0.263  0.00  0.00    -0.079 N 
HETATM   13  H           1     -23.323  -8.827   0.420  0.00  0.00     0.274 HD
HETATM   14  H           1     -22.736  -9.197  -1.140  0.00  0.00     0.274 HD
HETATM   15  H           1     -21.645  -8.969   0.152  0.00  0.00     0.274 HD
ENDBRANCH  11  12
ENDBRANCH  10  11
ENDBRANCH   9  10
ENDBRANCH   5   9
ENDBRANCH   3   5
BRANCH   4  16
HETATM   16  C           1     -21.354  -6.031  -6.291  0.00  0.00     0.275 C 
BRANCH  16  17
HETATM   17  C           1     -20.426  -4.823  -6.325  0.00  0.00     0.053 C 
BRANCH  17  18
HETATM   18  C           1     -21.056  -3.721  -7.165  0.00  0.00     0.076 C 
BRANCH  18  19
HETATM   19  S           1     -21.306  -4.318  -8.860  0.00  0.00    -0.173 SA
HETATM   20  C           1     -23.065  -3.885  -8.967  0.00  0.00     0.089 C 
ENDBRANCH  18  19
ENDBRANCH  17  18
ENDBRANCH  16  17
BRANCH  16  21
HETATM   21  N           1     -22.666  -5.635  -5.680  0.00  0.00    -0.066 N 
HETATM   22  H           1     -22.773  -4.597  -5.723  0.00  0.00     0.275 HD
HETATM   23  H           1     -23.445  -6.088  -6.208  0.00  0.00     0.275 HD
HETATM   24  H           1     -22.692  -5.946  -4.682  0.00  0.00     0.275 HD
ENDBRANCH  16  21
ENDBRANCH   4  16
TORSDOF 11
ENDMDL
MODEL 9
REMARK VINA RESULT:      -4.7     14.728     17.665
REMARK  11 active torsions:
REMARK  status: ('A' for Active; 'I' for Inactive)
REMARK    1  A    between atoms: C_1  and  C_14 
REMARK    2  A    between atoms: C_1  and  C_24 
REMARK    3  A    between atoms: C_2  and  C_19 
REMARK    4  A    between atoms: N_6  and  C_14 
REMARK    5  A    between atoms: N_10  and  C_15 
REMARK    6  A    between atoms: C_12  and  C_16 
REMARK    7  A    between atoms: C_12  and  C_19 
REMARK    8  A    between atoms: N_13  and  C_19 
REMARK       I    between atoms: N_13  and  C_18 
REMARK    9  A    between atoms: C_14  and  C_18 
REMARK   10  A    between atoms: C_15  and  C_16 
REMARK   11  A    between atoms: S_23  and  C_24 
ROOT
HETATM    1  O           1     -21.636  -7.754  -5.591  0.00  0.00    -0.271 OA
HETATM    2  H           1     -20.491  -5.681  -3.533  0.00  0.00     0.163 HD
HETATM    3  N           1     -20.912  -6.541  -3.861  0.00  0.00    -0.345 N 
HETATM    4  C           1     -21.134  -6.727  -5.198  0.00  0.00     0.249 C 
ENDROOT
BRANCH   3   5
HETATM    5  C           1     -21.278  -7.576  -2.914  0.00  0.00     0.185 C 
BRANCH   5   6
HETATM    6  C           1     -22.025  -6.957  -1.758  0.00  0.00     0.196 C 
HETATM    7  O           1     -22.528  -5.819  -1.877  0.00  0.00    -0.646 OA
HETATM    8  O           1     -22.141  -7.584  -0.683  0.00  0.00    -0.646 OA
ENDBRANCH   5   6
BRANCH   5   9
HETATM    9  C           1     -20.019  -8.260  -2.399  0.00  0.00     0.038 C 
BRANCH   9  10
HETATM   10  C           1     -19.774  -9.537  -3.192  0.00  0.00     0.030 C 
BRANCH  10  11
HETATM   11  C           1     -18.613  -9.323  -4.155  0.00  0.00     0.230 C 
BRANCH  11  12
HETATM   12  N           1     -19.088  -9.526  -5.563  0.00  0.00    -0.079 N 
HETATM   13  H           1     -20.115  -9.713  -5.560  0.00  0.00     0.274 HD
HETATM   14  H           1     -18.891  -8.665  -6.124  0.00  0.00     0.274 HD
HETATM   15  H           1     -18.587 -10.339  -5.986  0.00  0.00     0.274 HD
ENDBRANCH  11  12
ENDBRANCH  10  11
ENDBRANCH   9  10
ENDBRANCH   5   9
ENDBRANCH   3   5
BRANCH   4  16
HETATM   16  C           1     -20.752  -5.649  -6.184  0.00  0.00     0.275 C 
BRANCH  16  17
HETATM   17  C           1     -22.013  -5.041  -6.786  0.00  0.00     0.053 C 
BRANCH  17  18
HETATM   18  C           1     -21.647  -3.790  -7.574  0.00  0.00     0.076 C 
BRANCH  18  19
HETATM   19  S           1     -22.055  -4.035  -9.325  0.00  0.00    -0.173 SA
HETATM   20  C           1     -23.844  -3.784  -9.150  0.00  0.00     0.089 C 
ENDBRANCH  18  19
ENDBRANCH  17  18
ENDBRANCH  16  17
BRANCH  16  21
HETATM   21  N           1     -19.914  -6.244  -7.276  0.00  0.00    -0.066 N 
HETATM   22  H           1     -19.938  -7.286  -7.207  0.00  0.00     0.275 HD
HETATM   23  H           1     -20.293  -5.948  -8.204  0.00  0.00     0.275 HD
HETATM   24  H           1     -18.928  -5.911  -7.179  0.00  0.00     0.275 HD
ENDBRANCH  16  21
ENDBRANCH   4  16
TORSDOF 11
ENDMDL
