MODEL 1
REMARK VINA RESULT:      -6.1      0.000      0.000
REMARK  9 active torsions:
REMARK  status: ('A' for Active; 'I' for Inactive)
REMARK    1  A    between atoms: C_2  and  C_8 
REMARK    2  A    between atoms: S_4  and  C_18 
REMARK    3  A    between atoms: N_7  and  C_10 
REMARK       I    between atoms: N_7  and  C_20 
REMARK    4  A    between atoms: C_8  and  C_10 
REMARK    5  A    between atoms: C_10  and  C_15 
REMARK    6  A    between atoms: N_16  and  C_21 
REMARK    7  A    between atoms: C_17  and  C_21 
REMARK    8  A    between atoms: C_17  and  C_18 
REMARK    9  A    between atoms: C_20  and  C_21 
ROOT
HETATM    1  O           1     -33.730  -1.890 -11.071  0.00  0.00    -0.271 OA
HETATM    2  H           1     -36.236  -2.547 -12.841  0.00  0.00     0.163 HD
HETATM    3  N           1     -35.600  -1.986 -12.289  0.00  0.00    -0.345 N 
HETATM    4  C           1     -34.489  -2.560 -11.731  0.00  0.00     0.249 C 
ENDROOT
BRANCH   4   5
HETATM    5  C           1     -34.213  -4.029 -11.939  0.00  0.00     0.275 C 
BRANCH   5   6
HETATM    6  N           1     -32.918  -4.194 -12.676  0.00  0.00    -0.066 N 
HETATM    7  H           1     -33.098  -4.651 -13.599  0.00  0.00     0.275 HD
HETATM    8  H           1     -32.270  -4.792 -12.114  0.00  0.00     0.275 HD
HETATM    9  H           1     -32.482  -3.256 -12.829  0.00  0.00     0.275 HD
ENDBRANCH   5   6
BRANCH   5  10
HETATM   10  C           1     -34.121  -4.725 -10.587  0.00  0.00     0.053 C 
BRANCH  10  11
HETATM   11  C           1     -33.778  -6.195 -10.796  0.00  0.00     0.076 C 
BRANCH  11  12
HETATM   12  S           1     -34.937  -7.226  -9.853  0.00  0.00    -0.173 SA
HETATM   13  C           1     -33.911  -8.724  -9.849  0.00  0.00     0.089 C 
ENDBRANCH  11  12
ENDBRANCH  10  11
ENDBRANCH   5  10
ENDBRANCH   4   5
BRANCH   3  14
HETATM   14  C           1     -35.864  -0.574 -12.088  0.00  0.00     0.185 C 
BRANCH  14  15
HETATM   15  C           1     -36.526  -0.001 -13.335  0.00  0.00     0.040 C 
BRANCH  15  16
HETATM   16  C           1     -35.459   0.326 -14.372  0.00  0.00    -0.020 C 
HETATM   17  C           1     -36.111   0.988 -15.578  0.00  0.00     0.009 C 
HETATM   18  C           1     -34.434   1.273 -13.764  0.00  0.00     0.009 C 
ENDBRANCH  15  16
ENDBRANCH  14  15
BRANCH  14  19
HETATM   19  C           1     -36.781  -0.398 -10.904  0.00  0.00     0.196 C 
HETATM   20  O           1     -36.435   0.331  -9.949  0.00  0.00    -0.646 OA
HETATM   21  O           1     -37.887  -0.978 -10.878  0.00  0.00    -0.646 OA
ENDBRANCH  14  19
ENDBRANCH   3  14
TORSDOF 9
ENDMDL
MODEL 2
REMARK VINA RESULT:      -5.9     11.104     12.505
REMARK  9 active torsions:
REMARK  status: ('A' for Active; 'I' for Inactive)
REMARK    1  A    between atoms: C_2  and  C_8 
REMARK    2  A    between atoms: S_4  and  C_18 
REMARK    3  A    between atoms: N_7  and  C_10 
REMARK       I    between atoms: N_7  and  C_20 
REMARK    4  A    between atoms: C_8  and  C_10 
REMARK    5  A    between atoms: C_10  and  C_15 
REMARK    6  A    between atoms: N_16  and  C_21 
REMARK    7  A    between atoms: C_17  and  C_21 
REMARK    8  A    between atoms: C_17  and  C_18 
REMARK    9  A    between atoms: C_20  and  C_21 
ROOT
HETATM    1  O           1     -27.122  -6.346 -20.212  0.00  0.00    -0.271 OA
HETATM    2  H           1     -26.028  -6.566 -17.280  0.00  0.00     0.163 HD
HETATM    3  N           1     -26.701  -6.411 -18.019  0.00  0.00    -0.345 N 
HETATM    4  C           1     -26.318  -6.531 -19.329  0.00  0.00     0.249 C 
ENDROOT
BRANCH   4   5
HETATM    5  C           1     -24.893  -6.891 -19.668  0.00  0.00     0.275 C 
BRANCH   5   6
HETATM    6  N           1     -24.228  -7.485 -18.463  0.00  0.00    -0.066 N 
HETATM    7  H           1     -24.129  -6.753 -17.723  0.00  0.00     0.275 HD
HETATM    8  H           1     -23.281  -7.842 -18.728  0.00  0.00     0.275 HD
HETATM    9  H           1     -24.808  -8.274 -18.099  0.00  0.00     0.275 HD
ENDBRANCH   5   6
BRANCH   5  10
HETATM   10  C           1     -24.882  -7.904 -20.806  0.00  0.00     0.053 C 
BRANCH  10  11
HETATM   11  C           1     -24.341  -7.244 -22.068  0.00  0.00     0.076 C 
BRANCH  11  12
HETATM   12  S           1     -23.191  -8.378 -22.898  0.00  0.00    -0.173 SA
HETATM   13  C           1     -22.180  -8.741 -21.435  0.00  0.00     0.089 C 
ENDBRANCH  11  12
ENDBRANCH  10  11
ENDBRANCH   5  10
ENDBRANCH   4   5
BRANCH   3  14
HETATM   14  C           1     -28.071  -6.065 -17.694  0.00  0.00     0.185 C 
BRANCH  14  15
HETATM   15  C           1     -28.691  -7.180 -16.862  0.00  0.00     0.040 C 
BRANCH  15  16
HETATM   16  C           1     -30.067  -7.525 -17.418  0.00  0.00    -0.020 C 
HETATM   17  C           1     -30.980  -6.312 -17.298  0.00  0.00     0.009 C 
HETATM   18  C           1     -29.937  -7.922 -18.882  0.00  0.00     0.009 C 
ENDBRANCH  15  16
ENDBRANCH  14  15
BRANCH  14  19
HETATM   19  C           1     -28.091  -4.778 -16.907  0.00  0.00     0.196 C 
HETATM   20  O           1     -27.726  -4.772 -15.711  0.00  0.00    -0.646 OA
HETATM   21  O           1     -28.470  -3.719 -17.451  0.00  0.00    -0.646 OA
ENDBRANCH  14  19
ENDBRANCH   3  14
TORSDOF 9
ENDMDL
MODEL 3
REMARK VINA RESULT:      -5.7      4.539      6.389
REMARK  9 active torsions:
REMARK  status: ('A' for Active; 'I' for Inactive)
REMARK    1  A    between atoms: C_2  and  C_8 
REMARK    2  A    between atoms: S_4  and  C_18 
REMARK    3  A    between atoms: N_7  and  C_10 
REMARK       I    between atoms: N_7  and  C_20 
REMARK    4  A    between atoms: C_8  and  C_10 
REMARK    5  A    between atoms: C_10  and  C_15 
REMARK    6  A    between atoms: N_16  and  C_21 
REMARK    7  A    between atoms: C_17  and  C_21 
REMARK    8  A    between atoms: C_17  and  C_18 
REMARK    9  A    between atoms: C_20  and  C_21 
ROOT
HETATM    1  O           1     -35.059  -5.024 -15.468  0.00  0.00    -0.271 OA
HETATM    2  H           1     -32.537  -3.453 -14.459  0.00  0.00     0.163 HD
HETATM    3  N           1     -33.441  -3.906 -14.409  0.00  0.00    -0.345 N 
HETATM    4  C           1     -33.979  -4.484 -15.528  0.00  0.00     0.249 C 
ENDROOT
BRANCH   4   5
HETATM    5  C           1     -33.226  -4.445 -16.834  0.00  0.00     0.275 C 
BRANCH   5   6
HETATM    6  N           1     -33.433  -3.113 -17.491  0.00  0.00    -0.066 N 
HETATM    7  H           1     -33.133  -3.167 -18.491  0.00  0.00     0.275 HD
HETATM    8  H           1     -32.866  -2.388 -16.997  0.00  0.00     0.275 HD
HETATM    9  H           1     -34.446  -2.856 -17.445  0.00  0.00     0.275 HD
ENDBRANCH   5   6
BRANCH   5  10
HETATM   10  C           1     -31.741  -4.655 -16.571  0.00  0.00     0.053 C 
BRANCH  10  11
HETATM   11  C           1     -30.930  -3.717 -17.456  0.00  0.00     0.076 C 
BRANCH  11  12
HETATM   12  S           1     -29.489  -4.602 -18.117  0.00  0.00    -0.173 SA
HETATM   13  C           1     -28.286  -3.931 -16.933  0.00  0.00     0.089 C 
ENDBRANCH  11  12
ENDBRANCH  10  11
ENDBRANCH   5  10
ENDBRANCH   4   5
BRANCH   3  14
HETATM   14  C           1     -34.166  -3.944 -13.154  0.00  0.00     0.185 C 
BRANCH  14  15
HETATM   15  C           1     -33.242  -4.445 -12.051  0.00  0.00     0.040 C 
BRANCH  15  16
HETATM   16  C           1     -33.867  -5.660 -11.377  0.00  0.00    -0.020 C 
HETATM   17  C           1     -34.324  -5.282  -9.974  0.00  0.00     0.009 C 
HETATM   18  C           1     -35.062  -6.133 -12.192  0.00  0.00     0.009 C 
ENDBRANCH  15  16
ENDBRANCH  14  15
BRANCH  14  19
HETATM   19  C           1     -34.653  -2.558 -12.813  0.00  0.00     0.196 C 
HETATM   20  O           1     -35.024  -1.784 -13.723  0.00  0.00    -0.646 OA
HETATM   21  O           1     -34.687  -2.183 -11.621  0.00  0.00    -0.646 OA
ENDBRANCH  14  19
ENDBRANCH   3  14
TORSDOF 9
ENDMDL
MODEL 4
REMARK VINA RESULT:      -5.6     11.721     12.947
REMARK  9 active torsions:
REMARK  status: ('A' for Active; 'I' for Inactive)
REMARK    1  A    between atoms: C_2  and  C_8 
REMARK    2  A    between atoms: S_4  and  C_18 
REMARK    3  A    between atoms: N_7  and  C_10 
REMARK       I    between atoms: N_7  and  C_20 
REMARK    4  A    between atoms: C_8  and  C_10 
REMARK    5  A    between atoms: C_10  and  C_15 
REMARK    6  A    between atoms: N_16  and  C_21 
REMARK    7  A    between atoms: C_17  and  C_21 
REMARK    8  A    between atoms: C_17  and  C_18 
REMARK    9  A    between atoms: C_20  and  C_21 
ROOT
HETATM    1  O           1     -24.674  -6.222 -18.972  0.00  0.00    -0.271 OA
HETATM    2  H           1     -27.607  -7.276 -19.331  0.00  0.00     0.163 HD
HETATM    3  N           1     -26.848  -6.737 -18.937  0.00  0.00    -0.345 N 
HETATM    4  C           1     -25.582  -6.866 -19.443  0.00  0.00     0.249 C 
ENDROOT
BRANCH   4   5
HETATM    5  C           1     -25.320  -7.814 -20.587  0.00  0.00     0.275 C 
BRANCH   5   6
HETATM    6  N           1     -26.616  -8.414 -21.045  0.00  0.00    -0.066 N 
HETATM    7  H           1     -26.928  -9.136 -20.357  0.00  0.00     0.275 HD
HETATM    8  H           1     -26.482  -8.861 -21.981  0.00  0.00     0.275 HD
HETATM    9  H           1     -27.340  -7.664 -21.117  0.00  0.00     0.275 HD
ENDBRANCH   5   6
BRANCH   5  10
HETATM   10  C           1     -24.677  -7.055 -21.740  0.00  0.00     0.053 C 
BRANCH  10  11
HETATM   11  C           1     -23.822  -8.010 -22.563  0.00  0.00     0.076 C 
BRANCH  11  12
HETATM   12  S           1     -22.449  -8.624 -21.546  0.00  0.00    -0.173 SA
HETATM   13  C           1     -21.550  -9.437 -22.898  0.00  0.00     0.089 C 
ENDBRANCH  11  12
ENDBRANCH  10  11
ENDBRANCH   5  10
ENDBRANCH   4   5
BRANCH   3  14
HETATM   14  C           1     -27.098  -5.825 -17.838  0.00  0.00     0.185 C 
BRANCH  14  15
HETATM   15  C           1     -28.601  -5.668 -17.643  0.00  0.00     0.040 C 
BRANCH  15  16
HETATM   16  C           1     -28.999  -4.221 -17.900  0.00  0.00    -0.020 C 
HETATM   17  C           1     -30.512  -4.085 -17.796  0.00  0.00     0.009 C 
HETATM   18  C           1     -28.335  -3.321 -16.866  0.00  0.00     0.009 C 
ENDBRANCH  15  16
ENDBRANCH  14  15
BRANCH  14  19
HETATM   19  C           1     -26.481  -6.377 -16.577  0.00  0.00     0.196 C 
HETATM   20  O           1     -25.460  -5.841 -16.094  0.00  0.00    -0.646 OA
HETATM   21  O           1     -26.992  -7.369 -16.013  0.00  0.00    -0.646 OA
ENDBRANCH  14  19
ENDBRANCH   3  14
TORSDOF 9
ENDMDL
MODEL 5
REMARK VINA RESULT:      -5.5     14.350     17.113
REMARK  9 active torsions:
REMARK  status: ('A' for Active; 'I' for Inactive)
REMARK    1  A    between atoms: C_2  and  C_8 
REMARK    2  A    between atoms: S_4  and  C_18 
REMARK    3  A    between atoms: N_7  and  C_10 
REMARK       I    between atoms: N_7  and  C_20 
REMARK    4  A    between atoms: C_8  and  C_10 
REMARK    5  A    between atoms: C_10  and  C_15 
REMARK    6  A    between atoms: N_16  and  C_21 
REMARK    7  A    between atoms: C_17  and  C_21 
REMARK    8  A    between atoms: C_17  and  C_18 
REMARK    9  A    between atoms: C_20  and  C_21 
ROOT
HETATM    1  O           1     -20.366  -4.701  -5.576  0.00  0.00    -0.271 OA
HETATM    2  H           1     -21.202  -7.388  -6.963  0.00  0.00     0.163 HD
HETATM    3  N           1     -20.844  -6.780  -6.238  0.00  0.00    -0.345 N 
HETATM    4  C           1     -20.794  -5.427  -6.442  0.00  0.00     0.249 C 
ENDROOT
BRANCH   4   5
HETATM    5  C           1     -21.273  -4.843  -7.748  0.00  0.00     0.275 C 
BRANCH   5   6
HETATM    6  N           1     -22.238  -3.729  -7.474  0.00  0.00    -0.066 N 
HETATM    7  H           1     -22.570  -3.792  -6.484  0.00  0.00     0.275 HD
HETATM    8  H           1     -23.056  -3.809  -8.120  0.00  0.00     0.275 HD
HETATM    9  H           1     -21.762  -2.811  -7.625  0.00  0.00     0.275 HD
ENDBRANCH   5   6
BRANCH   5  10
HETATM   10  C           1     -20.082  -4.302  -8.530  0.00  0.00     0.053 C 
BRANCH  10  11
HETATM   11  C           1     -20.142  -4.813  -9.964  0.00  0.00     0.076 C 
BRANCH  11  12
HETATM   12  S           1     -20.845  -3.527 -11.035  0.00  0.00    -0.173 SA
HETATM   13  C           1     -22.303  -4.475 -11.553  0.00  0.00     0.089 C 
ENDBRANCH  11  12
ENDBRANCH  10  11
ENDBRANCH   5  10
ENDBRANCH   4   5
BRANCH   3  14
HETATM   14  C           1     -20.384  -7.341  -4.982  0.00  0.00     0.185 C 
BRANCH  14  15
HETATM   15  C           1     -21.548  -7.407  -4.001  0.00  0.00     0.040 C 
BRANCH  15  16
HETATM   16  C           1     -21.096  -6.891  -2.641  0.00  0.00    -0.020 C 
HETATM   17  C           1     -22.260  -6.189  -1.953  0.00  0.00     0.009 C 
HETATM   18  C           1     -20.629  -8.061  -1.785  0.00  0.00     0.009 C 
ENDBRANCH  15  16
ENDBRANCH  14  15
BRANCH  14  19
HETATM   19  C           1     -19.845  -8.729  -5.219  0.00  0.00     0.196 C 
HETATM   20  O           1     -20.568  -9.598  -5.753  0.00  0.00    -0.646 OA
HETATM   21  O           1     -18.675  -9.011  -4.882  0.00  0.00    -0.646 OA
ENDBRANCH  14  19
ENDBRANCH   3  14
TORSDOF 9
ENDMDL
MODEL 6
REMARK VINA RESULT:      -5.3     13.407     15.306
REMARK  9 active torsions:
REMARK  status: ('A' for Active; 'I' for Inactive)
REMARK    1  A    between atoms: C_2  and  C_8 
REMARK    2  A    between atoms: S_4  and  C_18 
REMARK    3  A    between atoms: N_7  and  C_10 
REMARK       I    between atoms: N_7  and  C_20 
REMARK    4  A    between atoms: C_8  and  C_10 
REMARK    5  A    between atoms: C_10  and  C_15 
REMARK    6  A    between atoms: N_16  and  C_21 
REMARK    7  A    between atoms: C_17  and  C_21 
REMARK    8  A    between atoms: C_17  and  C_18 
REMARK    9  A    between atoms: C_20  and  C_21 
ROOT
HETATM    1  O           1     -21.160  -7.132  -6.898  0.00  0.00    -0.271 OA
HETATM    2  H           1     -21.547  -4.075  -6.311  0.00  0.00     0.163 HD
HETATM    3  N           1     -21.452  -4.918  -6.862  0.00  0.00    -0.345 N 
HETATM    4  C           1     -21.273  -6.125  -6.240  0.00  0.00     0.249 C 
ENDROOT
BRANCH   4   5
HETATM    5  C           1     -21.216  -6.197  -4.735  0.00  0.00     0.275 C 
BRANCH   5   6
HETATM    6  N           1     -22.609  -6.176  -4.180  0.00  0.00    -0.066 N 
HETATM    7  H           1     -22.573  -6.308  -3.143  0.00  0.00     0.275 HD
HETATM    8  H           1     -23.167  -6.949  -4.609  0.00  0.00     0.275 HD
HETATM    9  H           1     -23.057  -5.258  -4.400  0.00  0.00     0.275 HD
ENDBRANCH   5   6
BRANCH   5  10
HETATM   10  C           1     -20.520  -7.485  -4.313  0.00  0.00     0.053 C 
BRANCH  10  11
HETATM   11  C           1     -21.417  -8.255  -3.352  0.00  0.00     0.076 C 
BRANCH  11  12
HETATM   12  S           1     -20.676  -8.248  -1.695  0.00  0.00    -0.173 SA
HETATM   13  C           1     -21.817  -9.456  -0.963  0.00  0.00     0.089 C 
ENDBRANCH  11  12
ENDBRANCH  10  11
ENDBRANCH   5  10
ENDBRANCH   4   5
BRANCH   3  14
HETATM   14  C           1     -21.507  -4.850  -8.309  0.00  0.00     0.185 C 
BRANCH  14  15
HETATM   15  C           1     -22.466  -3.742  -8.728  0.00  0.00     0.040 C 
BRANCH  15  16
HETATM   16  C           1     -23.637  -4.344  -9.493  0.00  0.00    -0.020 C 
HETATM   17  C           1     -24.774  -3.333  -9.557  0.00  0.00     0.009 C 
HETATM   18  C           1     -23.192  -4.700 -10.904  0.00  0.00     0.009 C 
ENDBRANCH  15  16
ENDBRANCH  14  15
BRANCH  14  19
HETATM   19  C           1     -20.131  -4.558  -8.852  0.00  0.00     0.196 C 
HETATM   20  O           1     -19.857  -4.831 -10.041  0.00  0.00    -0.646 OA
HETATM   21  O           1     -19.264  -4.043  -8.113  0.00  0.00    -0.646 OA
ENDBRANCH  14  19
ENDBRANCH   3  14
TORSDOF 9
ENDMDL
MODEL 7
REMARK VINA RESULT:      -5.1     14.305     17.168
REMARK  9 active torsions:
REMARK  status: ('A' for Active; 'I' for Inactive)
REMARK    1  A    between atoms: C_2  and  C_8 
REMARK    2  A    between atoms: S_4  and  C_18 
REMARK    3  A    between atoms: N_7  and  C_10 
REMARK       I    between atoms: N_7  and  C_20 
REMARK    4  A    between atoms: C_8  and  C_10 
REMARK    5  A    between atoms: C_10  and  C_15 
REMARK    6  A    between atoms: N_16  and  C_21 
REMARK    7  A    between atoms: C_17  and  C_21 
REMARK    8  A    between atoms: C_17  and  C_18 
REMARK    9  A    between atoms: C_20  and  C_21 
ROOT
HETATM    1  O           1     -22.691  -5.930  -5.462  0.00  0.00    -0.271 OA
HETATM    2  H           1     -19.830  -6.857  -4.567  0.00  0.00     0.163 HD
HETATM    3  N           1     -20.841  -6.811  -4.573  0.00  0.00    -0.345 N 
HETATM    4  C           1     -21.483  -5.985  -5.456  0.00  0.00     0.249 C 
ENDROOT
BRANCH   4   5
HETATM    5  C           1     -20.685  -5.144  -6.420  0.00  0.00     0.275 C 
BRANCH   5   6
HETATM    6  N           1     -19.959  -6.038  -7.380  0.00  0.00    -0.066 N 
HETATM    7  H           1     -20.381  -6.995  -7.353  0.00  0.00     0.275 HD
HETATM    8  H           1     -18.951  -6.096  -7.110  0.00  0.00     0.275 HD
HETATM    9  H           1     -20.039  -5.649  -8.347  0.00  0.00     0.275 HD
ENDBRANCH   5   6
BRANCH   5  10
HETATM   10  C           1     -21.623  -4.226  -7.192  0.00  0.00     0.053 C 
BRANCH  10  11
HETATM   11  C           1     -21.223  -4.211  -8.662  0.00  0.00     0.076 C 
BRANCH  11  12
HETATM   12  S           1     -22.711  -4.335  -9.696  0.00  0.00    -0.173 SA
HETATM   13  C           1     -21.843  -4.354 -11.290  0.00  0.00     0.089 C 
ENDBRANCH  11  12
ENDBRANCH  10  11
ENDBRANCH   5  10
ENDBRANCH   4   5
BRANCH   3  14
HETATM   14  C           1     -21.609  -7.619  -3.646  0.00  0.00     0.185 C 
BRANCH  14  15
HETATM   15  C           1     -20.950  -8.984  -3.497  0.00  0.00     0.040 C 
BRANCH  15  16
HETATM   16  C           1     -19.538  -8.932  -4.068  0.00  0.00    -0.020 C 
HETATM   17  C           1     -18.537  -9.289  -2.977  0.00  0.00     0.009 C 
HETATM   18  C           1     -19.417  -9.926  -5.214  0.00  0.00     0.009 C 
ENDBRANCH  15  16
ENDBRANCH  14  15
BRANCH  14  19
HETATM   19  C           1     -21.659  -6.934  -2.303  0.00  0.00     0.196 C 
HETATM   20  O           1     -22.333  -5.890  -2.158  0.00  0.00    -0.646 OA
HETATM   21  O           1     -21.028  -7.410  -1.335  0.00  0.00    -0.646 OA
ENDBRANCH  14  19
ENDBRANCH   3  14
TORSDOF 9
ENDMDL
MODEL 8
REMARK VINA RESULT:      -5.0     14.846     17.845
REMARK  9 active torsions:
REMARK  status: ('A' for Active; 'I' for Inactive)
REMARK    1  A    between atoms: C_2  and  C_8 
REMARK    2  A    between atoms: S_4  and  C_18 
REMARK    3  A    between atoms: N_7  and  C_10 
REMARK       I    between atoms: N_7  and  C_20 
REMARK    4  A    between atoms: C_8  and  C_10 
REMARK    5  A    between atoms: C_10  and  C_15 
REMARK    6  A    between atoms: N_16  and  C_21 
REMARK    7  A    between atoms: C_17  and  C_21 
REMARK    8  A    between atoms: C_17  and  C_18 
REMARK    9  A    between atoms: C_20  and  C_21 
ROOT
HETATM    1  O           1     -19.535  -8.182  -4.542  0.00  0.00    -0.271 OA
HETATM    2  H           1     -22.523  -8.316  -3.596  0.00  0.00     0.163 HD
HETATM    3  N           1     -21.528  -8.496  -3.583  0.00  0.00    -0.345 N 
HETATM    4  C           1     -20.724  -7.966  -4.557  0.00  0.00     0.249 C 
ENDROOT
BRANCH   4   5
HETATM    5  C           1     -21.322  -7.115  -5.649  0.00  0.00     0.275 C 
BRANCH   5   6
HETATM    6  N           1     -22.410  -6.257  -5.074  0.00  0.00    -0.066 N 
HETATM    7  H           1     -23.040  -6.844  -4.481  0.00  0.00     0.275 HD
HETATM    8  H           1     -22.964  -5.829  -5.851  0.00  0.00     0.275 HD
HETATM    9  H           1     -21.985  -5.501  -4.491  0.00  0.00     0.275 HD
ENDBRANCH   5   6
BRANCH   5  10
HETATM   10  C           1     -20.242  -6.228  -6.253  0.00  0.00     0.053 C 
BRANCH  10  11
HETATM   11  C           1     -20.729  -4.785  -6.285  0.00  0.00     0.076 C 
BRANCH  11  12
HETATM   12  S           1     -20.804  -4.209  -8.005  0.00  0.00    -0.173 SA
HETATM   13  C           1     -22.615  -4.183  -8.126  0.00  0.00     0.089 C 
ENDBRANCH  11  12
ENDBRANCH  10  11
ENDBRANCH   5  10
ENDBRANCH   4   5
BRANCH   3  14
HETATM   14  C           1     -20.951  -9.314  -2.534  0.00  0.00     0.185 C 
BRANCH  14  15
HETATM   15  C           1     -20.883  -8.508  -1.243  0.00  0.00     0.040 C 
BRANCH  15  16
HETATM   16  C           1     -22.243  -7.882  -0.962  0.00  0.00    -0.020 C 
HETATM   17  C           1     -22.622  -8.128   0.493  0.00  0.00     0.009 C 
HETATM   18  C           1     -22.176  -6.384  -1.225  0.00  0.00     0.009 C 
ENDBRANCH  15  16
ENDBRANCH  14  15
BRANCH  14  19
HETATM   19  C           1     -21.809 -10.536  -2.321  0.00  0.00     0.196 C 
HETATM   20  O           1     -22.742 -10.791  -3.113  0.00  0.00    -0.646 OA
HETATM   21  O           1     -21.587 -11.294  -1.352  0.00  0.00    -0.646 OA
ENDBRANCH  14  19
ENDBRANCH   3  14
TORSDOF 9
ENDMDL
MODEL 9
REMARK VINA RESULT:      -5.0     17.134     18.793
REMARK  9 active torsions:
REMARK  status: ('A' for Active; 'I' for Inactive)
REMARK    1  A    between atoms: C_2  and  C_8 
REMARK    2  A    between atoms: S_4  and  C_18 
REMARK    3  A    between atoms: N_7  and  C_10 
REMARK       I    between atoms: N_7  and  C_20 
REMARK    4  A    between atoms: C_8  and  C_10 
REMARK    5  A    between atoms: C_10  and  C_15 
REMARK    6  A    between atoms: N_16  and  C_21 
REMARK    7  A    between atoms: C_17  and  C_21 
REMARK    8  A    between atoms: C_17  and  C_18 
REMARK    9  A    between atoms: C_20  and  C_21 
ROOT
HETATM    1  O           1     -22.268 -10.091  -3.636  0.00  0.00    -0.271 OA
HETATM    2  H           1     -19.869  -8.097  -3.306  0.00  0.00     0.163 HD
HETATM    3  N           1     -20.784  -8.497  -3.143  0.00  0.00    -0.345 N 
HETATM    4  C           1     -21.175  -9.615  -3.831  0.00  0.00     0.249 C 
ENDROOT
BRANCH   4   5
HETATM    5  C           1     -20.242 -10.249  -4.832  0.00  0.00     0.275 C 
BRANCH   5   6
HETATM    6  N           1     -20.957 -10.426  -6.138  0.00  0.00    -0.066 N 
HETATM    7  H           1     -21.750 -11.097  -6.014  0.00  0.00     0.275 HD
HETATM    8  H           1     -20.292 -10.803  -6.851  0.00  0.00     0.275 HD
HETATM    9  H           1     -21.328  -9.503  -6.460  0.00  0.00     0.275 HD
ENDBRANCH   5   6
BRANCH   5  10
HETATM   10  C           1     -19.028  -9.354  -5.035  0.00  0.00     0.053 C 
BRANCH  10  11
HETATM   11  C           1     -17.757 -10.160  -4.799  0.00  0.00     0.076 C 
BRANCH  11  12
HETATM   12  S           1     -17.539 -10.439  -3.018  0.00  0.00    -0.173 SA
HETATM   13  C           1     -15.996  -9.497  -2.857  0.00  0.00     0.089 C 
ENDBRANCH  11  12
ENDBRANCH  10  11
ENDBRANCH   5  10
ENDBRANCH   4   5
BRANCH   3  14
HETATM   14  C           1     -21.681  -7.887  -2.181  0.00  0.00     0.185 C 
BRANCH  14  15
HETATM   15  C           1     -21.012  -7.856  -0.813  0.00  0.00     0.040 C 
BRANCH  15  16
HETATM   16  C           1     -21.772  -8.762   0.146  0.00  0.00    -0.020 C 
HETATM   17  C           1     -20.985  -8.901   1.443  0.00  0.00     0.009 C 
HETATM   18  C           1     -23.137  -8.155   0.442  0.00  0.00     0.009 C 
ENDBRANCH  15  16
ENDBRANCH  14  15
BRANCH  14  19
HETATM   19  C           1     -22.005  -6.479  -2.617  0.00  0.00     0.196 C 
HETATM   20  O           1     -21.913  -6.162  -3.823  0.00  0.00    -0.646 OA
HETATM   21  O           1     -22.365  -5.632  -1.773  0.00  0.00    -0.646 OA
ENDBRANCH  14  19
ENDBRANCH   3  14
TORSDOF 9
ENDMDL
