MODEL 1
REMARK VINA RESULT:      -6.7      0.000      0.000
REMARK  9 active torsions:
REMARK  status: ('A' for Active; 'I' for Inactive)
REMARK    1  A    between atoms: N_6  and  C_20 
REMARK       I    between atoms: N_6  and  C_7 
REMARK    2  A    between atoms: C_7  and  C_24 
REMARK    3  A    between atoms: N_8  and  C_24 
REMARK    4  A    between atoms: C_11  and  C_24 
REMARK    5  A    between atoms: C_11  and  C_12 
REMARK    6  A    between atoms: C_12  and  C_13 
REMARK       I    between atoms: C_13  and  N_22 
REMARK    7  A    between atoms: C_19  and  C_20 
REMARK    8  A    between atoms: C_20  and  C_21 
REMARK    9  A    between atoms: C_21  and  C_23 
ROOT
HETATM    1  N           1     -35.381  -2.230 -12.133  0.00  0.00    -0.345 N 
HETATM    2  C           1     -34.295  -2.859 -11.588  0.00  0.00     0.249 C 
HETATM    3  O           1     -33.566  -2.260 -10.831  0.00  0.00    -0.271 OA
HETATM    4  H           1     -35.991  -2.730 -12.766  0.00  0.00     0.163 HD
ENDROOT
BRANCH   2   5
HETATM    5  C           1     -34.006  -4.299 -11.930  0.00  0.00     0.275 C 
BRANCH   5   6
HETATM    6  N           1     -32.581  -4.428 -12.383  0.00  0.00    -0.066 N 
HETATM    7  H           1     -32.018  -4.894 -11.636  0.00  0.00     0.275 HD
HETATM    8  H           1     -32.544  -5.001 -13.255  0.00  0.00     0.275 HD
HETATM    9  H           1     -32.189  -3.477 -12.573  0.00  0.00     0.275 HD
ENDBRANCH   5   6
BRANCH   5  10
HETATM   10  C           1     -34.227  -5.169 -10.700  0.00  0.00     0.052 C 
BRANCH  10  11
HETATM   11  C           1     -33.477  -6.485 -10.866  0.00  0.00     0.105 C 
BRANCH  11  12
HETATM   12  C           1     -34.215  -7.581 -10.137  0.00  0.00     0.215 C 
HETATM   13  N           1     -33.736  -8.862 -10.163  0.00  0.00    -0.370 N 
HETATM   14  H           1     -34.231  -9.598  -9.674  0.00  0.00     0.159 HD
HETATM   15  H           1     -32.887  -9.075 -10.671  0.00  0.00     0.159 HD
HETATM   16  O           1     -35.228  -7.326  -9.530  0.00  0.00    -0.274 OA
ENDBRANCH  11  12
ENDBRANCH  10  11
ENDBRANCH   5  10
ENDBRANCH   2   5
BRANCH   1  17
HETATM   17  C           1     -35.659  -0.845 -11.802  0.00  0.00     0.185 C 
BRANCH  17  18
HETATM   18  C           1     -36.623  -0.788 -10.644  0.00  0.00     0.196 C 
HETATM   19  O           1     -36.214  -0.474  -9.505  0.00  0.00    -0.646 OA
HETATM   20  O           1     -37.831  -1.054 -10.823  0.00  0.00    -0.646 OA
ENDBRANCH  17  18
BRANCH  17  21
HETATM   21  C           1     -36.273  -0.149 -13.010  0.00  0.00     0.040 C 
BRANCH  21  22
HETATM   22  C           1     -35.241  -0.065 -14.126  0.00  0.00    -0.020 C 
HETATM   23  C           1     -35.882  -0.488 -15.442  0.00  0.00     0.009 C 
HETATM   24  C           1     -34.736   1.367 -14.244  0.00  0.00     0.009 C 
ENDBRANCH  21  22
ENDBRANCH  17  21
ENDBRANCH   1  17
TORSDOF 9
ENDMDL
MODEL 2
REMARK VINA RESULT:      -6.6      9.874     11.229
REMARK  9 active torsions:
REMARK  status: ('A' for Active; 'I' for Inactive)
REMARK    1  A    between atoms: N_6  and  C_20 
REMARK       I    between atoms: N_6  and  C_7 
REMARK    2  A    between atoms: C_7  and  C_24 
REMARK    3  A    between atoms: N_8  and  C_24 
REMARK    4  A    between atoms: C_11  and  C_24 
REMARK    5  A    between atoms: C_11  and  C_12 
REMARK    6  A    between atoms: C_12  and  C_13 
REMARK       I    between atoms: C_13  and  N_22 
REMARK    7  A    between atoms: C_19  and  C_20 
REMARK    8  A    between atoms: C_20  and  C_21 
REMARK    9  A    between atoms: C_21  and  C_23 
ROOT
HETATM    1  N           1     -27.721  -6.539 -17.138  0.00  0.00    -0.345 N 
HETATM    2  C           1     -26.577  -6.892 -16.474  0.00  0.00     0.249 C 
HETATM    3  O           1     -26.645  -7.354 -15.359  0.00  0.00    -0.271 OA
HETATM    4  H           1     -27.665  -6.152 -18.072  0.00  0.00     0.163 HD
ENDROOT
BRANCH   2   5
HETATM    5  C           1     -25.233  -6.705 -17.132  0.00  0.00     0.275 C 
BRANCH   5   6
HETATM    6  N           1     -24.295  -7.778 -16.663  0.00  0.00    -0.066 N 
HETATM    7  H           1     -23.777  -8.171 -17.481  0.00  0.00     0.275 HD
HETATM    8  H           1     -23.614  -7.372 -15.983  0.00  0.00     0.275 HD
HETATM    9  H           1     -24.841  -8.539 -16.198  0.00  0.00     0.275 HD
ENDBRANCH   5   6
BRANCH   5  10
HETATM   10  C           1     -25.390  -6.795 -18.644  0.00  0.00     0.052 C 
BRANCH  10  11
HETATM   11  C           1     -24.053  -7.166 -19.273  0.00  0.00     0.105 C 
BRANCH  11  12
HETATM   12  C           1     -24.291  -7.994 -20.512  0.00  0.00     0.215 C 
HETATM   13  N           1     -23.254  -8.675 -21.089  0.00  0.00    -0.370 N 
HETATM   14  H           1     -23.413  -9.231 -21.920  0.00  0.00     0.159 HD
HETATM   15  H           1     -22.327  -8.623 -20.685  0.00  0.00     0.159 HD
HETATM   16  O           1     -25.397  -8.056 -20.993  0.00  0.00    -0.274 OA
ENDBRANCH  11  12
ENDBRANCH  10  11
ENDBRANCH   5  10
ENDBRANCH   2   5
BRANCH   1  17
HETATM   17  C           1     -29.013  -6.720 -16.505  0.00  0.00     0.185 C 
BRANCH  17  18
HETATM   18  C           1     -29.954  -7.402 -17.467  0.00  0.00     0.196 C 
HETATM   19  O           1     -29.500  -8.158 -18.354  0.00  0.00    -0.646 OA
HETATM   20  O           1     -31.185  -7.211 -17.377  0.00  0.00    -0.646 OA
ENDBRANCH  17  18
BRANCH  17  21
HETATM   21  C           1     -29.580  -5.362 -16.115  0.00  0.00     0.040 C 
BRANCH  21  22
HETATM   22  C           1     -29.432  -4.395 -17.282  0.00  0.00    -0.020 C 
HETATM   23  C           1     -30.778  -3.747 -17.578  0.00  0.00     0.009 C 
HETATM   24  C           1     -28.417  -3.318 -16.922  0.00  0.00     0.009 C 
ENDBRANCH  21  22
ENDBRANCH  17  21
ENDBRANCH   1  17
TORSDOF 9
ENDMDL
MODEL 3
REMARK VINA RESULT:      -6.3     12.107     13.640
REMARK  9 active torsions:
REMARK  status: ('A' for Active; 'I' for Inactive)
REMARK    1  A    between atoms: N_6  and  C_20 
REMARK       I    between atoms: N_6  and  C_7 
REMARK    2  A    between atoms: C_7  and  C_24 
REMARK    3  A    between atoms: N_8  and  C_24 
REMARK    4  A    between atoms: C_11  and  C_24 
REMARK    5  A    between atoms: C_11  and  C_12 
REMARK    6  A    between atoms: C_12  and  C_13 
REMARK       I    between atoms: C_13  and  N_22 
REMARK    7  A    between atoms: C_19  and  C_20 
REMARK    8  A    between atoms: C_20  and  C_21 
REMARK    9  A    between atoms: C_21  and  C_23 
ROOT
HETATM    1  N           1     -22.964  -4.536  -8.708  0.00  0.00    -0.345 N 
HETATM    2  C           1     -22.101  -4.179  -7.708  0.00  0.00     0.249 C 
HETATM    3  O           1     -21.412  -3.193  -7.827  0.00  0.00    -0.271 OA
HETATM    4  H           1     -23.542  -5.361  -8.609  0.00  0.00     0.163 HD
ENDROOT
BRANCH   2   5
HETATM    5  C           1     -22.010  -5.016  -6.455  0.00  0.00     0.275 C 
BRANCH   5   6
HETATM    6  N           1     -23.388  -5.428  -6.030  0.00  0.00    -0.066 N 
HETATM    7  H           1     -23.396  -5.610  -5.000  0.00  0.00     0.275 HD
HETATM    8  H           1     -24.064  -4.663  -6.252  0.00  0.00     0.275 HD
HETATM    9  H           1     -23.665  -6.297  -6.540  0.00  0.00     0.275 HD
ENDBRANCH   5   6
BRANCH   5  10
HETATM   10  C           1     -21.173  -6.258  -6.733  0.00  0.00     0.052 C 
BRANCH  10  11
HETATM   11  C           1     -20.488  -6.706  -5.448  0.00  0.00     0.105 C 
BRANCH  11  12
HETATM   12  C           1     -21.045  -8.042  -5.020  0.00  0.00     0.215 C 
HETATM   13  N           1     -21.573  -8.192  -3.767  0.00  0.00    -0.370 N 
HETATM   14  H           1     -21.947  -9.088  -3.479  0.00  0.00     0.159 HD
HETATM   15  H           1     -21.589  -7.409  -3.126  0.00  0.00     0.159 HD
HETATM   16  O           1     -21.026  -8.977  -5.784  0.00  0.00    -0.274 OA
ENDBRANCH  11  12
ENDBRANCH  10  11
ENDBRANCH   5  10
ENDBRANCH   2   5
BRANCH   1  17
HETATM   17  C           1     -23.052  -3.731  -9.911  0.00  0.00     0.185 C 
BRANCH  17  18
HETATM   18  C           1     -24.480  -3.291 -10.119  0.00  0.00     0.196 C 
HETATM   19  O           1     -25.023  -3.436 -11.236  0.00  0.00    -0.646 OA
HETATM   20  O           1     -25.121  -2.783  -9.174  0.00  0.00    -0.646 OA
ENDBRANCH  17  18
BRANCH  17  21
HETATM   21  C           1     -22.595  -4.555 -11.107  0.00  0.00     0.040 C 
BRANCH  21  22
HETATM   22  C           1     -21.213  -4.089 -11.546  0.00  0.00    -0.020 C 
HETATM   23  C           1     -21.106  -2.581 -11.367  0.00  0.00     0.009 C 
HETATM   24  C           1     -20.152  -4.779 -10.698  0.00  0.00     0.009 C 
ENDBRANCH  21  22
ENDBRANCH  17  21
ENDBRANCH   1  17
TORSDOF 9
ENDMDL
MODEL 4
REMARK VINA RESULT:      -6.2     13.390     16.145
REMARK  9 active torsions:
REMARK  status: ('A' for Active; 'I' for Inactive)
REMARK    1  A    between atoms: N_6  and  C_20 
REMARK       I    between atoms: N_6  and  C_7 
REMARK    2  A    between atoms: C_7  and  C_24 
REMARK    3  A    between atoms: N_8  and  C_24 
REMARK    4  A    between atoms: C_11  and  C_24 
REMARK    5  A    between atoms: C_11  and  C_12 
REMARK    6  A    between atoms: C_12  and  C_13 
REMARK       I    between atoms: C_13  and  N_22 
REMARK    7  A    between atoms: C_19  and  C_20 
REMARK    8  A    between atoms: C_20  and  C_21 
REMARK    9  A    between atoms: C_21  and  C_23 
ROOT
HETATM    1  N           1     -20.937  -6.189  -6.168  0.00  0.00    -0.345 N 
HETATM    2  C           1     -20.607  -4.860  -6.143  0.00  0.00     0.249 C 
HETATM    3  O           1     -20.033  -4.398  -5.185  0.00  0.00    -0.271 OA
HETATM    4  H           1     -21.417  -6.576  -6.970  0.00  0.00     0.163 HD
ENDROOT
BRANCH   2   5
HETATM    5  C           1     -20.960  -3.973  -7.311  0.00  0.00     0.275 C 
BRANCH   5   6
HETATM    6  N           1     -19.865  -4.038  -8.335  0.00  0.00    -0.066 N 
HETATM    7  H           1     -19.078  -3.414  -8.044  0.00  0.00     0.275 HD
HETATM    8  H           1     -19.520  -5.020  -8.413  0.00  0.00     0.275 HD
HETATM    9  H           1     -20.235  -3.723  -9.260  0.00  0.00     0.275 HD
ENDBRANCH   5   6
BRANCH   5  10
HETATM   10  C           1     -22.266  -4.448  -7.935  0.00  0.00     0.052 C 
BRANCH  10  11
HETATM   11  C           1     -22.258  -4.141  -9.426  0.00  0.00     0.105 C 
BRANCH  11  12
HETATM   12  C           1     -23.653  -3.779  -9.874  0.00  0.00     0.215 C 
HETATM   13  N           1     -24.568  -3.327  -8.963  0.00  0.00    -0.370 N 
HETATM   14  H           1     -25.504  -3.084  -9.263  0.00  0.00     0.159 HD
HETATM   15  H           1     -24.310  -3.238  -7.988  0.00  0.00     0.159 HD
HETATM   16  O           1     -23.960  -3.886 -11.037  0.00  0.00    -0.274 OA
ENDBRANCH  11  12
ENDBRANCH  10  11
ENDBRANCH   5  10
ENDBRANCH   2   5
BRANCH   1  17
HETATM   17  C           1     -20.596  -7.041  -5.045  0.00  0.00     0.185 C 
BRANCH  17  18
HETATM   18  C           1     -20.224  -8.413  -5.550  0.00  0.00     0.196 C 
HETATM   19  O           1     -19.026  -8.694  -5.772  0.00  0.00    -0.646 OA
HETATM   20  O           1     -21.113  -9.269  -5.745  0.00  0.00    -0.646 OA
ENDBRANCH  17  18
BRANCH  17  21
HETATM   21  C           1     -21.793  -7.150  -4.110  0.00  0.00     0.040 C 
BRANCH  21  22
HETATM   22  C           1     -21.315  -7.105  -2.665  0.00  0.00    -0.020 C 
HETATM   23  C           1     -22.189  -6.142  -1.872  0.00  0.00     0.009 C 
HETATM   24  C           1     -21.411  -8.497  -2.055  0.00  0.00     0.009 C 
ENDBRANCH  21  22
ENDBRANCH  17  21
ENDBRANCH   1  17
TORSDOF 9
ENDMDL
MODEL 5
REMARK VINA RESULT:      -6.1     13.798     16.541
REMARK  9 active torsions:
REMARK  status: ('A' for Active; 'I' for Inactive)
REMARK    1  A    between atoms: N_6  and  C_20 
REMARK       I    between atoms: N_6  and  C_7 
REMARK    2  A    between atoms: C_7  and  C_24 
REMARK    3  A    between atoms: N_8  and  C_24 
REMARK    4  A    between atoms: C_11  and  C_24 
REMARK    5  A    between atoms: C_11  and  C_12 
REMARK    6  A    between atoms: C_12  and  C_13 
REMARK       I    between atoms: C_13  and  N_22 
REMARK    7  A    between atoms: C_19  and  C_20 
REMARK    8  A    between atoms: C_20  and  C_21 
REMARK    9  A    between atoms: C_21  and  C_23 
ROOT
HETATM    1  N           1     -20.775  -6.786  -4.679  0.00  0.00    -0.345 N 
HETATM    2  C           1     -21.302  -5.879  -5.557  0.00  0.00     0.249 C 
HETATM    3  O           1     -22.498  -5.713  -5.610  0.00  0.00    -0.271 OA
HETATM    4  H           1     -19.773  -6.925  -4.635  0.00  0.00     0.163 HD
ENDROOT
BRANCH   2   5
HETATM    5  C           1     -20.391  -5.084  -6.460  0.00  0.00     0.275 C 
BRANCH   5   6
HETATM    6  N           1     -19.915  -5.959  -7.582  0.00  0.00    -0.066 N 
HETATM    7  H           1     -18.922  -6.239  -7.410  0.00  0.00     0.275 HD
HETATM    8  H           1     -20.513  -6.813  -7.636  0.00  0.00     0.275 HD
HETATM    9  H           1     -19.976  -5.433  -8.484  0.00  0.00     0.275 HD
ENDBRANCH   5   6
BRANCH   5  10
HETATM   10  C           1     -21.151  -3.895  -7.032  0.00  0.00     0.052 C 
BRANCH  10  11
HETATM   11  C           1     -21.395  -4.114  -8.519  0.00  0.00     0.105 C 
BRANCH  11  12
HETATM   12  C           1     -22.853  -3.882  -8.830  0.00  0.00     0.215 C 
HETATM   13  N           1     -23.805  -4.140  -7.881  0.00  0.00    -0.370 N 
HETATM   14  H           1     -24.783  -3.983  -8.089  0.00  0.00     0.159 HD
HETATM   15  H           1     -23.531  -4.488  -6.970  0.00  0.00     0.159 HD
HETATM   16  O           1     -23.180  -3.466  -9.916  0.00  0.00    -0.274 OA
ENDBRANCH  11  12
ENDBRANCH  10  11
ENDBRANCH   5  10
ENDBRANCH   2   5
BRANCH   1  17
HETATM   17  C           1     -21.651  -7.549  -3.811  0.00  0.00     0.185 C 
BRANCH  17  18
HETATM   18  C           1     -21.701  -6.899  -2.450  0.00  0.00     0.196 C 
HETATM   19  O           1     -21.040  -7.380  -1.504  0.00  0.00    -0.646 OA
HETATM   20  O           1     -22.401  -5.880  -2.270  0.00  0.00    -0.646 OA
ENDBRANCH  17  18
BRANCH  17  21
HETATM   21  C           1     -21.121  -8.970  -3.677  0.00  0.00     0.040 C 
BRANCH  21  22
HETATM   22  C           1     -19.728  -9.051  -4.286  0.00  0.00    -0.020 C 
HETATM   23  C           1     -18.712  -9.350  -3.192  0.00  0.00     0.009 C 
HETATM   24  C           1     -19.694 -10.163  -5.327  0.00  0.00     0.009 C 
ENDBRANCH  21  22
ENDBRANCH  17  21
ENDBRANCH   1  17
TORSDOF 9
ENDMDL
MODEL 6
REMARK VINA RESULT:      -6.0     10.239     12.160
REMARK  9 active torsions:
REMARK  status: ('A' for Active; 'I' for Inactive)
REMARK    1  A    between atoms: N_6  and  C_20 
REMARK       I    between atoms: N_6  and  C_7 
REMARK    2  A    between atoms: C_7  and  C_24 
REMARK    3  A    between atoms: N_8  and  C_24 
REMARK    4  A    between atoms: C_11  and  C_24 
REMARK    5  A    between atoms: C_11  and  C_12 
REMARK    6  A    between atoms: C_12  and  C_13 
REMARK       I    between atoms: C_13  and  N_22 
REMARK    7  A    between atoms: C_19  and  C_20 
REMARK    8  A    between atoms: C_20  and  C_21 
REMARK    9  A    between atoms: C_21  and  C_23 
ROOT
HETATM    1  N           1     -27.102  -6.860 -18.967  0.00  0.00    -0.345 N 
HETATM    2  C           1     -28.001  -5.990 -18.411  0.00  0.00     0.249 C 
HETATM    3  O           1     -28.629  -5.236 -19.117  0.00  0.00    -0.271 OA
HETATM    4  H           1     -26.578  -7.492 -18.376  0.00  0.00     0.163 HD
ENDROOT
BRANCH   2   5
HETATM    5  C           1     -28.211  -5.974 -16.917  0.00  0.00     0.275 C 
BRANCH   5   6
HETATM    6  N           1     -26.880  -5.940 -16.227  0.00  0.00    -0.066 N 
HETATM    7  H           1     -26.140  -6.289 -16.878  0.00  0.00     0.275 HD
HETATM    8  H           1     -26.659  -4.959 -15.945  0.00  0.00     0.275 HD
HETATM    9  H           1     -26.912  -6.549 -15.378  0.00  0.00     0.275 HD
ENDBRANCH   5   6
BRANCH   5  10
HETATM   10  C           1     -29.015  -4.740 -16.529  0.00  0.00     0.052 C 
BRANCH  10  11
HETATM   11  C           1     -30.491  -5.103 -16.436  0.00  0.00     0.105 C 
BRANCH  11  12
HETATM   12  C           1     -31.315  -4.052 -17.138  0.00  0.00     0.215 C 
HETATM   13  N           1     -30.724  -3.214 -18.045  0.00  0.00    -0.370 N 
HETATM   14  H           1     -31.276  -2.508 -18.517  0.00  0.00     0.159 HD
HETATM   15  H           1     -29.735  -3.299 -18.245  0.00  0.00     0.159 HD
HETATM   16  O           1     -32.494  -3.950 -16.900  0.00  0.00    -0.274 OA
ENDBRANCH  11  12
ENDBRANCH  10  11
ENDBRANCH   5  10
ENDBRANCH   2   5
BRANCH   1  17
HETATM   17  C           1     -26.902  -6.876 -20.403  0.00  0.00     0.185 C 
BRANCH  17  18
HETATM   18  C           1     -27.308  -8.220 -20.953  0.00  0.00     0.196 C 
HETATM   19  O           1     -28.352  -8.774 -20.543  0.00  0.00    -0.646 OA
HETATM   20  O           1     -26.601  -8.781 -21.818  0.00  0.00    -0.646 OA
ENDBRANCH  17  18
BRANCH  17  21
HETATM   21  C           1     -25.433  -6.622 -20.712  0.00  0.00     0.040 C 
BRANCH  21  22
HETATM   22  C           1     -24.574  -7.626 -19.955  0.00  0.00    -0.020 C 
HETATM   23  C           1     -23.506  -8.184 -20.886  0.00  0.00     0.009 C 
HETATM   24  C           1     -23.906  -6.933 -18.774  0.00  0.00     0.009 C 
ENDBRANCH  21  22
ENDBRANCH  17  21
ENDBRANCH   1  17
TORSDOF 9
ENDMDL
MODEL 7
REMARK VINA RESULT:      -6.0     12.359     13.937
REMARK  9 active torsions:
REMARK  status: ('A' for Active; 'I' for Inactive)
REMARK    1  A    between atoms: N_6  and  C_20 
REMARK       I    between atoms: N_6  and  C_7 
REMARK    2  A    between atoms: C_7  and  C_24 
REMARK    3  A    between atoms: N_8  and  C_24 
REMARK    4  A    between atoms: C_11  and  C_24 
REMARK    5  A    between atoms: C_11  and  C_12 
REMARK    6  A    between atoms: C_12  and  C_13 
REMARK       I    between atoms: C_13  and  N_22 
REMARK    7  A    between atoms: C_19  and  C_20 
REMARK    8  A    between atoms: C_20  and  C_21 
REMARK    9  A    between atoms: C_21  and  C_23 
ROOT
HETATM    1  N           1     -22.296  -4.945  -8.663  0.00  0.00    -0.345 N 
HETATM    2  C           1     -21.632  -4.431  -7.581  0.00  0.00     0.249 C 
HETATM    3  O           1     -21.446  -3.240  -7.496  0.00  0.00    -0.271 OA
HETATM    4  H           1     -22.452  -5.942  -8.734  0.00  0.00     0.163 HD
ENDROOT
BRANCH   2   5
HETATM    5  C           1     -21.135  -5.351  -6.494  0.00  0.00     0.275 C 
BRANCH   5   6
HETATM    6  N           1     -20.244  -4.584  -5.562  0.00  0.00    -0.066 N 
HETATM    7  H           1     -20.316  -4.987  -4.599  0.00  0.00     0.275 HD
HETATM    8  H           1     -19.255  -4.650  -5.892  0.00  0.00     0.275 HD
HETATM    9  H           1     -20.539  -3.582  -5.543  0.00  0.00     0.275 HD
ENDBRANCH   5   6
BRANCH   5  10
HETATM   10  C           1     -22.320  -5.910  -5.717  0.00  0.00     0.052 C 
BRANCH  10  11
HETATM   11  C           1     -21.921  -7.221  -5.055  0.00  0.00     0.105 C 
BRANCH  11  12
HETATM   12  C           1     -21.736  -7.002  -3.573  0.00  0.00     0.215 C 
HETATM   13  N           1     -21.455  -8.061  -2.755  0.00  0.00    -0.370 N 
HETATM   14  H           1     -21.331  -7.915  -1.760  0.00  0.00     0.159 HD
HETATM   15  H           1     -21.371  -8.993  -3.142  0.00  0.00     0.159 HD
HETATM   16  O           1     -21.836  -5.891  -3.111  0.00  0.00    -0.274 OA
ENDBRANCH  11  12
ENDBRANCH  10  11
ENDBRANCH   5  10
ENDBRANCH   2   5
BRANCH   1  17
HETATM   17  C           1     -22.775  -4.059  -9.707  0.00  0.00     0.185 C 
BRANCH  17  18
HETATM   18  C           1     -24.274  -3.926  -9.604  0.00  0.00     0.196 C 
HETATM   19  O           1     -25.000  -4.940  -9.697  0.00  0.00    -0.646 OA
HETATM   20  O           1     -24.791  -2.802  -9.425  0.00  0.00    -0.646 OA
ENDBRANCH  17  18
BRANCH  17  21
HETATM   21  C           1     -22.408  -4.636 -11.068  0.00  0.00     0.040 C 
BRANCH  21  22
HETATM   22  C           1     -21.100  -4.018 -11.544  0.00  0.00    -0.020 C 
HETATM   23  C           1     -21.127  -2.516 -11.294  0.00  0.00     0.009 C 
HETATM   24  C           1     -19.938  -4.640 -10.780  0.00  0.00     0.009 C 
ENDBRANCH  21  22
ENDBRANCH  17  21
ENDBRANCH   1  17
TORSDOF 9
ENDMDL
MODEL 8
REMARK VINA RESULT:      -5.9     11.397     12.804
REMARK  9 active torsions:
REMARK  status: ('A' for Active; 'I' for Inactive)
REMARK    1  A    between atoms: N_6  and  C_20 
REMARK       I    between atoms: N_6  and  C_7 
REMARK    2  A    between atoms: C_7  and  C_24 
REMARK    3  A    between atoms: N_8  and  C_24 
REMARK    4  A    between atoms: C_11  and  C_24 
REMARK    5  A    between atoms: C_11  and  C_12 
REMARK    6  A    between atoms: C_12  and  C_13 
REMARK       I    between atoms: C_13  and  N_22 
REMARK    7  A    between atoms: C_19  and  C_20 
REMARK    8  A    between atoms: C_20  and  C_21 
REMARK    9  A    between atoms: C_21  and  C_23 
ROOT
HETATM    1  N           1     -26.642  -6.828 -18.451  0.00  0.00    -0.345 N 
HETATM    2  C           1     -26.452  -6.721 -19.802  0.00  0.00     0.249 C 
HETATM    3  O           1     -27.039  -5.871 -20.430  0.00  0.00    -0.271 OA
HETATM    4  H           1     -26.151  -7.539 -17.925  0.00  0.00     0.163 HD
ENDROOT
BRANCH   2   5
HETATM    5  C           1     -25.510  -7.664 -20.509  0.00  0.00     0.275 C 
BRANCH   5   6
HETATM    6  N           1     -26.302  -8.620 -21.353  0.00  0.00    -0.066 N 
HETATM    7  H           1     -25.657  -9.323 -21.782  0.00  0.00     0.275 HD
HETATM    8  H           1     -27.004  -9.111 -20.756  0.00  0.00     0.275 HD
HETATM    9  H           1     -26.794  -8.091 -22.109  0.00  0.00     0.275 HD
ENDBRANCH   5   6
BRANCH   5  10
HETATM   10  C           1     -24.564  -6.867 -21.398  0.00  0.00     0.052 C 
BRANCH  10  11
HETATM   11  C           1     -24.077  -7.748 -22.540  0.00  0.00     0.105 C 
BRANCH  11  12
HETATM   12  C           1     -22.871  -8.536 -22.091  0.00  0.00     0.215 C 
HETATM   13  N           1     -22.418  -9.584 -22.845  0.00  0.00    -0.370 N 
HETATM   14  H           1     -21.609 -10.112 -22.544  0.00  0.00     0.159 HD
HETATM   15  H           1     -22.892  -9.831 -23.705  0.00  0.00     0.159 HD
HETATM   16  O           1     -22.305  -8.240 -21.065  0.00  0.00    -0.274 OA
ENDBRANCH  11  12
ENDBRANCH  10  11
ENDBRANCH   5  10
ENDBRANCH   2   5
BRANCH   1  17
HETATM   17  C           1     -27.547  -5.920 -17.772  0.00  0.00     0.185 C 
BRANCH  17  18
HETATM   18  C           1     -26.939  -5.492 -16.459  0.00  0.00     0.196 C 
HETATM   19  O           1     -27.655  -4.961 -15.583  0.00  0.00    -0.646 OA
HETATM   20  O           1     -25.720  -5.670 -16.248  0.00  0.00    -0.646 OA
ENDBRANCH  17  18
BRANCH  17  21
HETATM   21  C           1     -28.871  -6.625 -17.512  0.00  0.00     0.040 C 
BRANCH  21  22
HETATM   22  C           1     -30.014  -5.770 -18.043  0.00  0.00    -0.020 C 
HETATM   23  C           1     -31.051  -5.572 -16.945  0.00  0.00     0.009 C 
HETATM   24  C           1     -29.473  -4.416 -18.481  0.00  0.00     0.009 C 
ENDBRANCH  21  22
ENDBRANCH  17  21
ENDBRANCH   1  17
TORSDOF 9
ENDMDL
MODEL 9
REMARK VINA RESULT:      -5.7     15.335     17.932
REMARK  9 active torsions:
REMARK  status: ('A' for Active; 'I' for Inactive)
REMARK    1  A    between atoms: N_6  and  C_20 
REMARK       I    between atoms: N_6  and  C_7 
REMARK    2  A    between atoms: C_7  and  C_24 
REMARK    3  A    between atoms: N_8  and  C_24 
REMARK    4  A    between atoms: C_11  and  C_24 
REMARK    5  A    between atoms: C_11  and  C_12 
REMARK    6  A    between atoms: C_12  and  C_13 
REMARK       I    between atoms: C_13  and  N_22 
REMARK    7  A    between atoms: C_19  and  C_20 
REMARK    8  A    between atoms: C_20  and  C_21 
REMARK    9  A    between atoms: C_21  and  C_23 
ROOT
HETATM    1  N           1     -21.223  -9.030  -2.148  0.00  0.00    -0.345 N 
HETATM    2  C           1     -21.444  -9.647  -3.349  0.00  0.00     0.249 C 
HETATM    3  O           1     -22.441 -10.310  -3.514  0.00  0.00    -0.271 OA
HETATM    4  H           1     -20.388  -8.474  -2.010  0.00  0.00     0.163 HD
ENDROOT
BRANCH   2   5
HETATM    5  C           1     -20.444  -9.499  -4.470  0.00  0.00     0.275 C 
BRANCH   5   6
HETATM    6  N           1     -21.014 -10.088  -5.727  0.00  0.00    -0.066 N 
HETATM    7  H           1     -20.826  -9.445  -6.529  0.00  0.00     0.275 HD
HETATM    8  H           1     -20.566 -11.013  -5.911  0.00  0.00     0.275 HD
HETATM    9  H           1     -22.045 -10.214  -5.616  0.00  0.00     0.275 HD
ENDBRANCH   5   6
BRANCH   5  10
HETATM   10  C           1     -20.144  -8.023  -4.692  0.00  0.00     0.052 C 
BRANCH  10  11
HETATM   11  C           1     -21.226  -7.411  -5.572  0.00  0.00     0.105 C 
BRANCH  11  12
HETATM   12  C           1     -22.037  -6.428  -4.763  0.00  0.00     0.215 C 
HETATM   13  N           1     -21.522  -5.901  -3.610  0.00  0.00    -0.370 N 
HETATM   14  H           1     -22.066  -5.242  -3.067  0.00  0.00     0.159 HD
HETATM   15  H           1     -20.597  -6.171  -3.299  0.00  0.00     0.159 HD
HETATM   16  O           1     -23.141  -6.107  -5.134  0.00  0.00    -0.274 OA
ENDBRANCH  11  12
ENDBRANCH  10  11
ENDBRANCH   5  10
ENDBRANCH   2   5
BRANCH   1  17
HETATM   17  C           1     -22.185  -9.171  -1.072  0.00  0.00     0.185 C 
BRANCH  17  18
HETATM   18  C           1     -22.311  -7.861  -0.334  0.00  0.00     0.196 C 
HETATM   19  O           1     -22.043  -7.803   0.886  0.00  0.00    -0.646 OA
HETATM   20  O           1     -22.682  -6.835  -0.943  0.00  0.00    -0.646 OA
ENDBRANCH  17  18
BRANCH  17  21
HETATM   21  C           1     -21.714 -10.253  -0.110  0.00  0.00     0.040 C 
BRANCH  21  22
HETATM   22  C           1     -22.600 -11.483  -0.254  0.00  0.00    -0.020 C 
HETATM   23  C           1     -22.259 -12.486   0.840  0.00  0.00     0.009 C 
HETATM   24  C           1     -24.062 -11.072  -0.129  0.00  0.00     0.009 C 
ENDBRANCH  21  22
ENDBRANCH  17  21
ENDBRANCH   1  17
TORSDOF 9
ENDMDL
