MODEL 1
REMARK VINA RESULT:      -6.5      0.000      0.000
REMARK  8 active torsions:
REMARK  status: ('A' for Active; 'I' for Inactive)
REMARK    1  A    between atoms: C_1  and  C_19 
REMARK    2  A    between atoms: N_3  and  C_18 
REMARK    3  A    between atoms: N_9  and  C_21 
REMARK       I    between atoms: N_9  and  C_10 
REMARK    4  A    between atoms: C_10  and  C_18 
REMARK    5  A    between atoms: C_15  and  C_17 
REMARK    6  A    between atoms: C_17  and  C_21 
REMARK    7  A    between atoms: C_18  and  C_19 
REMARK    8  A    between atoms: C_21  and  C_25 
ROOT
HETATM    1  N           1     -26.535  -6.931 -17.564  0.00  0.00    -0.344 N 
HETATM    2  C           1     -25.173  -6.809 -17.501  0.00  0.00     0.249 C 
HETATM    3  H           1     -26.956  -7.839 -17.710  0.00  0.00     0.163 HD
HETATM    4  O           1     -24.606  -6.906 -16.438  0.00  0.00    -0.271 OA
ENDROOT
BRANCH   1   5
HETATM    5  C           1     -27.374  -5.757 -17.421  0.00  0.00     0.191 C 
BRANCH   5   6
HETATM    6  C           1     -28.537  -5.843 -18.402  0.00  0.00     0.094 C 
BRANCH   6   7
HETATM    7  C           1     -29.686  -5.033 -17.887  0.00  0.00     0.028 A 
HETATM    8  N           1     -30.703  -5.528 -17.112  0.00  0.00    -0.354 N 
HETATM    9  C           1     -31.492  -4.505 -16.881  0.00  0.00     0.180 A 
ATOM     10  HN          1     -30.822  -6.487 -16.785  1.00  0.00     0.166 HD
HETATM   11  N           1     -31.023  -3.368 -17.475  0.00  0.00    -0.360 N 
HETATM   12  H           1     -31.471  -2.419 -17.439  0.00  0.00     0.166 HD
HETATM   13  C           1     -29.865  -3.691 -18.125  0.00  0.00     0.114 A 
ENDBRANCH   6   7
ENDBRANCH   5   6
BRANCH   5  14
HETATM   14  C           1     -27.910  -5.691 -16.012  0.00  0.00     0.197 C 
HETATM   15  O           1     -28.302  -6.732 -15.443  0.00  0.00    -0.646 OA
HETATM   16  O           1     -27.961  -4.594 -15.413  0.00  0.00    -0.646 OA
ENDBRANCH   5  14
ENDBRANCH   1   5
BRANCH   2  17
HETATM   17  C           1     -24.378  -6.555 -18.758  0.00  0.00     0.278 C 
BRANCH  17  18
HETATM   18  N           1     -23.001  -7.130 -18.602  0.00  0.00    -0.066 N 
HETATM   19  H           1     -22.291  -6.408 -18.857  0.00  0.00     0.275 HD
HETATM   20  H           1     -22.857  -7.423 -17.609  0.00  0.00     0.275 HD
HETATM   21  H           1     -22.896  -7.959 -19.230  0.00  0.00     0.275 HD
ENDBRANCH  17  18
BRANCH  17  22
HETATM   22  C           1     -25.072  -7.217 -19.942  0.00  0.00     0.021 C 
HETATM   23  C           1     -25.635  -6.144 -20.864  0.00  0.00     0.012 C 
BRANCH  22  24
HETATM   24  C           1     -24.066  -8.067 -20.707  0.00  0.00     0.002 C 
HETATM   25  C           1     -24.195  -7.785 -22.199  0.00  0.00     0.005 C 
ENDBRANCH  22  24
ENDBRANCH  17  22
ENDBRANCH   2  17
TORSDOF 8
ENDMDL
MODEL 2
REMARK VINA RESULT:      -6.4      1.732      5.921
REMARK  8 active torsions:
REMARK  status: ('A' for Active; 'I' for Inactive)
REMARK    1  A    between atoms: C_1  and  C_19 
REMARK    2  A    between atoms: N_3  and  C_18 
REMARK    3  A    between atoms: N_9  and  C_21 
REMARK       I    between atoms: N_9  and  C_10 
REMARK    4  A    between atoms: C_10  and  C_18 
REMARK    5  A    between atoms: C_15  and  C_17 
REMARK    6  A    between atoms: C_17  and  C_21 
REMARK    7  A    between atoms: C_18  and  C_19 
REMARK    8  A    between atoms: C_21  and  C_25 
ROOT
HETATM    1  N           1     -27.219  -5.797 -17.742  0.00  0.00    -0.344 N 
HETATM    2  C           1     -28.003  -5.394 -16.695  0.00  0.00     0.249 C 
HETATM    3  H           1     -27.390  -5.435 -18.671  0.00  0.00     0.163 HD
HETATM    4  O           1     -27.692  -4.423 -16.045  0.00  0.00    -0.271 OA
ENDROOT
BRANCH   1   5
HETATM    5  C           1     -26.142  -6.743 -17.518  0.00  0.00     0.191 C 
BRANCH   5   6
HETATM    6  C           1     -24.996  -6.442 -18.475  0.00  0.00     0.094 C 
BRANCH   6   7
HETATM    7  C           1     -25.163  -7.249 -19.725  0.00  0.00     0.028 A 
HETATM    8  N           1     -26.370  -7.558 -20.298  0.00  0.00    -0.354 N 
HETATM    9  C           1     -26.076  -8.268 -21.362  0.00  0.00     0.180 A 
ATOM     10  HN          1     -27.298  -7.292 -19.969  1.00  0.00     0.166 HD
HETATM   11  N           1     -24.727  -8.430 -21.499  0.00  0.00    -0.360 N 
HETATM   12  H           1     -24.239  -8.957 -22.265  0.00  0.00     0.166 HD
HETATM   13  C           1     -24.128  -7.782 -20.455  0.00  0.00     0.114 A 
ENDBRANCH   6   7
ENDBRANCH   5   6
BRANCH   5  14
HETATM   14  C           1     -25.655  -6.621 -16.095  0.00  0.00     0.197 C 
HETATM   15  O           1     -24.856  -5.711 -15.784  0.00  0.00    -0.646 OA
HETATM   16  O           1     -26.049  -7.430 -15.228  0.00  0.00    -0.646 OA
ENDBRANCH   5  14
ENDBRANCH   1   5
BRANCH   2  17
HETATM   17  C           1     -29.257  -6.161 -16.352  0.00  0.00     0.278 C 
BRANCH  17  18
HETATM   18  N           1     -29.761  -5.718 -15.011  0.00  0.00    -0.066 N 
HETATM   19  H           1     -29.025  -5.153 -14.530  0.00  0.00     0.275 HD
HETATM   20  H           1     -30.619  -5.134 -15.137  0.00  0.00     0.275 HD
HETATM   21  H           1     -29.991  -6.555 -14.430  0.00  0.00     0.275 HD
ENDBRANCH  17  18
BRANCH  17  22
HETATM   22  C           1     -30.323  -5.892 -17.407  0.00  0.00     0.021 C 
HETATM   23  C           1     -31.096  -7.174 -17.686  0.00  0.00     0.012 C 
BRANCH  22  24
HETATM   24  C           1     -31.281  -4.823 -16.898  0.00  0.00     0.002 C 
HETATM   25  C           1     -31.028  -3.518 -17.643  0.00  0.00     0.005 C 
ENDBRANCH  22  24
ENDBRANCH  17  22
ENDBRANCH   2  17
TORSDOF 8
ENDMDL
MODEL 3
REMARK VINA RESULT:      -6.4      2.614      6.074
REMARK  8 active torsions:
REMARK  status: ('A' for Active; 'I' for Inactive)
REMARK    1  A    between atoms: C_1  and  C_19 
REMARK    2  A    between atoms: N_3  and  C_18 
REMARK    3  A    between atoms: N_9  and  C_21 
REMARK       I    between atoms: N_9  and  C_10 
REMARK    4  A    between atoms: C_10  and  C_18 
REMARK    5  A    between atoms: C_15  and  C_17 
REMARK    6  A    between atoms: C_17  and  C_21 
REMARK    7  A    between atoms: C_18  and  C_19 
REMARK    8  A    between atoms: C_21  and  C_25 
ROOT
HETATM    1  N           1     -28.134  -7.583 -19.034  0.00  0.00    -0.344 N 
HETATM    2  C           1     -29.475  -7.630 -18.764  0.00  0.00     0.249 C 
HETATM    3  H           1     -27.465  -7.831 -18.316  0.00  0.00     0.163 HD
HETATM    4  O           1     -30.097  -8.648 -18.962  0.00  0.00    -0.271 OA
ENDROOT
BRANCH   1   5
HETATM    5  C           1     -27.673  -7.180 -20.348  0.00  0.00     0.191 C 
BRANCH   5   6
HETATM    6  C           1     -26.483  -6.240 -20.201  0.00  0.00     0.094 C 
BRANCH   6   7
HETATM    7  C           1     -25.655  -6.662 -19.027  0.00  0.00     0.028 A 
HETATM    8  N           1     -26.028  -6.514 -17.716  0.00  0.00    -0.354 N 
HETATM    9  C           1     -25.034  -7.006 -17.015  0.00  0.00     0.180 A 
ATOM     10  HN          1     -26.894  -6.109 -17.361  1.00  0.00     0.166 HD
HETATM   11  N           1     -24.032  -7.466 -17.822  0.00  0.00    -0.360 N 
HETATM   12  H           1     -23.132  -7.905 -17.506  0.00  0.00     0.166 HD
HETATM   13  C           1     -24.417  -7.252 -19.116  0.00  0.00     0.114 A 
ENDBRANCH   6   7
ENDBRANCH   5   6
BRANCH   5  14
HETATM   14  C           1     -27.256  -8.401 -21.131  0.00  0.00     0.197 C 
HETATM   15  O           1     -28.096  -9.285 -21.402  0.00  0.00    -0.646 OA
HETATM   16  O           1     -26.070  -8.528 -21.507  0.00  0.00    -0.646 OA
ENDBRANCH   5  14
ENDBRANCH   1   5
BRANCH   2  17
HETATM   17  C           1     -30.179  -6.411 -18.220  0.00  0.00     0.278 C 
BRANCH  17  18
HETATM   18  N           1     -31.294  -6.842 -17.314  0.00  0.00    -0.066 N 
HETATM   19  H           1     -31.143  -6.444 -16.360  0.00  0.00     0.275 HD
HETATM   20  H           1     -32.204  -6.496 -17.693  0.00  0.00     0.275 HD
HETATM   21  H           1     -31.314  -7.885 -17.257  0.00  0.00     0.275 HD
ENDBRANCH  17  18
BRANCH  17  22
HETATM   22  C           1     -29.189  -5.560 -17.435  0.00  0.00     0.021 C 
HETATM   23  C           1     -29.244  -4.124 -17.938  0.00  0.00     0.012 C 
BRANCH  22  24
HETATM   24  C           1     -29.554  -5.593 -15.956  0.00  0.00     0.002 C 
HETATM   25  C           1     -28.465  -6.325 -15.181  0.00  0.00     0.005 C 
ENDBRANCH  22  24
ENDBRANCH  17  22
ENDBRANCH   2  17
TORSDOF 8
ENDMDL
MODEL 4
REMARK VINA RESULT:      -6.2      1.749      5.886
REMARK  8 active torsions:
REMARK  status: ('A' for Active; 'I' for Inactive)
REMARK    1  A    between atoms: C_1  and  C_19 
REMARK    2  A    between atoms: N_3  and  C_18 
REMARK    3  A    between atoms: N_9  and  C_21 
REMARK       I    between atoms: N_9  and  C_10 
REMARK    4  A    between atoms: C_10  and  C_18 
REMARK    5  A    between atoms: C_15  and  C_17 
REMARK    6  A    between atoms: C_17  and  C_21 
REMARK    7  A    between atoms: C_18  and  C_19 
REMARK    8  A    between atoms: C_21  and  C_25 
ROOT
HETATM    1  N           1     -26.468  -6.012 -16.774  0.00  0.00    -0.344 N 
HETATM    2  C           1     -27.773  -6.300 -16.476  0.00  0.00     0.249 C 
HETATM    3  H           1     -26.127  -5.063 -16.688  0.00  0.00     0.163 HD
HETATM    4  O           1     -28.081  -6.614 -15.350  0.00  0.00    -0.271 OA
ENDROOT
BRANCH   1   5
HETATM    5  C           1     -25.575  -7.067 -17.213  0.00  0.00     0.191 C 
BRANCH   5   6
HETATM    6  C           1     -24.686  -6.545 -18.334  0.00  0.00     0.094 C 
BRANCH   6   7
HETATM    7  C           1     -25.024  -7.251 -19.610  0.00  0.00     0.028 A 
HETATM    8  N           1     -26.295  -7.413 -20.098  0.00  0.00    -0.354 N 
HETATM    9  C           1     -26.152  -8.076 -21.222  0.00  0.00     0.180 A 
ATOM     10  HN          1     -27.166  -7.087 -19.678  1.00  0.00     0.166 HD
HETATM   11  N           1     -24.839  -8.348 -21.479  0.00  0.00    -0.360 N 
HETATM   12  H           1     -24.463  -8.865 -22.312  0.00  0.00     0.166 HD
HETATM   13  C           1     -24.103  -7.825 -20.453  0.00  0.00     0.114 A 
ENDBRANCH   6   7
ENDBRANCH   5   6
BRANCH   5  14
HETATM   14  C           1     -24.716  -7.511 -16.054  0.00  0.00     0.197 C 
HETATM   15  O           1     -24.914  -7.041 -14.913  0.00  0.00    -0.646 OA
HETATM   16  O           1     -23.806  -8.349 -16.236  0.00  0.00    -0.646 OA
ENDBRANCH   5  14
ENDBRANCH   1   5
BRANCH   2  17
HETATM   17  C           1     -28.828  -6.226 -17.553  0.00  0.00     0.278 C 
BRANCH  17  18
HETATM   18  N           1     -29.518  -7.553 -17.667  0.00  0.00    -0.066 N 
HETATM   19  H           1     -30.282  -7.612 -16.958  0.00  0.00     0.275 HD
HETATM   20  H           1     -29.925  -7.651 -18.625  0.00  0.00     0.275 HD
HETATM   21  H           1     -28.828  -8.320 -17.501  0.00  0.00     0.275 HD
ENDBRANCH  17  18
BRANCH  17  22
HETATM   22  C           1     -29.849  -5.154 -17.192  0.00  0.00     0.021 C 
HETATM   23  C           1     -29.791  -4.032 -18.219  0.00  0.00     0.012 C 
BRANCH  22  24
HETATM   24  C           1     -31.244  -5.766 -17.187  0.00  0.00     0.002 C 
HETATM   25  C           1     -32.264  -4.701 -16.803  0.00  0.00     0.005 C 
ENDBRANCH  22  24
ENDBRANCH  17  22
ENDBRANCH   2  17
TORSDOF 8
ENDMDL
MODEL 5
REMARK VINA RESULT:      -6.2      4.631      9.039
REMARK  8 active torsions:
REMARK  status: ('A' for Active; 'I' for Inactive)
REMARK    1  A    between atoms: C_1  and  C_19 
REMARK    2  A    between atoms: N_3  and  C_18 
REMARK    3  A    between atoms: N_9  and  C_21 
REMARK       I    between atoms: N_9  and  C_10 
REMARK    4  A    between atoms: C_10  and  C_18 
REMARK    5  A    between atoms: C_15  and  C_17 
REMARK    6  A    between atoms: C_17  and  C_21 
REMARK    7  A    between atoms: C_18  and  C_19 
REMARK    8  A    between atoms: C_21  and  C_25 
ROOT
HETATM    1  N           1     -33.912  -4.558 -15.647  0.00  0.00    -0.344 N 
HETATM    2  C           1     -34.169  -3.846 -14.506  0.00  0.00     0.249 C 
HETATM    3  H           1     -34.624  -5.162 -16.038  0.00  0.00     0.163 HD
HETATM    4  O           1     -34.640  -2.736 -14.580  0.00  0.00    -0.271 OA
ENDROOT
BRANCH   1   5
HETATM    5  C           1     -32.620  -4.447 -16.295  0.00  0.00     0.191 C 
BRANCH   5   6
HETATM    6  C           1     -32.298  -5.751 -17.012  0.00  0.00     0.094 C 
BRANCH   6   7
HETATM    7  C           1     -30.852  -6.086 -16.816  0.00  0.00     0.028 A 
HETATM    8  N           1     -30.075  -5.616 -15.788  0.00  0.00    -0.354 N 
HETATM    9  C           1     -28.889  -6.142 -15.983  0.00  0.00     0.180 A 
ATOM     10  HN          1     -30.359  -4.992 -15.034  1.00  0.00     0.166 HD
HETATM   11  N           1     -28.868  -6.934 -17.095  0.00  0.00    -0.360 N 
HETATM   12  H           1     -28.042  -7.467 -17.464  0.00  0.00     0.166 HD
HETATM   13  C           1     -30.122  -6.908 -17.641  0.00  0.00     0.114 A 
ENDBRANCH   6   7
ENDBRANCH   5   6
BRANCH   5  14
HETATM   14  C           1     -32.655  -3.318 -17.296  0.00  0.00     0.197 C 
HETATM   15  O           1     -33.727  -2.715 -17.519  0.00  0.00    -0.646 OA
HETATM   16  O           1     -31.613  -2.986 -17.901  0.00  0.00    -0.646 OA
ENDBRANCH   5  14
ENDBRANCH   1   5
BRANCH   2  17
HETATM   17  C           1     -33.865  -4.448 -13.156  0.00  0.00     0.278 C 
BRANCH  17  18
HETATM   18  N           1     -32.379  -4.573 -12.989  0.00  0.00    -0.066 N 
HETATM   19  H           1     -32.065  -3.970 -12.197  0.00  0.00     0.275 HD
HETATM   20  H           1     -32.135  -5.569 -12.785  0.00  0.00     0.275 HD
HETATM   21  H           1     -31.903  -4.271 -13.869  0.00  0.00     0.275 HD
ENDBRANCH  17  18
BRANCH  17  22
HETATM   22  C           1     -34.423  -3.548 -12.061  0.00  0.00     0.021 C 
HETATM   23  C           1     -35.289  -4.373 -11.118  0.00  0.00     0.012 C 
BRANCH  22  24
HETATM   24  C           1     -33.272  -2.929 -11.279  0.00  0.00     0.002 C 
HETATM   25  C           1     -33.827  -1.977 -10.226  0.00  0.00     0.005 C 
ENDBRANCH  22  24
ENDBRANCH  17  22
ENDBRANCH   2  17
TORSDOF 8
ENDMDL
MODEL 6
REMARK VINA RESULT:      -6.2      9.893     11.910
REMARK  8 active torsions:
REMARK  status: ('A' for Active; 'I' for Inactive)
REMARK    1  A    between atoms: C_1  and  C_19 
REMARK    2  A    between atoms: N_3  and  C_18 
REMARK    3  A    between atoms: N_9  and  C_21 
REMARK       I    between atoms: N_9  and  C_10 
REMARK    4  A    between atoms: C_10  and  C_18 
REMARK    5  A    between atoms: C_15  and  C_17 
REMARK    6  A    between atoms: C_17  and  C_21 
REMARK    7  A    between atoms: C_18  and  C_19 
REMARK    8  A    between atoms: C_21  and  C_25 
ROOT
HETATM    1  N           1     -34.709  -1.530 -12.444  0.00  0.00    -0.344 N 
HETATM    2  C           1     -35.343  -0.420 -12.933  0.00  0.00     0.249 C 
HETATM    3  H           1     -33.827  -1.826 -12.843  0.00  0.00     0.163 HD
HETATM    4  O           1     -35.111   0.667 -12.459  0.00  0.00    -0.271 OA
ENDROOT
BRANCH   1   5
HETATM    5  C           1     -35.301  -2.282 -11.355  0.00  0.00     0.191 C 
BRANCH   5   6
HETATM    6  C           1     -34.202  -2.775 -10.422  0.00  0.00     0.094 C 
BRANCH   6   7
HETATM    7  C           1     -33.876  -4.200 -10.744  0.00  0.00     0.028 A 
HETATM    8  N           1     -34.551  -5.286 -10.247  0.00  0.00    -0.354 N 
HETATM    9  C           1     -33.956  -6.332 -10.770  0.00  0.00     0.180 A 
ATOM     10  HN          1     -35.345  -5.281  -9.608  1.00  0.00     0.166 HD
HETATM   11  N           1     -32.924  -5.965 -11.587  0.00  0.00    -0.360 N 
HETATM   12  H           1     -32.294  -6.613 -12.122  0.00  0.00     0.166 HD
HETATM   13  C           1     -32.860  -4.600 -11.580  0.00  0.00     0.114 A 
ENDBRANCH   6   7
ENDBRANCH   5   6
BRANCH   5  14
HETATM   14  C           1     -36.250  -1.392 -10.588  0.00  0.00     0.197 C 
HETATM   15  O           1     -37.460  -1.357 -10.897  0.00  0.00    -0.646 OA
HETATM   16  O           1     -35.824  -0.691  -9.645  0.00  0.00    -0.646 OA
ENDBRANCH   5  14
ENDBRANCH   1   5
BRANCH   2  17
HETATM   17  C           1     -36.332  -0.552 -14.065  0.00  0.00     0.278 C 
BRANCH  17  18
HETATM   18  N           1     -37.599   0.169 -13.708  0.00  0.00    -0.066 N 
HETATM   19  H           1     -38.121  -0.379 -12.989  0.00  0.00     0.275 HD
HETATM   20  H           1     -37.365   1.112 -13.324  0.00  0.00     0.275 HD
HETATM   21  H           1     -38.191   0.277 -14.562  0.00  0.00     0.275 HD
ENDBRANCH  17  18
BRANCH  17  22
HETATM   22  C           1     -35.742   0.057 -15.331  0.00  0.00     0.021 C 
HETATM   23  C           1     -35.543  -1.033 -16.374  0.00  0.00     0.012 C 
BRANCH  22  24
HETATM   24  C           1     -36.696   1.113 -15.876  0.00  0.00     0.002 C 
HETATM   25  C           1     -35.943   2.423 -16.072  0.00  0.00     0.005 C 
ENDBRANCH  22  24
ENDBRANCH  17  22
ENDBRANCH   2  17
TORSDOF 8
ENDMDL
MODEL 7
REMARK VINA RESULT:      -6.2     11.473     13.388
REMARK  8 active torsions:
REMARK  status: ('A' for Active; 'I' for Inactive)
REMARK    1  A    between atoms: C_1  and  C_19 
REMARK    2  A    between atoms: N_3  and  C_18 
REMARK    3  A    between atoms: N_9  and  C_21 
REMARK       I    between atoms: N_9  and  C_10 
REMARK    4  A    between atoms: C_10  and  C_18 
REMARK    5  A    between atoms: C_15  and  C_17 
REMARK    6  A    between atoms: C_17  and  C_21 
REMARK    7  A    between atoms: C_18  and  C_19 
REMARK    8  A    between atoms: C_21  and  C_25 
ROOT
HETATM    1  N           1     -22.034  -4.781  -6.292  0.00  0.00    -0.344 N 
HETATM    2  C           1     -21.292  -5.420  -5.336  0.00  0.00     0.249 C 
HETATM    3  H           1     -22.787  -4.163  -6.020  0.00  0.00     0.163 HD
HETATM    4  O           1     -20.296  -4.896  -4.893  0.00  0.00    -0.271 OA
ENDROOT
BRANCH   1   5
HETATM    5  C           1     -21.739  -4.989  -7.697  0.00  0.00     0.191 C 
BRANCH   5   6
HETATM    6  C           1     -22.263  -3.810  -8.506  0.00  0.00     0.094 C 
BRANCH   6   7
HETATM    7  C           1     -22.547  -4.253  -9.907  0.00  0.00     0.028 A 
HETATM    8  N           1     -23.699  -4.880 -10.309  0.00  0.00    -0.354 N 
HETATM    9  C           1     -23.547  -5.092 -11.595  0.00  0.00     0.180 A 
ATOM     10  HN          1     -24.502  -5.129  -9.731  1.00  0.00     0.166 HD
HETATM   11  N           1     -22.343  -4.626 -12.041  0.00  0.00    -0.360 N 
HETATM   12  H           1     -21.984  -4.674 -13.026  0.00  0.00     0.166 HD
HETATM   13  C           1     -21.690  -4.084 -10.969  0.00  0.00     0.114 A 
ENDBRANCH   6   7
ENDBRANCH   5   6
BRANCH   5  14
HETATM   14  C           1     -20.246  -5.104  -7.885  0.00  0.00     0.197 C 
HETATM   15  O           1     -19.700  -6.228  -7.878  0.00  0.00    -0.646 OA
HETATM   16  O           1     -19.555  -4.074  -8.046  0.00  0.00    -0.646 OA
ENDBRANCH   5  14
ENDBRANCH   1   5
BRANCH   2  17
HETATM   17  C           1     -21.716  -6.778  -4.833  0.00  0.00     0.278 C 
BRANCH  17  18
HETATM   18  N           1     -21.166  -7.839  -5.739  0.00  0.00    -0.066 N 
HETATM   19  H           1     -20.302  -7.486  -6.206  0.00  0.00     0.275 HD
HETATM   20  H           1     -20.934  -8.690  -5.177  0.00  0.00     0.275 HD
HETATM   21  H           1     -21.879  -8.084  -6.463  0.00  0.00     0.275 HD
ENDBRANCH  17  18
BRANCH  17  22
HETATM   22  C           1     -21.180  -6.989  -3.422  0.00  0.00     0.021 C 
HETATM   23  C           1     -22.112  -6.321  -2.420  0.00  0.00     0.012 C 
BRANCH  22  24
HETATM   24  C           1     -21.104  -8.481  -3.128  0.00  0.00     0.002 C 
HETATM   25  C           1     -21.653  -8.752  -1.733  0.00  0.00     0.005 C 
ENDBRANCH  22  24
ENDBRANCH  17  22
ENDBRANCH   2  17
TORSDOF 8
ENDMDL
MODEL 8
REMARK VINA RESULT:      -6.2     11.807     13.581
REMARK  8 active torsions:
REMARK  status: ('A' for Active; 'I' for Inactive)
REMARK    1  A    between atoms: C_1  and  C_19 
REMARK    2  A    between atoms: N_3  and  C_18 
REMARK    3  A    between atoms: N_9  and  C_21 
REMARK       I    between atoms: N_9  and  C_10 
REMARK    4  A    between atoms: C_10  and  C_18 
REMARK    5  A    between atoms: C_15  and  C_17 
REMARK    6  A    between atoms: C_17  and  C_21 
REMARK    7  A    between atoms: C_18  and  C_19 
REMARK    8  A    between atoms: C_21  and  C_25 
ROOT
HETATM    1  N           1     -20.567  -6.330  -6.781  0.00  0.00    -0.344 N 
HETATM    2  C           1     -21.018  -5.070  -7.070  0.00  0.00     0.249 C 
HETATM    3  H           1     -19.710  -6.668  -7.198  0.00  0.00     0.163 HD
HETATM    4  O           1     -20.673  -4.134  -6.388  0.00  0.00    -0.271 OA
ENDROOT
BRANCH   1   5
HETATM    5  C           1     -21.319  -7.179  -5.878  0.00  0.00     0.191 C 
BRANCH   5   6
HETATM    6  C           1     -20.358  -8.076  -5.108  0.00  0.00     0.094 C 
BRANCH   6   7
HETATM    7  C           1     -20.935  -9.454  -5.005  0.00  0.00     0.028 A 
HETATM    8  N           1     -20.826 -10.420  -5.973  0.00  0.00    -0.354 N 
HETATM    9  C           1     -21.461 -11.464  -5.493  0.00  0.00     0.180 A 
ATOM     10  HN          1     -20.352 -10.343  -6.872  1.00  0.00     0.166 HD
HETATM   11  N           1     -21.976 -11.211  -4.254  0.00  0.00    -0.360 N 
HETATM   12  H           1     -22.524 -11.881  -3.660  0.00  0.00     0.166 HD
HETATM   13  C           1     -21.647  -9.925  -3.927  0.00  0.00     0.114 A 
ENDBRANCH   6   7
ENDBRANCH   5   6
BRANCH   5  14
HETATM   14  C           1     -22.092  -6.320  -4.907  0.00  0.00     0.197 C 
HETATM   15  O           1     -21.538  -5.898  -3.869  0.00  0.00    -0.646 OA
HETATM   16  O           1     -23.285  -6.030  -5.142  0.00  0.00    -0.646 OA
ENDBRANCH   5  14
ENDBRANCH   1   5
BRANCH   2  17
HETATM   17  C           1     -21.945  -4.849  -8.240  0.00  0.00     0.278 C 
BRANCH  17  18
HETATM   18  N           1     -23.194  -4.168  -7.765  0.00  0.00    -0.066 N 
HETATM   19  H           1     -23.038  -3.136  -7.731  0.00  0.00     0.275 HD
HETATM   20  H           1     -23.977  -4.379  -8.425  0.00  0.00     0.275 HD
HETATM   21  H           1     -23.439  -4.515  -6.810  0.00  0.00     0.275 HD
ENDBRANCH  17  18
BRANCH  17  22
HETATM   22  C           1     -21.255  -3.974  -9.278  0.00  0.00     0.021 C 
HETATM   23  C           1     -20.050  -4.712  -9.845  0.00  0.00     0.012 C 
BRANCH  22  24
HETATM   24  C           1     -22.231  -3.659 -10.404  0.00  0.00     0.002 C 
HETATM   25  C           1     -21.605  -4.037 -11.741  0.00  0.00     0.005 C 
ENDBRANCH  22  24
ENDBRANCH  17  22
ENDBRANCH   2  17
TORSDOF 8
ENDMDL
MODEL 9
REMARK VINA RESULT:      -6.0     12.246     14.049
REMARK  8 active torsions:
REMARK  status: ('A' for Active; 'I' for Inactive)
REMARK    1  A    between atoms: C_1  and  C_19 
REMARK    2  A    between atoms: N_3  and  C_18 
REMARK    3  A    between atoms: N_9  and  C_21 
REMARK       I    between atoms: N_9  and  C_10 
REMARK    4  A    between atoms: C_10  and  C_18 
REMARK    5  A    between atoms: C_15  and  C_17 
REMARK    6  A    between atoms: C_17  and  C_21 
REMARK    7  A    between atoms: C_18  and  C_19 
REMARK    8  A    between atoms: C_21  and  C_25 
ROOT
HETATM    1  N           1     -21.781  -6.955  -6.338  0.00  0.00    -0.344 N 
HETATM    2  C           1     -22.182  -6.591  -5.081  0.00  0.00     0.249 C 
HETATM    3  H           1     -21.871  -7.916  -6.639  0.00  0.00     0.163 HD
HETATM    4  O           1     -23.318  -6.226  -4.890  0.00  0.00    -0.271 OA
ENDROOT
BRANCH   1   5
HETATM    5  C           1     -21.227  -5.961  -7.237  0.00  0.00     0.191 C 
BRANCH   5   6
HETATM    6  C           1     -21.882  -4.613  -6.969  0.00  0.00     0.094 C 
BRANCH   6   7
HETATM    7  C           1     -22.620  -4.164  -8.192  0.00  0.00     0.028 A 
HETATM    8  N           1     -23.971  -3.932  -8.247  0.00  0.00    -0.354 N 
HETATM    9  C           1     -24.208  -3.560  -9.483  0.00  0.00     0.180 A 
ATOM     10  HN          1     -24.646  -4.028  -7.489  1.00  0.00     0.166 HD
HETATM   11  N           1     -23.064  -3.542 -10.229  0.00  0.00    -0.360 N 
HETATM   12  H           1     -22.987  -3.279 -11.242  0.00  0.00     0.166 HD
HETATM   13  C           1     -22.037  -3.928  -9.414  0.00  0.00     0.114 A 
ENDBRANCH   6   7
ENDBRANCH   5   6
BRANCH   5  14
HETATM   14  C           1     -19.739  -5.851  -7.008  0.00  0.00     0.197 C 
HETATM   15  O           1     -19.047  -6.886  -6.890  0.00  0.00    -0.646 OA
HETATM   16  O           1     -19.199  -4.726  -6.935  0.00  0.00    -0.646 OA
ENDBRANCH   5  14
ENDBRANCH   1   5
BRANCH   2  17
HETATM   17  C           1     -21.206  -6.647  -3.931  0.00  0.00     0.278 C 
BRANCH  17  18
HETATM   18  N           1     -21.721  -5.809  -2.798  0.00  0.00    -0.066 N 
HETATM   19  H           1     -22.656  -5.418  -3.051  0.00  0.00     0.275 HD
HETATM   20  H           1     -21.813  -6.401  -1.942  0.00  0.00     0.275 HD
HETATM   21  H           1     -21.055  -5.026  -2.612  0.00  0.00     0.275 HD
ENDBRANCH  17  18
BRANCH  17  22
HETATM   22  C           1     -21.050  -8.089  -3.464  0.00  0.00     0.021 C 
HETATM   23  C           1     -19.714  -8.637  -3.946  0.00  0.00     0.012 C 
BRANCH  22  24
HETATM   24  C           1     -21.099  -8.136  -1.942  0.00  0.00     0.002 C 
HETATM   25  C           1     -21.896  -9.356  -1.497  0.00  0.00     0.005 C 
ENDBRANCH  22  24
ENDBRANCH  17  22
ENDBRANCH   2  17
TORSDOF 8
ENDMDL
