MODEL 1
REMARK VINA RESULT:      -5.1      0.000      0.000
REMARK  6 active torsions:
REMARK  status: ('A' for Active; 'I' for Inactive)
REMARK    1  A    between atoms: N_2  and  C_5 
REMARK    2  A    between atoms: O_3  and  C_4 
REMARK    3  A    between atoms: C_4  and  C_5 
REMARK    4  A    between atoms: C_5  and  C_6 
REMARK       I    between atoms: C_6  and  N_7 
REMARK    5  A    between atoms: N_7  and  C_9 
REMARK    6  A    between atoms: C_9  and  C_15 
ROOT
HETATM    1  C           1     -34.611  -1.396 -11.934  0.00  0.00     0.297 C 
ENDROOT
BRANCH   1   2
HETATM    2  N           1     -35.361  -1.339 -10.636  0.00  0.00    -0.064 N 
HETATM    3  H           1     -34.681  -1.297  -9.843  0.00  0.00     0.275 HD
HETATM    4  H           1     -35.966  -0.487 -10.621  0.00  0.00     0.275 HD
HETATM    5  H           1     -35.956  -2.191 -10.539  0.00  0.00     0.275 HD
ENDBRANCH   1   2
BRANCH   1   6
HETATM    6  C           1     -34.197  -2.834 -12.218  0.00  0.00     0.206 C 
BRANCH   6   7
HETATM    7  O           1     -34.487  -3.150 -13.553  0.00  0.00    -0.398 OA
HETATM    8  H           1     -34.109  -3.995 -13.722  0.00  0.00     0.209 HD
ENDBRANCH   6   7
ENDBRANCH   1   6
BRANCH   1   9
HETATM    9  C           1     -35.499  -0.899 -13.048  0.00  0.00     0.250 C 
HETATM   10  O           1     -36.697  -1.033 -12.972  0.00  0.00    -0.271 OA
HETATM   11  N           1     -34.947  -0.296 -14.147  0.00  0.00    -0.349 N 
HETATM   12  H           1     -33.943  -0.183 -14.211  0.00  0.00     0.163 HD
BRANCH  11  13
HETATM   13  C           1     -35.800   0.182 -15.218  0.00  0.00     0.235 C 
BRANCH  13  14
HETATM   14  C           1     -35.912  -0.879 -16.284  0.00  0.00     0.191 C 
HETATM   15  O           1     -36.779  -0.777 -17.179  0.00  0.00    -0.647 OA
HETATM   16  O           1     -35.136  -1.860 -16.273  0.00  0.00    -0.647 OA
ENDBRANCH  13  14
ENDBRANCH  11  13
ENDBRANCH   1   9
TORSDOF 6
ENDMDL
MODEL 2
REMARK VINA RESULT:      -4.5     12.927     14.870
REMARK  6 active torsions:
REMARK  status: ('A' for Active; 'I' for Inactive)
REMARK    1  A    between atoms: N_2  and  C_5 
REMARK    2  A    between atoms: O_3  and  C_4 
REMARK    3  A    between atoms: C_4  and  C_5 
REMARK    4  A    between atoms: C_5  and  C_6 
REMARK       I    between atoms: C_6  and  N_7 
REMARK    5  A    between atoms: N_7  and  C_9 
REMARK    6  A    between atoms: C_9  and  C_15 
ROOT
HETATM    1  C           1     -23.307  -3.626 -10.468  0.00  0.00     0.297 C 
ENDROOT
BRANCH   1   2
HETATM    2  N           1     -23.427  -4.824 -11.364  0.00  0.00    -0.064 N 
HETATM    3  H           1     -23.320  -4.527 -12.360  0.00  0.00     0.275 HD
HETATM    4  H           1     -22.679  -5.513 -11.124  0.00  0.00     0.275 HD
HETATM    5  H           1     -24.364  -5.266 -11.231  0.00  0.00     0.275 HD
ENDBRANCH   1   2
BRANCH   1   6
HETATM    6  C           1     -24.636  -3.383  -9.766  0.00  0.00     0.206 C 
BRANCH   6   7
HETATM    7  O           1     -25.249  -4.613  -9.485  0.00  0.00    -0.398 OA
HETATM    8  H           1     -25.643  -4.911 -10.287  0.00  0.00     0.209 HD
ENDBRANCH   6   7
ENDBRANCH   1   6
BRANCH   1   9
HETATM    9  C           1     -22.232  -3.875  -9.439  0.00  0.00     0.250 C 
HETATM   10  O           1     -21.109  -4.150  -9.791  0.00  0.00    -0.271 OA
HETATM   11  N           1     -22.529  -3.791  -8.105  0.00  0.00    -0.349 N 
HETATM   12  H           1     -23.470  -3.561  -7.810  0.00  0.00     0.163 HD
BRANCH  11  13
HETATM   13  C           1     -21.496  -4.030  -7.115  0.00  0.00     0.235 C 
BRANCH  13  14
HETATM   14  C           1     -21.622  -5.436  -6.586  0.00  0.00     0.191 C 
HETATM   15  O           1     -22.383  -5.676  -5.623  0.00  0.00    -0.647 OA
HETATM   16  O           1     -20.966  -6.363  -7.110  0.00  0.00    -0.647 OA
ENDBRANCH  13  14
ENDBRANCH  11  13
ENDBRANCH   1   9
TORSDOF 6
ENDMDL
MODEL 3
REMARK VINA RESULT:      -4.4     13.372     14.776
REMARK  6 active torsions:
REMARK  status: ('A' for Active; 'I' for Inactive)
REMARK    1  A    between atoms: N_2  and  C_5 
REMARK    2  A    between atoms: O_3  and  C_4 
REMARK    3  A    between atoms: C_4  and  C_5 
REMARK    4  A    between atoms: C_5  and  C_6 
REMARK       I    between atoms: C_6  and  N_7 
REMARK    5  A    between atoms: N_7  and  C_9 
REMARK    6  A    between atoms: C_9  and  C_15 
ROOT
HETATM    1  C           1     -20.550  -4.590  -6.951  0.00  0.00     0.297 C 
ENDROOT
BRANCH   1   2
HETATM    2  N           1     -20.384  -4.453  -5.467  0.00  0.00    -0.064 N 
HETATM    3  H           1     -19.377  -4.572  -5.216  0.00  0.00     0.275 HD
HETATM    4  H           1     -20.707  -3.505  -5.167  0.00  0.00     0.275 HD
HETATM    5  H           1     -20.952  -5.184  -4.983  0.00  0.00     0.275 HD
ENDBRANCH   1   2
BRANCH   1   6
HETATM    6  C           1     -20.015  -5.944  -7.398  0.00  0.00     0.206 C 
BRANCH   6   7
HETATM    7  O           1     -20.834  -6.962  -6.889  0.00  0.00    -0.398 OA
HETATM    8  H           1     -20.265  -7.599  -6.493  0.00  0.00     0.209 HD
ENDBRANCH   6   7
ENDBRANCH   1   6
BRANCH   1   9
HETATM    9  C           1     -22.014  -4.486  -7.304  0.00  0.00     0.250 C 
HETATM   10  O           1     -22.855  -4.779  -6.488  0.00  0.00    -0.271 OA
HETATM   11  N           1     -22.389  -4.060  -8.550  0.00  0.00    -0.349 N 
HETATM   12  H           1     -21.684  -3.815  -9.234  0.00  0.00     0.163 HD
BRANCH  11  13
HETATM   13  C           1     -23.795  -3.960  -8.890  0.00  0.00     0.235 C 
BRANCH  13  14
HETATM   14  C           1     -23.938  -3.431 -10.295  0.00  0.00     0.191 C 
HETATM   15  O           1     -25.072  -3.183 -10.758  0.00  0.00    -0.647 OA
HETATM   16  O           1     -22.921  -3.240 -10.997  0.00  0.00    -0.647 OA
ENDBRANCH  13  14
ENDBRANCH  11  13
ENDBRANCH   1   9
TORSDOF 6
ENDMDL
MODEL 4
REMARK VINA RESULT:      -4.4      1.880      2.541
REMARK  6 active torsions:
REMARK  status: ('A' for Active; 'I' for Inactive)
REMARK    1  A    between atoms: N_2  and  C_5 
REMARK    2  A    between atoms: O_3  and  C_4 
REMARK    3  A    between atoms: C_4  and  C_5 
REMARK    4  A    between atoms: C_5  and  C_6 
REMARK       I    between atoms: C_6  and  N_7 
REMARK    5  A    between atoms: N_7  and  C_9 
REMARK    6  A    between atoms: C_9  and  C_15 
ROOT
HETATM    1  C           1     -33.751  -2.864 -11.371  0.00  0.00     0.297 C 
ENDROOT
BRANCH   1   2
HETATM    2  N           1     -33.541  -1.826 -10.308  0.00  0.00    -0.064 N 
HETATM    3  H           1     -33.845  -0.893 -10.667  0.00  0.00     0.275 HD
HETATM    4  H           1     -34.105  -2.075  -9.464  0.00  0.00     0.275 HD
HETATM    5  H           1     -32.530  -1.788 -10.053  0.00  0.00     0.275 HD
ENDBRANCH   1   2
BRANCH   1   6
HETATM    6  C           1     -34.505  -4.049 -10.780  0.00  0.00     0.206 C 
BRANCH   6   7
HETATM    7  O           1     -35.883  -3.864 -10.959  0.00  0.00    -0.398 OA
HETATM    8  H           1     -36.066  -4.031 -11.867  0.00  0.00     0.209 HD
ENDBRANCH   6   7
ENDBRANCH   1   6
BRANCH   1   9
HETATM    9  C           1     -34.555  -2.270 -12.501  0.00  0.00     0.250 C 
HETATM   10  O           1     -34.648  -2.859 -13.552  0.00  0.00    -0.271 OA
HETATM   11  N           1     -35.180  -1.063 -12.336  0.00  0.00    -0.349 N 
HETATM   12  H           1     -35.102  -0.569 -11.456  0.00  0.00     0.163 HD
BRANCH  11  13
HETATM   13  C           1     -35.952  -0.491 -13.423  0.00  0.00     0.235 C 
BRANCH  13  14
HETATM   14  C           1     -35.072   0.418 -14.243  0.00  0.00     0.191 C 
HETATM   15  O           1     -34.681   0.057 -15.373  0.00  0.00    -0.647 OA
HETATM   16  O           1     -34.733   1.534 -13.791  0.00  0.00    -0.647 OA
ENDBRANCH  13  14
ENDBRANCH  11  13
ENDBRANCH   1   9
TORSDOF 6
ENDMDL
MODEL 5
REMARK VINA RESULT:      -4.2     13.527     14.923
REMARK  6 active torsions:
REMARK  status: ('A' for Active; 'I' for Inactive)
REMARK    1  A    between atoms: N_2  and  C_5 
REMARK    2  A    between atoms: O_3  and  C_4 
REMARK    3  A    between atoms: C_4  and  C_5 
REMARK    4  A    between atoms: C_5  and  C_6 
REMARK       I    between atoms: C_6  and  N_7 
REMARK    5  A    between atoms: N_7  and  C_9 
REMARK    6  A    between atoms: C_9  and  C_15 
ROOT
HETATM    1  C           1     -21.191  -5.814  -7.024  0.00  0.00     0.297 C 
ENDROOT
BRANCH   1   2
HETATM    2  N           1     -19.823  -6.125  -7.556  0.00  0.00    -0.064 N 
HETATM    3  H           1     -19.129  -5.461  -7.143  0.00  0.00     0.275 HD
HETATM    4  H           1     -19.564  -7.104  -7.297  0.00  0.00     0.275 HD
HETATM    5  H           1     -19.822  -6.026  -8.595  0.00  0.00     0.275 HD
ENDBRANCH   1   2
BRANCH   1   6
HETATM    6  C           1     -21.102  -5.531  -5.530  0.00  0.00     0.206 C 
BRANCH   6   7
HETATM    7  O           1     -19.994  -4.711  -5.274  0.00  0.00    -0.398 OA
HETATM    8  H           1     -19.607  -5.017  -4.472  0.00  0.00     0.209 HD
ENDBRANCH   6   7
ENDBRANCH   1   6
BRANCH   1   9
HETATM    9  C           1     -21.741  -4.601  -7.734  0.00  0.00     0.250 C 
HETATM   10  O           1     -21.615  -3.505  -7.243  0.00  0.00    -0.271 OA
HETATM   11  N           1     -22.385  -4.744  -8.934  0.00  0.00    -0.349 N 
HETATM   12  H           1     -22.490  -5.662  -9.345  0.00  0.00     0.163 HD
BRANCH  11  13
HETATM   13  C           1     -22.914  -3.578  -9.616  0.00  0.00     0.235 C 
BRANCH  13  14
HETATM   14  C           1     -23.988  -4.006 -10.584  0.00  0.00     0.191 C 
HETATM   15  O           1     -24.948  -3.244 -10.831  0.00  0.00    -0.647 OA
HETATM   16  O           1     -23.920  -5.124 -11.141  0.00  0.00    -0.647 OA
ENDBRANCH  13  14
ENDBRANCH  11  13
ENDBRANCH   1   9
TORSDOF 6
ENDMDL
MODEL 6
REMARK VINA RESULT:      -4.1     13.492     15.372
REMARK  6 active torsions:
REMARK  status: ('A' for Active; 'I' for Inactive)
REMARK    1  A    between atoms: N_2  and  C_5 
REMARK    2  A    between atoms: O_3  and  C_4 
REMARK    3  A    between atoms: C_4  and  C_5 
REMARK    4  A    between atoms: C_5  and  C_6 
REMARK       I    between atoms: C_6  and  N_7 
REMARK    5  A    between atoms: N_7  and  C_9 
REMARK    6  A    between atoms: C_9  and  C_15 
ROOT
HETATM    1  C           1     -23.831  -4.378  -9.295  0.00  0.00     0.297 C 
ENDROOT
BRANCH   1   2
HETATM    2  N           1     -24.725  -3.174  -9.301  0.00  0.00    -0.064 N 
HETATM    3  H           1     -24.441  -2.533 -10.076  0.00  0.00     0.275 HD
HETATM    4  H           1     -25.715  -3.477  -9.446  0.00  0.00     0.275 HD
HETATM    5  H           1     -24.644  -2.674  -8.388  0.00  0.00     0.275 HD
ENDBRANCH   1   2
BRANCH   1   6
HETATM    6  C           1     -23.002  -4.402 -10.573  0.00  0.00     0.206 C 
BRANCH   6   7
HETATM    7  O           1     -22.683  -3.089 -10.947  0.00  0.00    -0.398 OA
HETATM    8  H           1     -23.308  -2.524 -10.527  0.00  0.00     0.209 HD
ENDBRANCH   6   7
ENDBRANCH   1   6
BRANCH   1   9
HETATM    9  C           1     -22.912  -4.314  -8.100  0.00  0.00     0.250 C 
HETATM   10  O           1     -23.353  -4.482  -6.988  0.00  0.00    -0.271 OA
HETATM   11  N           1     -21.576  -4.066  -8.277  0.00  0.00    -0.349 N 
HETATM   12  H           1     -21.207  -3.925  -9.208  0.00  0.00     0.163 HD
BRANCH  11  13
HETATM   13  C           1     -20.692  -4.004  -7.128  0.00  0.00     0.235 C 
BRANCH  13  14
HETATM   14  C           1     -20.257  -5.398  -6.753  0.00  0.00     0.191 C 
HETATM   15  O           1     -19.911  -6.206  -7.642  0.00  0.00    -0.647 OA
HETATM   16  O           1     -20.242  -5.747  -5.552  0.00  0.00    -0.647 OA
ENDBRANCH  13  14
ENDBRANCH  11  13
ENDBRANCH   1   9
TORSDOF 6
ENDMDL
MODEL 7
REMARK VINA RESULT:      -4.0     13.963     15.883
REMARK  6 active torsions:
REMARK  status: ('A' for Active; 'I' for Inactive)
REMARK    1  A    between atoms: N_2  and  C_5 
REMARK    2  A    between atoms: O_3  and  C_4 
REMARK    3  A    between atoms: C_4  and  C_5 
REMARK    4  A    between atoms: C_5  and  C_6 
REMARK       I    between atoms: C_6  and  N_7 
REMARK    5  A    between atoms: N_7  and  C_9 
REMARK    6  A    between atoms: C_9  and  C_15 
ROOT
HETATM    1  C           1     -21.979  -3.635 -10.551  0.00  0.00     0.297 C 
ENDROOT
BRANCH   1   2
HETATM    2  N           1     -21.169  -3.227 -11.746  0.00  0.00    -0.064 N 
HETATM    3  H           1     -21.783  -2.731 -12.431  0.00  0.00     0.275 HD
HETATM    4  H           1     -20.400  -2.587 -11.442  0.00  0.00     0.275 HD
HETATM    5  H           1     -20.760  -4.075 -12.197  0.00  0.00     0.275 HD
ENDBRANCH   1   2
BRANCH   1   6
HETATM    6  C           1     -23.162  -4.480 -11.006  0.00  0.00     0.206 C 
BRANCH   6   7
HETATM    7  O           1     -23.065  -4.718 -12.384  0.00  0.00    -0.398 OA
HETATM    8  H           1     -23.349  -5.603 -12.530  0.00  0.00     0.209 HD
ENDBRANCH   6   7
ENDBRANCH   1   6
BRANCH   1   9
HETATM    9  C           1     -21.116  -4.441  -9.612  0.00  0.00     0.250 C 
HETATM   10  O           1     -19.982  -4.720  -9.922  0.00  0.00    -0.271 OA
HETATM   11  N           1     -21.619  -4.856  -8.407  0.00  0.00    -0.349 N 
HETATM   12  H           1     -22.568  -4.622  -8.148  0.00  0.00     0.163 HD
BRANCH  11  13
HETATM   13  C           1     -20.790  -5.631  -7.504  0.00  0.00     0.235 C 
BRANCH  13  14
HETATM   14  C           1     -21.120  -5.265  -6.079  0.00  0.00     0.191 C 
HETATM   15  O           1     -22.197  -5.642  -5.570  0.00  0.00    -0.647 OA
HETATM   16  O           1     -20.315  -4.584  -5.406  0.00  0.00    -0.647 OA
ENDBRANCH  13  14
ENDBRANCH  11  13
ENDBRANCH   1   9
TORSDOF 6
ENDMDL
MODEL 8
REMARK VINA RESULT:      -3.8     16.785     17.518
REMARK  6 active torsions:
REMARK  status: ('A' for Active; 'I' for Inactive)
REMARK    1  A    between atoms: N_2  and  C_5 
REMARK    2  A    between atoms: O_3  and  C_4 
REMARK    3  A    between atoms: C_4  and  C_5 
REMARK    4  A    between atoms: C_5  and  C_6 
REMARK       I    between atoms: C_6  and  N_7 
REMARK    5  A    between atoms: N_7  and  C_9 
REMARK    6  A    between atoms: C_9  and  C_15 
ROOT
HETATM    1  C           1     -21.314  -6.480  -3.021  0.00  0.00     0.297 C 
ENDROOT
BRANCH   1   2
HETATM    2  N           1     -22.431  -5.922  -2.189  0.00  0.00    -0.064 N 
HETATM    3  H           1     -22.121  -5.849  -1.194  0.00  0.00     0.275 HD
HETATM    4  H           1     -22.687  -4.973  -2.544  0.00  0.00     0.275 HD
HETATM    5  H           1     -23.260  -6.553  -2.249  0.00  0.00     0.275 HD
ENDBRANCH   1   2
BRANCH   1   6
HETATM    6  C           1     -21.190  -7.976  -2.765  0.00  0.00     0.206 C 
BRANCH   6   7
HETATM    7  O           1     -21.610  -8.682  -3.901  0.00  0.00    -0.398 OA
HETATM    8  H           1     -22.335  -8.206  -4.267  0.00  0.00     0.209 HD
ENDBRANCH   6   7
ENDBRANCH   1   6
BRANCH   1   9
HETATM    9  C           1     -21.610  -6.243  -4.481  0.00  0.00     0.250 C 
HETATM   10  O           1     -22.754  -6.142  -4.858  0.00  0.00    -0.271 OA
HETATM   11  N           1     -20.582  -6.141  -5.380  0.00  0.00    -0.349 N 
HETATM   12  H           1     -19.624  -6.226  -5.065  0.00  0.00     0.163 HD
BRANCH  11  13
HETATM   13  C           1     -20.866  -5.913  -6.784  0.00  0.00     0.235 C 
BRANCH  13  14
HETATM   14  C           1     -20.418  -4.526  -7.170  0.00  0.00     0.191 C 
HETATM   15  O           1     -19.266  -4.343  -7.618  0.00  0.00    -0.647 OA
HETATM   16  O           1     -21.199  -3.558  -7.041  0.00  0.00    -0.647 OA
ENDBRANCH  13  14
ENDBRANCH  11  13
ENDBRANCH   1   9
TORSDOF 6
ENDMDL
MODEL 9
REMARK VINA RESULT:      -3.7     17.738     19.396
REMARK  6 active torsions:
REMARK  status: ('A' for Active; 'I' for Inactive)
REMARK    1  A    between atoms: N_2  and  C_5 
REMARK    2  A    between atoms: O_3  and  C_4 
REMARK    3  A    between atoms: C_4  and  C_5 
REMARK    4  A    between atoms: C_5  and  C_6 
REMARK       I    between atoms: C_6  and  N_7 
REMARK    5  A    between atoms: N_7  and  C_9 
REMARK    6  A    between atoms: C_9  and  C_15 
ROOT
HETATM    1  C           1     -20.559  -7.635  -4.617  0.00  0.00     0.297 C 
ENDROOT
BRANCH   1   2
HETATM    2  N           1     -20.823  -8.560  -5.768  0.00  0.00    -0.064 N 
HETATM    3  H           1     -21.330  -9.407  -5.425  0.00  0.00     0.275 HD
HETATM    4  H           1     -21.408  -8.069  -6.481  0.00  0.00     0.275 HD
HETATM    5  H           1     -19.916  -8.848  -6.198  0.00  0.00     0.275 HD
ENDBRANCH   1   2
BRANCH   1   6
HETATM    6  C           1     -21.289  -6.318  -4.848  0.00  0.00     0.206 C 
BRANCH   6   7
HETATM    7  O           1     -22.311  -6.176  -3.898  0.00  0.00    -0.398 OA
HETATM    8  H           1     -23.122  -6.132  -4.373  0.00  0.00     0.209 HD
ENDBRANCH   6   7
ENDBRANCH   1   6
BRANCH   1   9
HETATM    9  C           1     -21.054  -8.268  -3.340  0.00  0.00     0.250 C 
HETATM   10  O           1     -21.782  -9.231  -3.386  0.00  0.00    -0.271 OA
HETATM   11  N           1     -20.679  -7.750  -2.129  0.00  0.00    -0.349 N 
HETATM   12  H           1     -20.070  -6.943  -2.091  0.00  0.00     0.163 HD
BRANCH  11  13
HETATM   13  C           1     -21.155  -8.358  -0.901  0.00  0.00     0.235 C 
BRANCH  13  14
HETATM   14  C           1     -22.372  -7.614  -0.410  0.00  0.00     0.191 C 
HETATM   15  O           1     -22.709  -6.540  -0.952  0.00  0.00    -0.647 OA
HETATM   16  O           1     -23.043  -8.072   0.541  0.00  0.00    -0.647 OA
ENDBRANCH  13  14
ENDBRANCH  11  13
ENDBRANCH   1   9
TORSDOF 6
ENDMDL
