MODEL 1
REMARK VINA RESULT:      -6.9      0.000      0.000
REMARK  10 active torsions:
REMARK  status: ('A' for Active; 'I' for Inactive)
REMARK    1  A    between atoms: N_7  and  C_21 
REMARK       I    between atoms: N_7  and  C_8 
REMARK    2  A    between atoms: C_8  and  C_9 
REMARK    3  A    between atoms: C_9  and  C_10 
REMARK    4  A    between atoms: C_9  and  N_14 
REMARK    5  A    between atoms: C_10  and  C_11 
REMARK       I    between atoms: C_11  and  N_12 
REMARK    6  A    between atoms: C_19  and  C_21 
REMARK    7  A    between atoms: C_21  and  C_22 
REMARK    8  A    between atoms: C_22  and  O_23 
REMARK    9  A    between atoms: O_23  and  P_24 
REMARK   10  A    between atoms: P_24  and  O_26 
ROOT
HETATM    1  N           1     -34.890  -1.643 -12.980  0.00  0.00    -0.343 N 
HETATM    2  C           1     -34.294  -2.576 -12.176  0.00  0.00     0.249 C 
HETATM    3  O           1     -33.828  -2.246 -11.111  0.00  0.00    -0.271 OA
HETATM    4  H           1     -35.281  -1.919 -13.872  0.00  0.00     0.163 HD
ENDROOT
BRANCH   1   5
HETATM    5  C           1     -34.963  -0.259 -12.555  0.00  0.00     0.210 C 
BRANCH   5   6
HETATM    6  C           1     -36.233  -0.041 -11.770  0.00  0.00     0.198 C 
HETATM    7  O           1     -37.326  -0.447 -12.222  0.00  0.00    -0.646 OA
HETATM    8  O           1     -36.193   0.546 -10.668  0.00  0.00    -0.646 OA
ENDBRANCH   5   6
BRANCH   5   9
HETATM    9  C           1     -34.960   0.647 -13.779  0.00  0.00     0.217 C 
BRANCH   9  10
HETATM   10  O           1     -34.947  -0.136 -14.942  0.00  0.00    -0.287 OA
BRANCH  10  11
HETATM   11  P           1     -36.303  -0.124 -15.820  0.00  0.00     0.406 P 
HETATM   12  O           1     -36.685   1.274 -16.118  0.00  0.00    -0.624 OA
HETATM   13  O           1     -36.077  -0.855 -17.086  0.00  0.00    -0.624 OA
BRANCH  11  14
HETATM   14  O           1     -37.487  -0.842 -14.989  0.00  0.00    -0.300 OA
HETATM   15  H           1     -37.466  -0.437 -14.137  0.00  0.00     0.223 HD
ENDBRANCH  11  14
ENDBRANCH  10  11
ENDBRANCH   9  10
ENDBRANCH   5   9
ENDBRANCH   1   5
BRANCH   2  16
HETATM   16  C           1     -34.218  -4.016 -12.618  0.00  0.00     0.283 C 
BRANCH  16  17
HETATM   17  C           1     -33.455  -4.829 -11.580  0.00  0.00     0.145 C 
BRANCH  17  18
HETATM   18  C           1     -34.293  -6.007 -11.147  0.00  0.00     0.217 C 
HETATM   19  N           1     -34.978  -6.738 -12.080  0.00  0.00    -0.370 N 
HETATM   20  H           1     -35.539  -7.529 -11.790  0.00  0.00     0.159 HD
HETATM   21  H           1     -34.922  -6.490 -13.059  0.00  0.00     0.159 HD
HETATM   22  O           1     -34.359  -6.304  -9.978  0.00  0.00    -0.274 OA
ENDBRANCH  17  18
ENDBRANCH  16  17
BRANCH  16  23
HETATM   23  N           1     -33.507  -4.097 -13.937  0.00  0.00    -0.066 N 
HETATM   24  H           1     -33.003  -3.199 -14.116  0.00  0.00     0.275 HD
HETATM   25  H           1     -32.819  -4.883 -13.912  0.00  0.00     0.275 HD
HETATM   26  H           1     -34.201  -4.265 -14.698  0.00  0.00     0.275 HD
ENDBRANCH  16  23
ENDBRANCH   2  16
TORSDOF 10
ENDMDL
MODEL 2
REMARK VINA RESULT:      -6.7      9.564     11.528
REMARK  10 active torsions:
REMARK  status: ('A' for Active; 'I' for Inactive)
REMARK    1  A    between atoms: N_7  and  C_21 
REMARK       I    between atoms: N_7  and  C_8 
REMARK    2  A    between atoms: C_8  and  C_9 
REMARK    3  A    between atoms: C_9  and  C_10 
REMARK    4  A    between atoms: C_9  and  N_14 
REMARK    5  A    between atoms: C_10  and  C_11 
REMARK       I    between atoms: C_11  and  N_12 
REMARK    6  A    between atoms: C_19  and  C_21 
REMARK    7  A    between atoms: C_21  and  C_22 
REMARK    8  A    between atoms: C_22  and  O_23 
REMARK    9  A    between atoms: O_23  and  P_24 
REMARK   10  A    between atoms: P_24  and  O_26 
ROOT
HETATM    1  N           1     -27.975  -7.022 -18.953  0.00  0.00    -0.343 N 
HETATM    2  C           1     -28.865  -6.016 -18.688  0.00  0.00     0.249 C 
HETATM    3  O           1     -28.626  -4.887 -19.046  0.00  0.00    -0.271 OA
HETATM    4  H           1     -28.176  -7.967 -18.654  0.00  0.00     0.163 HD
ENDROOT
BRANCH   1   5
HETATM    5  C           1     -26.746  -6.733 -19.666  0.00  0.00     0.210 C 
BRANCH   5   6
HETATM    6  C           1     -26.512  -7.793 -20.714  0.00  0.00     0.198 C 
HETATM    7  O           1     -25.359  -7.996 -21.152  0.00  0.00    -0.646 OA
HETATM    8  O           1     -27.472  -8.467 -21.146  0.00  0.00    -0.646 OA
ENDBRANCH   5   6
BRANCH   5   9
HETATM    9  C           1     -25.582  -6.724 -18.684  0.00  0.00     0.217 C 
BRANCH   9  10
HETATM   10  O           1     -25.998  -6.161 -17.469  0.00  0.00    -0.287 OA
BRANCH  10  11
HETATM   11  P           1     -25.393  -6.836 -16.132  0.00  0.00     0.406 P 
HETATM   12  O           1     -26.492  -7.427 -15.336  0.00  0.00    -0.624 OA
HETATM   13  O           1     -24.430  -7.894 -16.505  0.00  0.00    -0.624 OA
BRANCH  11  14
HETATM   14  O           1     -24.638  -5.708 -15.256  0.00  0.00    -0.300 OA
HETATM   15  H           1     -25.326  -5.257 -14.795  0.00  0.00     0.223 HD
ENDBRANCH  11  14
ENDBRANCH  10  11
ENDBRANCH   9  10
ENDBRANCH   5   9
ENDBRANCH   1   5
BRANCH   2  16
HETATM   16  C           1     -30.144  -6.317 -17.946  0.00  0.00     0.283 C 
BRANCH  16  17
HETATM   17  C           1     -30.247  -5.415 -16.722  0.00  0.00     0.145 C 
BRANCH  17  18
HETATM   18  C           1     -31.256  -4.323 -16.986  0.00  0.00     0.217 C 
HETATM   19  N           1     -30.910  -3.244 -17.754  0.00  0.00    -0.370 N 
HETATM   20  H           1     -31.586  -2.512 -17.932  0.00  0.00     0.159 HD
HETATM   21  H           1     -29.979  -3.179 -18.145  0.00  0.00     0.159 HD
HETATM   22  O           1     -32.367  -4.402 -16.519  0.00  0.00    -0.274 OA
ENDBRANCH  17  18
ENDBRANCH  16  17
BRANCH  16  23
HETATM   23  N           1     -30.143  -7.752 -17.509  0.00  0.00    -0.066 N 
HETATM   24  H           1     -30.961  -7.926 -16.881  0.00  0.00     0.275 HD
HETATM   25  H           1     -30.212  -8.370 -18.349  0.00  0.00     0.275 HD
HETATM   26  H           1     -29.259  -7.959 -16.995  0.00  0.00     0.275 HD
ENDBRANCH  16  23
ENDBRANCH   2  16
TORSDOF 10
ENDMDL
MODEL 3
REMARK VINA RESULT:      -6.6     10.075     11.499
REMARK  10 active torsions:
REMARK  status: ('A' for Active; 'I' for Inactive)
REMARK    1  A    between atoms: N_7  and  C_21 
REMARK       I    between atoms: N_7  and  C_8 
REMARK    2  A    between atoms: C_8  and  C_9 
REMARK    3  A    between atoms: C_9  and  C_10 
REMARK    4  A    between atoms: C_9  and  N_14 
REMARK    5  A    between atoms: C_10  and  C_11 
REMARK       I    between atoms: C_11  and  N_12 
REMARK    6  A    between atoms: C_19  and  C_21 
REMARK    7  A    between atoms: C_21  and  C_22 
REMARK    8  A    between atoms: C_22  and  O_23 
REMARK    9  A    between atoms: O_23  and  P_24 
REMARK   10  A    between atoms: P_24  and  O_26 
ROOT
HETATM    1  N           1     -26.933  -6.283 -17.810  0.00  0.00    -0.343 N 
HETATM    2  C           1     -25.907  -6.562 -18.672  0.00  0.00     0.249 C 
HETATM    3  O           1     -24.762  -6.480 -18.295  0.00  0.00    -0.271 OA
HETATM    4  H           1     -27.892  -6.353 -18.126  0.00  0.00     0.163 HD
ENDROOT
BRANCH   1   5
HETATM    5  C           1     -26.647  -5.891 -16.444  0.00  0.00     0.210 C 
BRANCH   5   6
HETATM    6  C           1     -26.439  -7.125 -15.600  0.00  0.00     0.198 C 
HETATM    7  O           1     -27.423  -7.727 -15.119  0.00  0.00    -0.646 OA
HETATM    8  O           1     -25.282  -7.545 -15.382  0.00  0.00    -0.646 OA
ENDBRANCH   5   6
BRANCH   5   9
HETATM    9  C           1     -27.818  -5.089 -15.892  0.00  0.00     0.217 C 
BRANCH   9  10
HETATM   10  O           1     -28.045  -3.971 -16.706  0.00  0.00    -0.287 OA
BRANCH  10  11
HETATM   11  P           1     -29.459  -3.938 -17.487  0.00  0.00     0.406 P 
HETATM   12  O           1     -29.308  -4.586 -18.808  0.00  0.00    -0.624 OA
HETATM   13  O           1     -30.477  -4.663 -16.695  0.00  0.00    -0.624 OA
BRANCH  11  14
HETATM   14  O           1     -29.926  -2.405 -17.687  0.00  0.00    -0.300 OA
HETATM   15  H           1     -30.418  -2.403 -18.491  0.00  0.00     0.223 HD
ENDBRANCH  11  14
ENDBRANCH  10  11
ENDBRANCH   9  10
ENDBRANCH   5   9
ENDBRANCH   1   5
BRANCH   2  16
HETATM   16  C           1     -26.205  -6.970 -20.093  0.00  0.00     0.283 C 
BRANCH  16  17
HETATM   17  C           1     -25.037  -6.580 -20.991  0.00  0.00     0.145 C 
BRANCH  17  18
HETATM   18  C           1     -24.349  -7.827 -21.490  0.00  0.00     0.217 C 
HETATM   19  N           1     -23.537  -8.543 -20.652  0.00  0.00    -0.370 N 
HETATM   20  H           1     -23.076  -9.379 -20.986  0.00  0.00     0.159 HD
HETATM   21  H           1     -23.399  -8.236 -19.697  0.00  0.00     0.159 HD
HETATM   22  O           1     -24.514  -8.193 -22.630  0.00  0.00    -0.274 OA
ENDBRANCH  17  18
ENDBRANCH  16  17
BRANCH  16  23
HETATM   23  N           1     -27.449  -6.274 -20.563  0.00  0.00    -0.066 N 
HETATM   24  H           1     -28.285  -6.718 -20.121  0.00  0.00     0.275 HD
HETATM   25  H           1     -27.406  -5.266 -20.292  0.00  0.00     0.275 HD
HETATM   26  H           1     -27.521  -6.353 -21.602  0.00  0.00     0.275 HD
ENDBRANCH  16  23
ENDBRANCH   2  16
TORSDOF 10
ENDMDL
MODEL 4
REMARK VINA RESULT:      -6.4      9.783     11.347
REMARK  10 active torsions:
REMARK  status: ('A' for Active; 'I' for Inactive)
REMARK    1  A    between atoms: N_7  and  C_21 
REMARK       I    between atoms: N_7  and  C_8 
REMARK    2  A    between atoms: C_8  and  C_9 
REMARK    3  A    between atoms: C_9  and  C_10 
REMARK    4  A    between atoms: C_9  and  N_14 
REMARK    5  A    between atoms: C_10  and  C_11 
REMARK       I    between atoms: C_11  and  N_12 
REMARK    6  A    between atoms: C_19  and  C_21 
REMARK    7  A    between atoms: C_21  and  C_22 
REMARK    8  A    between atoms: C_22  and  O_23 
REMARK    9  A    between atoms: O_23  and  P_24 
REMARK   10  A    between atoms: P_24  and  O_26 
ROOT
HETATM    1  N           1     -27.185  -5.775 -17.661  0.00  0.00    -0.343 N 
HETATM    2  C           1     -28.436  -5.907 -17.121  0.00  0.00     0.249 C 
HETATM    3  O           1     -28.714  -6.889 -16.474  0.00  0.00    -0.271 OA
HETATM    4  H           1     -26.952  -4.952 -18.203  0.00  0.00     0.163 HD
ENDROOT
BRANCH   1   5
HETATM    5  C           1     -26.193  -6.812 -17.455  0.00  0.00     0.210 C 
BRANCH   5   6
HETATM    6  C           1     -25.548  -6.629 -16.103  0.00  0.00     0.198 C 
HETATM    7  O           1     -25.653  -7.522 -15.235  0.00  0.00    -0.646 OA
HETATM    8  O           1     -24.908  -5.585 -15.853  0.00  0.00    -0.646 OA
ENDBRANCH   5   6
BRANCH   5   9
HETATM    9  C           1     -25.131  -6.719 -18.542  0.00  0.00     0.217 C 
BRANCH   9  10
HETATM   10  O           1     -25.750  -6.672 -19.800  0.00  0.00    -0.287 OA
BRANCH  10  11
HETATM   11  P           1     -25.119  -7.631 -20.936  0.00  0.00     0.406 P 
HETATM   12  O           1     -26.161  -8.555 -21.436  0.00  0.00    -0.624 OA
HETATM   13  O           1     -24.614  -6.805 -22.054  0.00  0.00    -0.624 OA
BRANCH  11  14
HETATM   14  O           1     -23.900  -8.482 -20.304  0.00  0.00    -0.300 OA
HETATM   15  H           1     -23.286  -8.589 -21.010  0.00  0.00     0.223 HD
ENDBRANCH  11  14
ENDBRANCH  10  11
ENDBRANCH   9  10
ENDBRANCH   5   9
ENDBRANCH   1   5
BRANCH   2  16
HETATM   16  C           1     -29.468  -4.827 -17.336  0.00  0.00     0.283 C 
BRANCH  16  17
HETATM   17  C           1     -30.861  -5.401 -17.104  0.00  0.00     0.145 C 
BRANCH  17  18
HETATM   18  C           1     -31.842  -4.273 -16.900  0.00  0.00     0.217 C 
HETATM   19  N           1     -32.908  -4.438 -16.057  0.00  0.00    -0.370 N 
HETATM   20  H           1     -33.566  -3.681 -15.919  0.00  0.00     0.159 HD
HETATM   21  H           1     -33.038  -5.316 -15.572  0.00  0.00     0.159 HD
HETATM   22  O           1     -31.686  -3.224 -17.479  0.00  0.00    -0.274 OA
ENDBRANCH  17  18
ENDBRANCH  16  17
BRANCH  16  23
HETATM   23  N           1     -29.368  -4.312 -18.741  0.00  0.00    -0.066 N 
HETATM   24  H           1     -28.379  -4.388 -19.070  0.00  0.00     0.275 HD
HETATM   25  H           1     -29.987  -4.879 -19.363  0.00  0.00     0.275 HD
HETATM   26  H           1     -29.669  -3.312 -18.768  0.00  0.00     0.275 HD
ENDBRANCH  16  23
ENDBRANCH   2  16
TORSDOF 10
ENDMDL
MODEL 5
REMARK VINA RESULT:      -6.1      9.334     10.969
REMARK  10 active torsions:
REMARK  status: ('A' for Active; 'I' for Inactive)
REMARK    1  A    between atoms: N_7  and  C_21 
REMARK       I    between atoms: N_7  and  C_8 
REMARK    2  A    between atoms: C_8  and  C_9 
REMARK    3  A    between atoms: C_9  and  C_10 
REMARK    4  A    between atoms: C_9  and  N_14 
REMARK    5  A    between atoms: C_10  and  C_11 
REMARK       I    between atoms: C_11  and  N_12 
REMARK    6  A    between atoms: C_19  and  C_21 
REMARK    7  A    between atoms: C_21  and  C_22 
REMARK    8  A    between atoms: C_22  and  O_23 
REMARK    9  A    between atoms: O_23  and  P_24 
REMARK   10  A    between atoms: P_24  and  O_26 
ROOT
HETATM    1  N           1     -28.638  -6.032 -17.423  0.00  0.00    -0.343 N 
HETATM    2  C           1     -29.799  -6.687 -17.733  0.00  0.00     0.249 C 
HETATM    3  O           1     -29.765  -7.841 -18.088  0.00  0.00    -0.271 OA
HETATM    4  H           1     -28.667  -5.065 -17.125  0.00  0.00     0.163 HD
ENDROOT
BRANCH   1   5
HETATM    5  C           1     -27.368  -6.723 -17.518  0.00  0.00     0.210 C 
BRANCH   5   6
HETATM    6  C           1     -26.610  -6.562 -16.223  0.00  0.00     0.198 C 
HETATM    7  O           1     -25.858  -5.577 -16.057  0.00  0.00    -0.646 OA
HETATM    8  O           1     -26.733  -7.413 -15.317  0.00  0.00    -0.646 OA
ENDBRANCH   5   6
BRANCH   5   9
HETATM    9  C           1     -26.554  -6.130 -18.660  0.00  0.00     0.217 C 
BRANCH   9  10
HETATM   10  O           1     -26.741  -6.900 -19.817  0.00  0.00    -0.287 OA
BRANCH  10  11
HETATM   11  P           1     -25.404  -7.278 -20.641  0.00  0.00     0.406 P 
HETATM   12  O           1     -25.011  -6.137 -21.497  0.00  0.00    -0.624 OA
HETATM   13  O           1     -24.310  -7.583 -19.692  0.00  0.00    -0.624 OA
BRANCH  11  14
HETATM   14  O           1     -25.690  -8.572 -21.563  0.00  0.00    -0.300 OA
HETATM   15  H           1     -25.294  -8.371 -22.395  0.00  0.00     0.223 HD
ENDBRANCH  11  14
ENDBRANCH  10  11
ENDBRANCH   9  10
ENDBRANCH   5   9
ENDBRANCH   1   5
BRANCH   2  16
HETATM   16  C           1     -31.122  -5.967 -17.634  0.00  0.00     0.283 C 
BRANCH  16  17
HETATM   17  C           1     -30.994  -4.798 -16.664  0.00  0.00     0.145 C 
BRANCH  17  18
HETATM   18  C           1     -31.118  -3.500 -17.423  0.00  0.00     0.217 C 
HETATM   19  N           1     -29.997  -2.774 -17.725  0.00  0.00    -0.370 N 
HETATM   20  H           1     -30.080  -1.904 -18.234  0.00  0.00     0.159 HD
HETATM   21  H           1     -29.086  -3.109 -17.439  0.00  0.00     0.159 HD
HETATM   22  O           1     -32.206  -3.101 -17.764  0.00  0.00    -0.274 OA
ENDBRANCH  17  18
ENDBRANCH  16  17
BRANCH  16  23
HETATM   23  N           1     -32.171  -6.916 -17.136  0.00  0.00    -0.066 N 
HETATM   24  H           1     -32.923  -6.379 -16.648  0.00  0.00     0.275 HD
HETATM   25  H           1     -32.583  -7.434 -17.945  0.00  0.00     0.275 HD
HETATM   26  H           1     -31.740  -7.594 -16.470  0.00  0.00     0.275 HD
ENDBRANCH  16  23
ENDBRANCH   2  16
TORSDOF 10
ENDMDL
MODEL 6
REMARK VINA RESULT:      -6.0     13.667     15.478
REMARK  10 active torsions:
REMARK  status: ('A' for Active; 'I' for Inactive)
REMARK    1  A    between atoms: N_7  and  C_21 
REMARK       I    between atoms: N_7  and  C_8 
REMARK    2  A    between atoms: C_8  and  C_9 
REMARK    3  A    between atoms: C_9  and  C_10 
REMARK    4  A    between atoms: C_9  and  N_14 
REMARK    5  A    between atoms: C_10  and  C_11 
REMARK       I    between atoms: C_11  and  N_12 
REMARK    6  A    between atoms: C_19  and  C_21 
REMARK    7  A    between atoms: C_21  and  C_22 
REMARK    8  A    between atoms: C_22  and  O_23 
REMARK    9  A    between atoms: O_23  and  P_24 
REMARK   10  A    between atoms: P_24  and  O_26 
ROOT
HETATM    1  N           1     -21.321  -5.066  -6.511  0.00  0.00    -0.343 N 
HETATM    2  C           1     -21.199  -6.318  -5.970  0.00  0.00     0.249 C 
HETATM    3  O           1     -21.253  -7.292  -6.683  0.00  0.00    -0.271 OA
HETATM    4  H           1     -21.276  -4.251  -5.913  0.00  0.00     0.163 HD
ENDROOT
BRANCH   1   5
HETATM    5  C           1     -21.513  -4.909  -7.939  0.00  0.00     0.210 C 
BRANCH   5   6
HETATM    6  C           1     -20.194  -4.569  -8.589  0.00  0.00     0.198 C 
HETATM    7  O           1     -20.107  -4.514  -9.834  0.00  0.00    -0.646 OA
HETATM    8  O           1     -19.189  -4.343  -7.881  0.00  0.00    -0.646 OA
ENDBRANCH   5   6
BRANCH   5   9
HETATM    9  C           1     -22.510  -3.787  -8.195  0.00  0.00     0.217 C 
BRANCH   9  10
HETATM   10  O           1     -23.645  -4.305  -8.833  0.00  0.00    -0.287 OA
BRANCH  10  11
HETATM   11  P           1     -23.777  -3.990 -10.412  0.00  0.00     0.406 P 
HETATM   12  O           1     -23.792  -5.262 -11.169  0.00  0.00    -0.624 OA
HETATM   13  O           1     -25.033  -3.251 -10.664  0.00  0.00    -0.624 OA
BRANCH  11  14
HETATM   14  O           1     -22.520  -3.093 -10.887  0.00  0.00    -0.300 OA
HETATM   15  H           1     -22.201  -2.686 -10.099  0.00  0.00     0.223 HD
ENDBRANCH  11  14
ENDBRANCH  10  11
ENDBRANCH   9  10
ENDBRANCH   5   9
ENDBRANCH   1   5
BRANCH   2  16
HETATM   16  C           1     -21.000  -6.481  -4.483  0.00  0.00     0.283 C 
BRANCH  16  17
HETATM   17  C           1     -20.567  -7.911  -4.181  0.00  0.00     0.145 C 
BRANCH  17  18
HETATM   18  C           1     -20.936  -8.258  -2.760  0.00  0.00     0.217 C 
HETATM   19  N           1     -21.639  -9.403  -2.496  0.00  0.00    -0.370 N 
HETATM   20  H           1     -21.886  -9.636  -1.543  0.00  0.00     0.159 HD
HETATM   21  H           1     -21.912 -10.015  -3.254  0.00  0.00     0.159 HD
HETATM   22  O           1     -20.609  -7.527  -1.855  0.00  0.00    -0.274 OA
ENDBRANCH  17  18
ENDBRANCH  16  17
BRANCH  16  23
HETATM   23  N           1     -22.288  -6.189  -3.771  0.00  0.00    -0.066 N 
HETATM   24  H           1     -22.471  -5.160  -3.790  0.00  0.00     0.275 HD
HETATM   25  H           1     -23.070  -6.691  -4.248  0.00  0.00     0.275 HD
HETATM   26  H           1     -22.218  -6.512  -2.780  0.00  0.00     0.275 HD
ENDBRANCH  16  23
ENDBRANCH   2  16
TORSDOF 10
ENDMDL
MODEL 7
REMARK VINA RESULT:      -5.8      1.576      2.060
REMARK  10 active torsions:
REMARK  status: ('A' for Active; 'I' for Inactive)
REMARK    1  A    between atoms: N_7  and  C_21 
REMARK       I    between atoms: N_7  and  C_8 
REMARK    2  A    between atoms: C_8  and  C_9 
REMARK    3  A    between atoms: C_9  and  C_10 
REMARK    4  A    between atoms: C_9  and  N_14 
REMARK    5  A    between atoms: C_10  and  C_11 
REMARK       I    between atoms: C_11  and  N_12 
REMARK    6  A    between atoms: C_19  and  C_21 
REMARK    7  A    between atoms: C_21  and  C_22 
REMARK    8  A    between atoms: C_22  and  O_23 
REMARK    9  A    between atoms: O_23  and  P_24 
REMARK   10  A    between atoms: P_24  and  O_26 
ROOT
HETATM    1  N           1     -35.348  -3.233 -11.570  0.00  0.00    -0.343 N 
HETATM    2  C           1     -34.437  -4.231 -11.783  0.00  0.00     0.249 C 
HETATM    3  O           1     -33.316  -3.960 -12.143  0.00  0.00    -0.271 OA
HETATM    4  H           1     -36.287  -3.461 -11.268  0.00  0.00     0.163 HD
ENDROOT
BRANCH   1   5
HETATM    5  C           1     -34.969  -1.849 -11.775  0.00  0.00     0.210 C 
BRANCH   5   6
HETATM    6  C           1     -35.261  -1.057 -10.523  0.00  0.00     0.198 C 
HETATM    7  O           1     -34.697  -1.355  -9.449  0.00  0.00    -0.646 OA
HETATM    8  O           1     -36.067  -0.103 -10.562  0.00  0.00    -0.646 OA
ENDBRANCH   5   6
BRANCH   5   9
HETATM    9  C           1     -35.765  -1.273 -12.938  0.00  0.00     0.217 C 
BRANCH   9  10
HETATM   10  O           1     -35.097  -1.541 -14.141  0.00  0.00    -0.287 OA
BRANCH  10  11
HETATM   11  P           1     -35.621  -0.732 -15.438  0.00  0.00     0.406 P 
HETATM   12  O           1     -35.238   0.693 -15.319  0.00  0.00    -0.624 OA
HETATM   13  O           1     -35.012  -1.307 -16.657  0.00  0.00    -0.624 OA
BRANCH  11  14
HETATM   14  O           1     -37.229  -0.852 -15.532  0.00  0.00    -0.300 OA
HETATM   15  H           1     -37.456  -1.553 -14.943  0.00  0.00     0.223 HD
ENDBRANCH  11  14
ENDBRANCH  10  11
ENDBRANCH   9  10
ENDBRANCH   5   9
ENDBRANCH   1   5
BRANCH   2  16
HETATM   16  C           1     -34.832  -5.672 -11.569  0.00  0.00     0.283 C 
BRANCH  16  17
HETATM   17  C           1     -33.727  -6.396 -10.809  0.00  0.00     0.145 C 
BRANCH  17  18
HETATM   18  C           1     -34.247  -7.722 -10.310  0.00  0.00     0.217 C 
HETATM   19  N           1     -33.433  -8.823 -10.322  0.00  0.00    -0.370 N 
HETATM   20  H           1     -33.781  -9.712  -9.986  0.00  0.00     0.159 HD
HETATM   21  H           1     -32.485  -8.748 -10.665  0.00  0.00     0.159 HD
HETATM   22  O           1     -35.379  -7.811  -9.899  0.00  0.00    -0.274 OA
ENDBRANCH  17  18
ENDBRANCH  16  17
BRANCH  16  23
HETATM   23  N           1     -35.040  -6.335 -12.899  0.00  0.00    -0.066 N 
HETATM   24  H           1     -34.139  -6.755 -13.223  0.00  0.00     0.275 HD
HETATM   25  H           1     -35.760  -7.087 -12.803  0.00  0.00     0.275 HD
HETATM   26  H           1     -35.365  -5.628 -13.594  0.00  0.00     0.275 HD
ENDBRANCH  16  23
ENDBRANCH   2  16
TORSDOF 10
ENDMDL
MODEL 8
REMARK VINA RESULT:      -5.8     13.743     15.558
REMARK  10 active torsions:
REMARK  status: ('A' for Active; 'I' for Inactive)
REMARK    1  A    between atoms: N_7  and  C_21 
REMARK       I    between atoms: N_7  and  C_8 
REMARK    2  A    between atoms: C_8  and  C_9 
REMARK    3  A    between atoms: C_9  and  C_10 
REMARK    4  A    between atoms: C_9  and  N_14 
REMARK    5  A    between atoms: C_10  and  C_11 
REMARK       I    between atoms: C_11  and  N_12 
REMARK    6  A    between atoms: C_19  and  C_21 
REMARK    7  A    between atoms: C_21  and  C_22 
REMARK    8  A    between atoms: C_22  and  O_23 
REMARK    9  A    between atoms: O_23  and  P_24 
REMARK   10  A    between atoms: P_24  and  O_26 
ROOT
HETATM    1  N           1     -21.871  -5.453  -6.390  0.00  0.00    -0.343 N 
HETATM    2  C           1     -21.605  -6.684  -5.855  0.00  0.00     0.249 C 
HETATM    3  O           1     -20.992  -7.503  -6.498  0.00  0.00    -0.271 OA
HETATM    4  H           1     -22.384  -4.767  -5.850  0.00  0.00     0.163 HD
ENDROOT
BRANCH   1   5
HETATM    5  C           1     -21.416  -5.130  -7.727  0.00  0.00     0.210 C 
BRANCH   5   6
HETATM    6  C           1     -20.109  -4.380  -7.647  0.00  0.00     0.198 C 
HETATM    7  O           1     -19.380  -4.501  -6.638  0.00  0.00    -0.646 OA
HETATM    8  O           1     -19.755  -3.639  -8.588  0.00  0.00    -0.646 OA
ENDBRANCH   5   6
BRANCH   5   9
HETATM    9  C           1     -22.458  -4.261  -8.420  0.00  0.00     0.217 C 
BRANCH   9  10
HETATM   10  O           1     -22.899  -4.899  -9.588  0.00  0.00    -0.287 OA
BRANCH  10  11
HETATM   11  P           1     -23.208  -3.936 -10.848  0.00  0.00     0.406 P 
HETATM   12  O           1     -24.400  -3.110 -10.557  0.00  0.00    -0.624 OA
HETATM   13  O           1     -22.045  -3.055 -11.092  0.00  0.00    -0.624 OA
BRANCH  11  14
HETATM   14  O           1     -23.482  -4.839 -12.158  0.00  0.00    -0.300 OA
HETATM   15  H           1     -22.633  -4.975 -12.543  0.00  0.00     0.223 HD
ENDBRANCH  11  14
ENDBRANCH  10  11
ENDBRANCH   9  10
ENDBRANCH   5   9
ENDBRANCH   1   5
BRANCH   2  16
HETATM   16  C           1     -22.079  -7.020  -4.462  0.00  0.00     0.283 C 
BRANCH  16  17
HETATM   17  C           1     -21.313  -6.180  -3.447  0.00  0.00     0.145 C 
BRANCH  17  18
HETATM   18  C           1     -21.353  -6.859  -2.100  0.00  0.00     0.217 C 
HETATM   19  N           1     -22.379  -6.597  -1.232  0.00  0.00    -0.370 N 
HETATM   20  H           1     -22.406  -7.053  -0.329  0.00  0.00     0.159 HD
HETATM   21  H           1     -23.110  -5.947  -1.493  0.00  0.00     0.159 HD
HETATM   22  O           1     -20.481  -7.635  -1.788  0.00  0.00    -0.274 OA
ENDBRANCH  17  18
ENDBRANCH  16  17
BRANCH  16  23
HETATM   23  N           1     -21.837  -8.475  -4.189  0.00  0.00    -0.066 N 
HETATM   24  H           1     -22.692  -9.023  -4.436  0.00  0.00     0.275 HD
HETATM   25  H           1     -21.032  -8.807  -4.767  0.00  0.00     0.275 HD
HETATM   26  H           1     -21.618  -8.608  -3.177  0.00  0.00     0.275 HD
ENDBRANCH  16  23
ENDBRANCH   2  16
TORSDOF 10
ENDMDL
MODEL 9
REMARK VINA RESULT:      -5.6     14.014     15.962
REMARK  10 active torsions:
REMARK  status: ('A' for Active; 'I' for Inactive)
REMARK    1  A    between atoms: N_7  and  C_21 
REMARK       I    between atoms: N_7  and  C_8 
REMARK    2  A    between atoms: C_8  and  C_9 
REMARK    3  A    between atoms: C_9  and  C_10 
REMARK    4  A    between atoms: C_9  and  N_14 
REMARK    5  A    between atoms: C_10  and  C_11 
REMARK       I    between atoms: C_11  and  N_12 
REMARK    6  A    between atoms: C_19  and  C_21 
REMARK    7  A    between atoms: C_21  and  C_22 
REMARK    8  A    between atoms: C_22  and  O_23 
REMARK    9  A    between atoms: O_23  and  P_24 
REMARK   10  A    between atoms: P_24  and  O_26 
ROOT
HETATM    1  N           1     -21.243  -5.573  -5.293  0.00  0.00    -0.343 N 
HETATM    2  C           1     -21.664  -6.653  -4.566  0.00  0.00     0.249 C 
HETATM    3  O           1     -22.256  -7.555  -5.110  0.00  0.00    -0.271 OA
HETATM    4  H           1     -20.748  -4.818  -4.837  0.00  0.00     0.163 HD
ENDROOT
BRANCH   1   5
HETATM    5  C           1     -21.505  -5.512  -6.717  0.00  0.00     0.210 C 
BRANCH   5   6
HETATM    6  C           1     -20.209  -5.679  -7.474  0.00  0.00     0.198 C 
HETATM    7  O           1     -19.857  -4.817  -8.309  0.00  0.00    -0.646 OA
HETATM    8  O           1     -19.490  -6.679  -7.266  0.00  0.00    -0.646 OA
ENDBRANCH   5   6
BRANCH   5   9
HETATM    9  C           1     -22.123  -4.163  -7.061  0.00  0.00     0.217 C 
BRANCH   9  10
HETATM   10  O           1     -23.412  -4.356  -7.576  0.00  0.00    -0.287 OA
BRANCH  10  11
HETATM   11  P           1     -23.623  -3.956  -9.127  0.00  0.00     0.406 P 
HETATM   12  O           1     -22.384  -3.339  -9.650  0.00  0.00    -0.624 OA
HETATM   13  O           1     -23.938  -5.170  -9.911  0.00  0.00    -0.624 OA
BRANCH  11  14
HETATM   14  O           1     -24.843  -2.905  -9.249  0.00  0.00    -0.300 OA
HETATM   15  H           1     -24.666  -2.417 -10.035  0.00  0.00     0.223 HD
ENDBRANCH  11  14
ENDBRANCH  10  11
ENDBRANCH   9  10
ENDBRANCH   5   9
ENDBRANCH   1   5
BRANCH   2  16
HETATM   16  C           1     -21.392  -6.717  -3.083  0.00  0.00     0.283 C 
BRANCH  16  17
HETATM   17  C           1     -21.324  -8.173  -2.640  0.00  0.00     0.145 C 
BRANCH  17  18
HETATM   18  C           1     -21.713  -8.275  -1.185  0.00  0.00     0.217 C 
HETATM   19  N           1     -22.666  -9.176  -0.793  0.00  0.00    -0.370 N 
HETATM   20  H           1     -22.926  -9.245   0.183  0.00  0.00     0.159 HD
HETATM   21  H           1     -23.109  -9.774  -1.479  0.00  0.00     0.159 HD
HETATM   22  O           1     -21.183  -7.561  -0.367  0.00  0.00    -0.274 OA
ENDBRANCH  17  18
ENDBRANCH  16  17
BRANCH  16  23
HETATM   23  N           1     -22.495  -6.021  -2.342  0.00  0.00    -0.066 N 
HETATM   24  H           1     -22.116  -5.168  -1.872  0.00  0.00     0.275 HD
HETATM   25  H           1     -23.245  -5.744  -3.015  0.00  0.00     0.275 HD
HETATM   26  H           1     -22.893  -6.666  -1.623  0.00  0.00     0.275 HD
ENDBRANCH  16  23
ENDBRANCH   2  16
TORSDOF 10
ENDMDL
