MODEL 1
REMARK VINA RESULT:      -7.8      0.000      0.000
REMARK  10 active torsions:
REMARK  status: ('A' for Active; 'I' for Inactive)
REMARK    1  A    between atoms: C_1  and  O_11 
REMARK    2  A    between atoms: C_2  and  C_3 
REMARK    3  A    between atoms: C_3  and  C_4 
REMARK    4  A    between atoms: C_3  and  N_25 
REMARK    5  A    between atoms: C_4  and  C_23 
REMARK       I    between atoms: C_6  and  N_17 
REMARK    6  A    between atoms: C_6  and  C_23 
REMARK    7  A    between atoms: C_9  and  C_10 
REMARK    8  A    between atoms: C_9  and  C_18 
REMARK    9  A    between atoms: C_10  and  C_27 
REMARK   10  A    between atoms: C_10  and  N_14 
REMARK       I    between atoms: N_25  and  C_27 
ROOT
HETATM    1  O           1     -20.705  -5.220  -4.787  0.00  0.00    -0.271 OA
HETATM    2  H           1     -21.759  -7.912  -6.006  0.00  0.00     0.163 HD
HETATM    3  N           1     -21.254  -7.303  -5.374  0.00  0.00    -0.345 N 
HETATM    4  C           1     -21.307  -5.946  -5.541  0.00  0.00     0.249 C 
ENDROOT
BRANCH   4   5
HETATM    5  C           1     -22.120  -5.356  -6.668  0.00  0.00     0.278 C 
BRANCH   5   6
HETATM    6  C           1     -21.462  -4.068  -7.147  0.00  0.00     0.081 C 
BRANCH   6   7
HETATM    7  C           1     -21.518  -4.006  -8.642  0.00  0.00    -0.056 A 
HETATM    8  C           1     -20.380  -4.298  -9.394  0.00  0.00     0.010 A 
HETATM    9  C           1     -20.432  -4.241 -10.788  0.00  0.00     0.037 A 
HETATM   10  C           1     -21.621  -3.893 -11.427  0.00  0.00     0.065 A 
HETATM   11  C           1     -22.759  -3.600 -10.675  0.00  0.00     0.037 A 
HETATM   12  C           1     -22.707  -3.658  -9.282  0.00  0.00     0.010 A 
BRANCH  10  13
HETATM   13  O           1     -21.672  -3.837 -12.781  0.00  0.00    -0.361 OA
HETATM   14  H           1     -22.575  -3.582 -13.037  0.00  0.00     0.217 HD
ENDBRANCH  10  13
ENDBRANCH   6   7
ENDBRANCH   5   6
BRANCH   5  15
HETATM   15  N           1     -23.506  -5.056  -6.180  0.00  0.00    -0.066 N 
HETATM   16  H           1     -24.204  -5.474  -6.836  0.00  0.00     0.275 HD
HETATM   17  H           1     -23.635  -5.466  -5.227  0.00  0.00     0.275 HD
HETATM   18  H           1     -23.645  -4.021  -6.137  0.00  0.00     0.275 HD
ENDBRANCH   5  15
ENDBRANCH   4   5
BRANCH   3  19
HETATM   19  C           1     -20.474  -7.871  -4.291  0.00  0.00     0.186 C 
BRANCH  19  20
HETATM   20  C           1     -19.608  -8.985  -4.826  0.00  0.00     0.196 C 
HETATM   21  O           1     -18.463  -9.166  -4.361  0.00  0.00    -0.646 OA
HETATM   22  O           1     -20.038  -9.728  -5.737  0.00  0.00    -0.646 OA
ENDBRANCH  19  20
BRANCH  19  23
HETATM   23  C           1     -21.410  -8.422  -3.225  0.00  0.00     0.045 C 
BRANCH  23  24
HETATM   24  C           1     -21.055  -7.816  -1.874  0.00  0.00     0.105 C 
BRANCH  24  25
HETATM   25  C           1     -22.136  -6.850  -1.454  0.00  0.00     0.215 C 
HETATM   26  O           1     -22.829  -7.098  -0.497  0.00  0.00    -0.274 OA
HETATM   27  N           1     -22.330  -5.692  -2.158  0.00  0.00    -0.370 N 
HETATM   28  H           1     -23.054  -5.043  -1.878  0.00  0.00     0.159 HD
HETATM   29  H           1     -21.748  -5.485  -2.961  0.00  0.00     0.159 HD
ENDBRANCH  24  25
ENDBRANCH  23  24
ENDBRANCH  19  23
ENDBRANCH   3  19
TORSDOF 10
ENDMDL
MODEL 2
REMARK VINA RESULT:      -7.4      1.421      1.977
REMARK  10 active torsions:
REMARK  status: ('A' for Active; 'I' for Inactive)
REMARK    1  A    between atoms: C_1  and  O_11 
REMARK    2  A    between atoms: C_2  and  C_3 
REMARK    3  A    between atoms: C_3  and  C_4 
REMARK    4  A    between atoms: C_3  and  N_25 
REMARK    5  A    between atoms: C_4  and  C_23 
REMARK       I    between atoms: C_6  and  N_17 
REMARK    6  A    between atoms: C_6  and  C_23 
REMARK    7  A    between atoms: C_9  and  C_10 
REMARK    8  A    between atoms: C_9  and  C_18 
REMARK    9  A    between atoms: C_10  and  C_27 
REMARK   10  A    between atoms: C_10  and  N_14 
REMARK       I    between atoms: N_25  and  C_27 
ROOT
HETATM    1  O           1     -20.204  -5.947  -5.505  0.00  0.00    -0.271 OA
HETATM    2  H           1     -23.088  -6.129  -4.287  0.00  0.00     0.163 HD
HETATM    3  N           1     -22.081  -6.216  -4.328  0.00  0.00    -0.345 N 
HETATM    4  C           1     -21.405  -5.842  -5.458  0.00  0.00     0.249 C 
ENDROOT
BRANCH   4   5
HETATM    5  C           1     -22.163  -5.298  -6.644  0.00  0.00     0.278 C 
BRANCH   5   6
HETATM    6  C           1     -21.491  -4.021  -7.134  0.00  0.00     0.081 C 
BRANCH   6   7
HETATM    7  C           1     -21.536  -3.977  -8.630  0.00  0.00    -0.056 A 
HETATM    8  C           1     -22.731  -3.670  -9.281  0.00  0.00     0.010 A 
HETATM    9  C           1     -22.774  -3.627 -10.676  0.00  0.00     0.037 A 
HETATM   10  C           1     -21.623  -3.892 -11.417  0.00  0.00     0.065 A 
HETATM   11  C           1     -20.429  -4.199 -10.765  0.00  0.00     0.037 A 
HETATM   12  C           1     -20.386  -4.241  -9.371  0.00  0.00     0.010 A 
BRANCH  10  13
HETATM   13  O           1     -21.665  -3.851 -12.771  0.00  0.00    -0.361 OA
HETATM   14  H           1     -22.395  -3.263 -13.031  0.00  0.00     0.217 HD
ENDBRANCH  10  13
ENDBRANCH   6   7
ENDBRANCH   5   6
BRANCH   5  15
HETATM   15  N           1     -23.575  -4.993  -6.238  0.00  0.00    -0.066 N 
HETATM   16  H           1     -23.709  -5.240  -5.231  0.00  0.00     0.275 HD
HETATM   17  H           1     -23.763  -3.974  -6.375  0.00  0.00     0.275 HD
HETATM   18  H           1     -24.234  -5.553  -6.824  0.00  0.00     0.275 HD
ENDBRANCH   5  15
ENDBRANCH   4   5
BRANCH   3  19
HETATM   19  C           1     -21.354  -6.740  -3.188  0.00  0.00     0.186 C 
BRANCH  19  20
HETATM   20  C           1     -20.990  -8.182  -3.442  0.00  0.00     0.196 C 
HETATM   21  O           1     -21.883  -9.015  -3.704  0.00  0.00    -0.646 OA
HETATM   22  O           1     -19.793  -8.542  -3.391  0.00  0.00    -0.646 OA
ENDBRANCH  19  20
BRANCH  19  23
HETATM   23  C           1     -22.226  -6.648  -1.943  0.00  0.00     0.045 C 
BRANCH  23  24
HETATM   24  C           1     -21.601  -7.468  -0.822  0.00  0.00     0.105 C 
BRANCH  24  25
HETATM   25  C           1     -22.645  -8.376  -0.219  0.00  0.00     0.215 C 
HETATM   26  O           1     -23.330  -7.984   0.696  0.00  0.00    -0.274 OA
HETATM   27  N           1     -22.817  -9.642  -0.708  0.00  0.00    -0.370 N 
HETATM   28  H           1     -23.517 -10.252  -0.305  0.00  0.00     0.159 HD
HETATM   29  H           1     -22.242  -9.971  -1.475  0.00  0.00     0.159 HD
ENDBRANCH  24  25
ENDBRANCH  23  24
ENDBRANCH  19  23
ENDBRANCH   3  19
TORSDOF 10
ENDMDL
MODEL 3
REMARK VINA RESULT:      -7.3     13.678     17.256
REMARK  10 active torsions:
REMARK  status: ('A' for Active; 'I' for Inactive)
REMARK    1  A    between atoms: C_1  and  O_11 
REMARK    2  A    between atoms: C_2  and  C_3 
REMARK    3  A    between atoms: C_3  and  C_4 
REMARK    4  A    between atoms: C_3  and  N_25 
REMARK    5  A    between atoms: C_4  and  C_23 
REMARK       I    between atoms: C_6  and  N_17 
REMARK    6  A    between atoms: C_6  and  C_23 
REMARK    7  A    between atoms: C_9  and  C_10 
REMARK    8  A    between atoms: C_9  and  C_18 
REMARK    9  A    between atoms: C_10  and  C_27 
REMARK   10  A    between atoms: C_10  and  N_14 
REMARK       I    between atoms: N_25  and  C_27 
ROOT
HETATM    1  O           1     -34.207  -1.673 -11.167  0.00  0.00    -0.271 OA
HETATM    2  H           1     -35.749  -1.924 -13.887  0.00  0.00     0.163 HD
HETATM    3  N           1     -35.395  -1.483 -13.048  0.00  0.00    -0.345 N 
HETATM    4  C           1     -34.629  -2.200 -12.168  0.00  0.00     0.249 C 
ENDROOT
BRANCH   4   5
HETATM    5  C           1     -34.311  -3.648 -12.451  0.00  0.00     0.278 C 
BRANCH   5   6
HETATM    6  C           1     -33.196  -4.113 -11.523  0.00  0.00     0.081 C 
BRANCH   6   7
HETATM    7  C           1     -33.554  -5.446 -10.943  0.00  0.00    -0.056 A 
HETATM    8  C           1     -34.774  -5.615 -10.288  0.00  0.00     0.010 A 
HETATM    9  C           1     -35.109  -6.858  -9.746  0.00  0.00     0.037 A 
HETATM   10  C           1     -34.223  -7.929  -9.861  0.00  0.00     0.065 A 
HETATM   11  C           1     -33.003  -7.759 -10.516  0.00  0.00     0.037 A 
HETATM   12  C           1     -32.669  -6.517 -11.057  0.00  0.00     0.010 A 
BRANCH  10  13
HETATM   13  O           1     -34.548  -9.135  -9.335  0.00  0.00    -0.361 OA
HETATM   14  H           1     -34.860  -9.704 -10.060  0.00  0.00     0.217 HD
ENDBRANCH  10  13
ENDBRANCH   6   7
ENDBRANCH   5   6
BRANCH   5  15
HETATM   15  N           1     -33.868  -3.793 -13.876  0.00  0.00    -0.066 N 
HETATM   16  H           1     -33.238  -2.997 -14.128  0.00  0.00     0.275 HD
HETATM   17  H           1     -33.351  -4.694 -13.989  0.00  0.00     0.275 HD
HETATM   18  H           1     -34.703  -3.788 -14.503  0.00  0.00     0.275 HD
ENDBRANCH   5  15
ENDBRANCH   4   5
BRANCH   3  19
HETATM   19  C           1     -35.701  -0.092 -12.777  0.00  0.00     0.186 C 
BRANCH  19  20
HETATM   20  C           1     -37.112   0.020 -12.255  0.00  0.00     0.196 C 
HETATM   21  O           1     -38.074  -0.311 -12.980  0.00  0.00    -0.646 OA
HETATM   22  O           1     -37.318   0.446 -11.097  0.00  0.00    -0.646 OA
ENDBRANCH  19  20
BRANCH  19  23
HETATM   23  C           1     -35.568   0.716 -14.060  0.00  0.00     0.045 C 
BRANCH  23  24
HETATM   24  C           1     -35.524  -0.228 -15.254  0.00  0.00     0.105 C 
BRANCH  24  25
HETATM   25  C           1     -36.761  -0.035 -16.096  0.00  0.00     0.215 C 
HETATM   26  O           1     -37.010  -0.808 -16.990  0.00  0.00    -0.274 OA
HETATM   27  N           1     -37.602   1.016 -15.845  0.00  0.00    -0.370 N 
HETATM   28  H           1     -38.433   1.146 -16.409  0.00  0.00     0.159 HD
HETATM   29  H           1     -37.393   1.664 -15.096  0.00  0.00     0.159 HD
ENDBRANCH  24  25
ENDBRANCH  23  24
ENDBRANCH  19  23
ENDBRANCH   3  19
TORSDOF 10
ENDMDL
MODEL 4
REMARK VINA RESULT:      -7.2     13.593     14.882
REMARK  10 active torsions:
REMARK  status: ('A' for Active; 'I' for Inactive)
REMARK    1  A    between atoms: C_1  and  O_11 
REMARK    2  A    between atoms: C_2  and  C_3 
REMARK    3  A    between atoms: C_3  and  C_4 
REMARK    4  A    between atoms: C_3  and  N_25 
REMARK    5  A    between atoms: C_4  and  C_23 
REMARK       I    between atoms: C_6  and  N_17 
REMARK    6  A    between atoms: C_6  and  C_23 
REMARK    7  A    between atoms: C_9  and  C_10 
REMARK    8  A    between atoms: C_9  and  C_18 
REMARK    9  A    between atoms: C_10  and  C_27 
REMARK   10  A    between atoms: C_10  and  N_14 
REMARK       I    between atoms: N_25  and  C_27 
ROOT
HETATM    1  O           1     -34.982  -4.781 -15.582  0.00  0.00    -0.271 OA
HETATM    2  H           1     -32.389  -3.739 -14.157  0.00  0.00     0.163 HD
HETATM    3  N           1     -33.358  -4.014 -14.256  0.00  0.00    -0.345 N 
HETATM    4  C           1     -33.826  -4.454 -15.464  0.00  0.00     0.249 C 
ENDROOT
BRANCH   4   5
HETATM    5  C           1     -32.895  -4.531 -16.650  0.00  0.00     0.278 C 
BRANCH   5   6
HETATM    6  C           1     -31.451  -4.530 -16.164  0.00  0.00     0.081 C 
BRANCH   6   7
HETATM    7  C           1     -30.620  -5.386 -17.068  0.00  0.00    -0.056 A 
HETATM    8  C           1     -29.456  -4.870 -17.638  0.00  0.00     0.010 A 
HETATM    9  C           1     -28.680  -5.668 -18.482  0.00  0.00     0.037 A 
HETATM   10  C           1     -29.069  -6.979 -18.753  0.00  0.00     0.065 A 
HETATM   11  C           1     -30.233  -7.494 -18.183  0.00  0.00     0.037 A 
HETATM   12  C           1     -31.008  -6.697 -17.340  0.00  0.00     0.010 A 
BRANCH  10  13
HETATM   13  O           1     -28.316  -7.753 -19.572  0.00  0.00    -0.361 OA
HETATM   14  H           1     -27.903  -8.448 -19.031  0.00  0.00     0.217 HD
ENDBRANCH  10  13
ENDBRANCH   6   7
ENDBRANCH   5   6
BRANCH   5  15
HETATM   15  N           1     -33.122  -3.346 -17.541  0.00  0.00    -0.066 N 
HETATM   16  H           1     -34.136  -3.092 -17.532  0.00  0.00     0.275 HD
HETATM   17  H           1     -32.558  -2.537 -17.193  0.00  0.00     0.275 HD
HETATM   18  H           1     -32.830  -3.581 -18.516  0.00  0.00     0.275 HD
ENDBRANCH   5  15
ENDBRANCH   4   5
BRANCH   3  19
HETATM   19  C           1     -34.251  -3.939 -13.116  0.00  0.00     0.186 C 
BRANCH  19  20
HETATM   20  C           1     -34.588  -2.495 -12.835  0.00  0.00     0.196 C 
HETATM   21  O           1     -35.213  -1.822 -13.682  0.00  0.00    -0.646 OA
HETATM   22  O           1     -34.240  -1.972 -11.753  0.00  0.00    -0.646 OA
ENDBRANCH  19  20
BRANCH  19  23
HETATM   23  C           1     -33.572  -4.549 -11.897  0.00  0.00     0.045 C 
BRANCH  23  24
HETATM   24  C           1     -34.629  -5.060 -10.928  0.00  0.00     0.105 C 
BRANCH  24  25
HETATM   25  C           1     -34.286  -6.466 -10.502  0.00  0.00     0.215 C 
HETATM   26  O           1     -35.036  -7.078  -9.780  0.00  0.00    -0.274 OA
HETATM   27  N           1     -33.126  -7.049 -10.937  0.00  0.00    -0.370 N 
HETATM   28  H           1     -32.896  -7.993 -10.653  0.00  0.00     0.159 HD
HETATM   29  H           1     -32.498  -6.536 -11.543  0.00  0.00     0.159 HD
ENDBRANCH  24  25
ENDBRANCH  23  24
ENDBRANCH  19  23
ENDBRANCH   3  19
TORSDOF 10
ENDMDL
MODEL 5
REMARK VINA RESULT:      -6.8      1.700      2.286
REMARK  10 active torsions:
REMARK  status: ('A' for Active; 'I' for Inactive)
REMARK    1  A    between atoms: C_1  and  O_11 
REMARK    2  A    between atoms: C_2  and  C_3 
REMARK    3  A    between atoms: C_3  and  C_4 
REMARK    4  A    between atoms: C_3  and  N_25 
REMARK    5  A    between atoms: C_4  and  C_23 
REMARK       I    between atoms: C_6  and  N_17 
REMARK    6  A    between atoms: C_6  and  C_23 
REMARK    7  A    between atoms: C_9  and  C_10 
REMARK    8  A    between atoms: C_9  and  C_18 
REMARK    9  A    between atoms: C_10  and  C_27 
REMARK   10  A    between atoms: C_10  and  N_14 
REMARK       I    between atoms: N_25  and  C_27 
ROOT
HETATM    1  O           1     -20.379  -4.935  -4.976  0.00  0.00    -0.271 OA
HETATM    2  H           1     -19.682  -7.222  -7.007  0.00  0.00     0.163 HD
HETATM    3  N           1     -19.923  -6.797  -6.121  0.00  0.00    -0.345 N 
HETATM    4  C           1     -20.091  -5.441  -6.034  0.00  0.00     0.249 C 
ENDROOT
BRANCH   4   5
HETATM    5  C           1     -19.918  -4.579  -7.261  0.00  0.00     0.278 C 
BRANCH   5   6
HETATM    6  C           1     -20.319  -5.372  -8.498  0.00  0.00     0.081 C 
BRANCH   6   7
HETATM    7  C           1     -21.551  -4.770  -9.099  0.00  0.00    -0.056 A 
HETATM    8  C           1     -22.648  -4.476  -8.289  0.00  0.00     0.010 A 
HETATM    9  C           1     -23.797  -3.915  -8.847  0.00  0.00     0.037 A 
HETATM   10  C           1     -23.847  -3.647 -10.215  0.00  0.00     0.065 A 
HETATM   11  C           1     -22.750  -3.940 -11.025  0.00  0.00     0.037 A 
HETATM   12  C           1     -21.602  -4.501 -10.465  0.00  0.00     0.010 A 
BRANCH  10  13
HETATM   13  O           1     -24.963  -3.101 -10.758  0.00  0.00    -0.361 OA
HETATM   14  H           1     -25.083  -3.484 -11.644  0.00  0.00     0.217 HD
ENDBRANCH  10  13
ENDBRANCH   6   7
ENDBRANCH   5   6
BRANCH   5  15
HETATM   15  N           1     -18.481  -4.162  -7.379  0.00  0.00    -0.066 N 
HETATM   16  H           1     -18.316  -3.312  -6.796  0.00  0.00     0.275 HD
HETATM   17  H           1     -17.866  -4.938  -7.045  0.00  0.00     0.275 HD
HETATM   18  H           1     -18.262  -3.948  -8.378  0.00  0.00     0.275 HD
ENDBRANCH   5  15
ENDBRANCH   4   5
BRANCH   3  19
HETATM   19  C           1     -20.089  -7.625  -4.942  0.00  0.00     0.186 C 
BRANCH  19  20
HETATM   20  C           1     -19.178  -8.824  -5.038  0.00  0.00     0.196 C 
HETATM   21  O           1     -19.225  -9.566  -6.042  0.00  0.00    -0.646 OA
HETATM   22  O           1     -18.376  -9.075  -4.111  0.00  0.00    -0.646 OA
ENDBRANCH  19  20
BRANCH  19  23
HETATM   23  C           1     -21.535  -8.092  -4.850  0.00  0.00     0.045 C 
BRANCH  23  24
HETATM   24  C           1     -21.847  -8.503  -3.417  0.00  0.00     0.105 C 
BRANCH  24  25
HETATM   25  C           1     -21.557  -7.350  -2.487  0.00  0.00     0.215 C 
HETATM   26  O           1     -20.778  -7.491  -1.575  0.00  0.00    -0.274 OA
HETATM   27  N           1     -22.175  -6.144  -2.680  0.00  0.00    -0.370 N 
HETATM   28  H           1     -21.980  -5.369  -2.057  0.00  0.00     0.159 HD
HETATM   29  H           1     -22.827  -6.025  -3.445  0.00  0.00     0.159 HD
ENDBRANCH  24  25
ENDBRANCH  23  24
ENDBRANCH  19  23
ENDBRANCH   3  19
TORSDOF 10
ENDMDL
MODEL 6
REMARK VINA RESULT:      -6.7     13.350     16.504
REMARK  10 active torsions:
REMARK  status: ('A' for Active; 'I' for Inactive)
REMARK    1  A    between atoms: C_1  and  O_11 
REMARK    2  A    between atoms: C_2  and  C_3 
REMARK    3  A    between atoms: C_3  and  C_4 
REMARK    4  A    between atoms: C_3  and  N_25 
REMARK    5  A    between atoms: C_4  and  C_23 
REMARK       I    between atoms: C_6  and  N_17 
REMARK    6  A    between atoms: C_6  and  C_23 
REMARK    7  A    between atoms: C_9  and  C_10 
REMARK    8  A    between atoms: C_9  and  C_18 
REMARK    9  A    between atoms: C_10  and  C_27 
REMARK   10  A    between atoms: C_10  and  N_14 
REMARK       I    between atoms: N_25  and  C_27 
ROOT
HETATM    1  O           1     -34.705  -2.930 -14.072  0.00  0.00    -0.271 OA
HETATM    2  H           1     -35.268  -1.360 -11.415  0.00  0.00     0.163 HD
HETATM    3  N           1     -35.297  -1.568 -12.405  0.00  0.00    -0.345 N 
HETATM    4  C           1     -34.669  -2.683 -12.891  0.00  0.00     0.249 C 
ENDROOT
BRANCH   4   5
HETATM    5  C           1     -33.932  -3.603 -11.949  0.00  0.00     0.278 C 
BRANCH   5   6
HETATM    6  C           1     -34.897  -4.133 -10.897  0.00  0.00     0.081 C 
BRANCH   6   7
HETATM    7  C           1     -34.545  -5.549 -10.564  0.00  0.00    -0.056 A 
HETATM    8  C           1     -35.403  -6.313  -9.774  0.00  0.00     0.010 A 
HETATM    9  C           1     -35.075  -7.634  -9.464  0.00  0.00     0.037 A 
HETATM   10  C           1     -33.889  -8.189  -9.945  0.00  0.00     0.065 A 
HETATM   11  C           1     -33.031  -7.425 -10.735  0.00  0.00     0.037 A 
HETATM   12  C           1     -33.360  -6.105 -11.045  0.00  0.00     0.010 A 
BRANCH  10  13
HETATM   13  O           1     -33.570  -9.471  -9.644  0.00  0.00    -0.361 OA
HETATM   14  H           1     -34.397  -9.951  -9.461  0.00  0.00     0.217 HD
ENDBRANCH  10  13
ENDBRANCH   6   7
ENDBRANCH   5   6
BRANCH   5  15
HETATM   15  N           1     -32.826  -2.846 -11.275  0.00  0.00    -0.066 N 
HETATM   16  H           1     -31.933  -3.383 -11.361  0.00  0.00     0.275 HD
HETATM   17  H           1     -32.715  -1.913 -11.732  0.00  0.00     0.275 HD
HETATM   18  H           1     -33.058  -2.716 -10.265  0.00  0.00     0.275 HD
ENDBRANCH   5  15
ENDBRANCH   4   5
BRANCH   3  19
HETATM   19  C           1     -36.006  -0.683 -13.309  0.00  0.00     0.186 C 
BRANCH  19  20
HETATM   20  C           1     -35.049   0.349 -13.856  0.00  0.00     0.196 C 
HETATM   21  O           1     -34.593   0.227 -15.012  0.00  0.00    -0.646 OA
HETATM   22  O           1     -34.713   1.325 -13.149  0.00  0.00    -0.646 OA
ENDBRANCH  19  20
BRANCH  19  23
HETATM   23  C           1     -37.131   0.016 -12.558  0.00  0.00     0.045 C 
BRANCH  23  24
HETATM   24  C           1     -37.362  -0.682 -11.224  0.00  0.00     0.105 C 
BRANCH  24  25
HETATM   25  C           1     -37.249   0.322 -10.103  0.00  0.00     0.215 C 
HETATM   26  O           1     -38.074   1.197  -9.991  0.00  0.00    -0.274 OA
HETATM   27  N           1     -36.213   0.240  -9.213  0.00  0.00    -0.370 N 
HETATM   28  H           1     -36.137   0.913  -8.460  0.00  0.00     0.159 HD
HETATM   29  H           1     -35.521  -0.494  -9.307  0.00  0.00     0.159 HD
ENDBRANCH  24  25
ENDBRANCH  23  24
ENDBRANCH  19  23
ENDBRANCH   3  19
TORSDOF 10
ENDMDL
MODEL 7
REMARK VINA RESULT:      -6.7      1.591      3.063
REMARK  10 active torsions:
REMARK  status: ('A' for Active; 'I' for Inactive)
REMARK    1  A    between atoms: C_1  and  O_11 
REMARK    2  A    between atoms: C_2  and  C_3 
REMARK    3  A    between atoms: C_3  and  C_4 
REMARK    4  A    between atoms: C_3  and  N_25 
REMARK    5  A    between atoms: C_4  and  C_23 
REMARK       I    between atoms: C_6  and  N_17 
REMARK    6  A    between atoms: C_6  and  C_23 
REMARK    7  A    between atoms: C_9  and  C_10 
REMARK    8  A    between atoms: C_9  and  C_18 
REMARK    9  A    between atoms: C_10  and  C_27 
REMARK   10  A    between atoms: C_10  and  N_14 
REMARK       I    between atoms: N_25  and  C_27 
ROOT
HETATM    1  O           1     -22.492  -5.583  -5.668  0.00  0.00    -0.271 OA
HETATM    2  H           1     -19.816  -6.987  -4.827  0.00  0.00     0.163 HD
HETATM    3  N           1     -20.806  -6.781  -4.826  0.00  0.00    -0.345 N 
HETATM    4  C           1     -21.310  -5.828  -5.670  0.00  0.00     0.249 C 
ENDROOT
BRANCH   4   5
HETATM    5  C           1     -20.386  -5.084  -6.603  0.00  0.00     0.278 C 
BRANCH   5   6
HETATM    6  C           1     -21.083  -3.828  -7.113  0.00  0.00     0.081 C 
BRANCH   6   7
HETATM    7  C           1     -21.451  -4.013  -8.552  0.00  0.00    -0.056 A 
HETATM    8  C           1     -20.478  -3.884  -9.542  0.00  0.00     0.010 A 
HETATM    9  C           1     -20.821  -4.056 -10.884  0.00  0.00     0.037 A 
HETATM   10  C           1     -22.137  -4.356 -11.234  0.00  0.00     0.065 A 
HETATM   11  C           1     -23.111  -4.484 -10.244  0.00  0.00     0.037 A 
HETATM   12  C           1     -22.767  -4.313  -8.902  0.00  0.00     0.010 A 
BRANCH  10  13
HETATM   13  O           1     -22.470  -4.523 -12.537  0.00  0.00    -0.361 OA
HETATM   14  H           1     -21.647  -4.597 -13.050  0.00  0.00     0.217 HD
ENDBRANCH  10  13
ENDBRANCH   6   7
ENDBRANCH   5   6
BRANCH   5  15
HETATM   15  N           1     -20.034  -5.965  -7.765  0.00  0.00    -0.066 N 
HETATM   16  H           1     -20.629  -5.715  -8.586  0.00  0.00     0.275 HD
HETATM   17  H           1     -19.027  -5.830  -8.011  0.00  0.00     0.275 HD
HETATM   18  H           1     -20.199  -6.964  -7.506  0.00  0.00     0.275 HD
ENDBRANCH   5  15
ENDBRANCH   4   5
BRANCH   3  19
HETATM   19  C           1     -21.693  -7.496  -3.928  0.00  0.00     0.186 C 
BRANCH  19  20
HETATM   20  C           1     -21.606  -6.892  -2.548  0.00  0.00     0.196 C 
HETATM   21  O           1     -22.316  -5.908  -2.250  0.00  0.00    -0.646 OA
HETATM   22  O           1     -20.821  -7.377  -1.703  0.00  0.00    -0.646 OA
ENDBRANCH  19  20
BRANCH  19  23
HETATM   23  C           1     -21.281  -8.961  -3.869  0.00  0.00     0.045 C 
BRANCH  23  24
HETATM   24  C           1     -20.079  -9.188  -4.775  0.00  0.00     0.105 C 
BRANCH  24  25
HETATM   25  C           1     -18.923  -9.713  -3.958  0.00  0.00     0.215 C 
HETATM   26  O           1     -18.204 -10.571  -4.410  0.00  0.00    -0.274 OA
HETATM   27  N           1     -18.690  -9.214  -2.705  0.00  0.00    -0.370 N 
HETATM   28  H           1     -17.915  -9.565  -2.156  0.00  0.00     0.159 HD
HETATM   29  H           1     -19.293  -8.495  -2.326  0.00  0.00     0.159 HD
ENDBRANCH  24  25
ENDBRANCH  23  24
ENDBRANCH  19  23
ENDBRANCH   3  19
TORSDOF 10
ENDMDL
MODEL 8
REMARK VINA RESULT:      -6.2      2.407      3.079
REMARK  10 active torsions:
REMARK  status: ('A' for Active; 'I' for Inactive)
REMARK    1  A    between atoms: C_1  and  O_11 
REMARK    2  A    between atoms: C_2  and  C_3 
REMARK    3  A    between atoms: C_3  and  C_4 
REMARK    4  A    between atoms: C_3  and  N_25 
REMARK    5  A    between atoms: C_4  and  C_23 
REMARK       I    between atoms: C_6  and  N_17 
REMARK    6  A    between atoms: C_6  and  C_23 
REMARK    7  A    between atoms: C_9  and  C_10 
REMARK    8  A    between atoms: C_9  and  C_18 
REMARK    9  A    between atoms: C_10  and  C_27 
REMARK   10  A    between atoms: C_10  and  N_14 
REMARK       I    between atoms: N_25  and  C_27 
ROOT
HETATM    1  O           1     -20.426  -5.162  -4.959  0.00  0.00    -0.271 OA
HETATM    2  H           1     -19.625  -7.300  -7.109  0.00  0.00     0.163 HD
HETATM    3  N           1     -19.897  -6.937  -6.205  0.00  0.00    -0.345 N 
HETATM    4  C           1     -20.103  -5.594  -6.039  0.00  0.00     0.249 C 
ENDROOT
BRANCH   4   5
HETATM    5  C           1     -19.925  -4.654  -7.206  0.00  0.00     0.278 C 
BRANCH   5   6
HETATM    6  C           1     -20.275  -5.379  -8.499  0.00  0.00     0.081 C 
BRANCH   6   7
HETATM    7  C           1     -21.511  -4.776  -9.091  0.00  0.00    -0.056 A 
HETATM    8  C           1     -22.606  -4.490  -8.276  0.00  0.00     0.010 A 
HETATM    9  C           1     -23.758  -3.927  -8.827  0.00  0.00     0.037 A 
HETATM   10  C           1     -23.813  -3.649 -10.192  0.00  0.00     0.065 A 
HETATM   11  C           1     -22.718  -3.935 -11.008  0.00  0.00     0.037 A 
HETATM   12  C           1     -21.567  -4.498 -10.456  0.00  0.00     0.010 A 
BRANCH  10  13
HETATM   13  O           1     -24.931  -3.103 -10.728  0.00  0.00    -0.361 OA
HETATM   14  H           1     -24.667  -2.576 -11.502  0.00  0.00     0.217 HD
ENDBRANCH  10  13
ENDBRANCH   6   7
ENDBRANCH   5   6
BRANCH   5  15
HETATM   15  N           1     -18.499  -4.192  -7.263  0.00  0.00    -0.066 N 
HETATM   16  H           1     -18.372  -3.375  -6.625  0.00  0.00     0.275 HD
HETATM   17  H           1     -17.870  -4.971  -6.962  0.00  0.00     0.275 HD
HETATM   18  H           1     -18.263  -3.911  -8.241  0.00  0.00     0.275 HD
ENDBRANCH   5  15
ENDBRANCH   4   5
BRANCH   3  19
HETATM   19  C           1     -20.066  -7.841  -5.083  0.00  0.00     0.186 C 
BRANCH  19  20
HETATM   20  C           1     -18.979  -8.887  -5.112  0.00  0.00     0.196 C 
HETATM   21  O           1     -18.772  -9.546  -6.153  0.00  0.00    -0.646 OA
HETATM   22  O           1     -18.284  -9.094  -4.092  0.00  0.00    -0.646 OA
ENDBRANCH  19  20
BRANCH  19  23
HETATM   23  C           1     -21.426  -8.520  -5.179  0.00  0.00     0.045 C 
BRANCH  23  24
HETATM   24  C           1     -21.655  -9.377  -3.941  0.00  0.00     0.105 C 
BRANCH  24  25
HETATM   25  C           1     -21.965 -10.793  -4.359  0.00  0.00     0.215 C 
HETATM   26  O           1     -22.791 -11.434  -3.755  0.00  0.00    -0.274 OA
HETATM   27  N           1     -21.310 -11.352  -5.423  0.00  0.00    -0.370 N 
HETATM   28  H           1     -21.517 -12.302  -5.704  0.00  0.00     0.159 HD
HETATM   29  H           1     -20.617 -10.815  -5.930  0.00  0.00     0.159 HD
ENDBRANCH  24  25
ENDBRANCH  23  24
ENDBRANCH  19  23
ENDBRANCH   3  19
TORSDOF 10
ENDMDL
MODEL 9
REMARK VINA RESULT:      -6.0     19.731     21.657
REMARK  10 active torsions:
REMARK  status: ('A' for Active; 'I' for Inactive)
REMARK    1  A    between atoms: C_1  and  O_11 
REMARK    2  A    between atoms: C_2  and  C_3 
REMARK    3  A    between atoms: C_3  and  C_4 
REMARK    4  A    between atoms: C_3  and  N_25 
REMARK    5  A    between atoms: C_4  and  C_23 
REMARK       I    between atoms: C_6  and  N_17 
REMARK    6  A    between atoms: C_6  and  C_23 
REMARK    7  A    between atoms: C_9  and  C_10 
REMARK    8  A    between atoms: C_9  and  C_18 
REMARK    9  A    between atoms: C_10  and  C_27 
REMARK   10  A    between atoms: C_10  and  N_14 
REMARK       I    between atoms: N_25  and  C_27 
ROOT
HETATM    1  O           1     -12.169   8.067 -21.636  0.00  0.00    -0.271 OA
HETATM    2  H           1     -12.526   6.297 -19.072  0.00  0.00     0.163 HD
HETATM    3  N           1     -12.460   6.516 -20.057  0.00  0.00    -0.345 N 
HETATM    4  C           1     -12.247   7.807 -20.460  0.00  0.00     0.249 C 
ENDROOT
BRANCH   4   5
HETATM    5  C           1     -12.109   8.904 -19.433  0.00  0.00     0.278 C 
BRANCH   5   6
HETATM    6  C           1     -12.608  10.217 -20.023  0.00  0.00     0.081 C 
BRANCH   6   7
HETATM    7  C           1     -13.787  10.701 -19.238  0.00  0.00    -0.056 A 
HETATM    8  C           1     -14.036  10.185 -17.967  0.00  0.00     0.010 A 
HETATM    9  C           1     -15.135  10.636 -17.234  0.00  0.00     0.037 A 
HETATM   10  C           1     -15.984  11.602 -17.774  0.00  0.00     0.065 A 
HETATM   11  C           1     -15.735  12.117 -19.046  0.00  0.00     0.037 A 
HETATM   12  C           1     -14.636  11.666 -19.777  0.00  0.00     0.010 A 
BRANCH  10  13
HETATM   13  O           1     -17.051  12.039 -17.063  0.00  0.00    -0.361 OA
HETATM   14  H           1     -17.761  11.379 -17.150  0.00  0.00     0.217 HD
ENDBRANCH  10  13
ENDBRANCH   6   7
ENDBRANCH   5   6
BRANCH   5  15
HETATM   15  N           1     -10.667   9.047 -19.046  0.00  0.00    -0.066 N 
HETATM   16  H           1     -10.429   8.335 -18.319  0.00  0.00     0.275 HD
HETATM   17  H           1     -10.065   8.900 -19.888  0.00  0.00     0.275 HD
HETATM   18  H           1     -10.503  10.005 -18.662  0.00  0.00     0.275 HD
ENDBRANCH   5  15
ENDBRANCH   4   5
BRANCH   3  19
HETATM   19  C           1     -12.593   5.461 -21.043  0.00  0.00     0.186 C 
BRANCH  19  20
HETATM   20  C           1     -13.607   4.451 -20.565  0.00  0.00     0.196 C 
HETATM   21  O           1     -14.306   4.695 -19.558  0.00  0.00    -0.646 OA
HETATM   22  O           1     -13.747   3.369 -21.177  0.00  0.00    -0.646 OA
ENDBRANCH  19  20
BRANCH  19  23
HETATM   23  C           1     -11.247   4.776 -21.239  0.00  0.00     0.045 C 
BRANCH  23  24
HETATM   24  C           1     -10.679   4.376 -19.884  0.00  0.00     0.105 C 
BRANCH  24  25
HETATM   25  C           1      -9.722   5.439 -19.403  0.00  0.00     0.215 C 
HETATM   26  O           1      -9.238   6.216 -20.191  0.00  0.00    -0.274 OA
HETATM   27  N           1      -9.405   5.525 -18.074  0.00  0.00    -0.370 N 
HETATM   28  H           1      -8.764   6.238 -17.751  0.00  0.00     0.159 HD
HETATM   29  H           1      -9.811   4.874 -17.414  0.00  0.00     0.159 HD
ENDBRANCH  24  25
ENDBRANCH  23  24
ENDBRANCH  19  23
ENDBRANCH   3  19
TORSDOF 10
ENDMDL
