MODEL 1
REMARK VINA RESULT:      -7.2      0.000      0.000
REMARK  7 active torsions:
REMARK  status: ('A' for Active; 'I' for Inactive)
REMARK    1  A    between atoms: C_7  and  C_10 
REMARK    2  A    between atoms: C_7  and  C_14 
REMARK    3  A    between atoms: C_7  and  N_22 
REMARK    4  A    between atoms: C_9  and  C_13 
REMARK    5  A    between atoms: C_11  and  C_14 
REMARK    6  A    between atoms: C_13  and  C_23 
REMARK    7  A    between atoms: C_13  and  N_19 
REMARK       I    between atoms: N_22  and  C_23 
ROOT
HETATM    1  H           1     -36.109  -1.594  -9.150  0.00  0.00     0.163 HD
HETATM    2  O           1     -33.446  -1.560 -10.109  0.00  0.00    -0.271 OA
HETATM    3  N           1     -35.660  -1.284 -10.002  0.00  0.00    -0.344 N 
HETATM    4  C           1     -34.542  -1.928 -10.461  0.00  0.00     0.249 C 
ENDROOT
BRANCH   3   5
HETATM    5  C           1     -36.201  -0.157 -10.738  0.00  0.00     0.189 C 
BRANCH   5   6
HETATM    6  C           1     -36.952   0.747  -9.792  0.00  0.00     0.197 C 
HETATM    7  O           1     -38.075   1.192 -10.112  0.00  0.00    -0.646 OA
HETATM    8  O           1     -36.451   1.051  -8.687  0.00  0.00    -0.646 OA
ENDBRANCH   5   6
BRANCH   5   9
HETATM    9  C           1     -37.147  -0.664 -11.817  0.00  0.00     0.074 C 
BRANCH   9  10
HETATM   10  C           1     -36.737  -0.106 -13.145  0.00  0.00    -0.056 A 
HETATM   11  C           1     -35.480   0.478 -13.297  0.00  0.00     0.007 A 
HETATM   12  C           1     -35.097   0.997 -14.534  0.00  0.00     0.001 A 
HETATM   13  C           1     -35.972   0.932 -15.619  0.00  0.00     0.000 A 
HETATM   14  C           1     -37.229   0.347 -15.466  0.00  0.00     0.001 A 
HETATM   15  C           1     -37.611  -0.172 -14.230  0.00  0.00     0.007 A 
ENDBRANCH   9  10
ENDBRANCH   5   9
ENDBRANCH   3   5
BRANCH   4  16
HETATM   16  C           1     -34.680  -3.096 -11.406  0.00  0.00     0.278 C 
BRANCH  16  17
HETATM   17  C           1     -33.735  -4.211 -10.976  0.00  0.00     0.017 C 
HETATM   18  C           1     -34.522  -5.501 -10.788  0.00  0.00     0.012 C 
HETATM   19  C           1     -32.672  -4.417 -12.048  0.00  0.00     0.012 C 
ENDBRANCH  16  17
BRANCH  16  20
HETATM   20  N           1     -34.332  -2.656 -12.797  0.00  0.00    -0.066 N 
HETATM   21  H           1     -34.834  -1.766 -13.017  0.00  0.00     0.275 HD
HETATM   22  H           1     -33.301  -2.500 -12.865  0.00  0.00     0.275 HD
HETATM   23  H           1     -34.619  -3.395 -13.478  0.00  0.00     0.275 HD
ENDBRANCH  16  20
ENDBRANCH   4  16
TORSDOF 7
ENDMDL
MODEL 2
REMARK VINA RESULT:      -7.2      1.542      5.085
REMARK  7 active torsions:
REMARK  status: ('A' for Active; 'I' for Inactive)
REMARK    1  A    between atoms: C_7  and  C_10 
REMARK    2  A    between atoms: C_7  and  C_14 
REMARK    3  A    between atoms: C_7  and  N_22 
REMARK    4  A    between atoms: C_9  and  C_13 
REMARK    5  A    between atoms: C_11  and  C_14 
REMARK    6  A    between atoms: C_13  and  C_23 
REMARK    7  A    between atoms: C_13  and  N_19 
REMARK       I    between atoms: N_22  and  C_23 
ROOT
HETATM    1  H           1     -36.978   0.998 -11.512  0.00  0.00     0.163 HD
HETATM    2  O           1     -37.998  -0.766 -13.476  0.00  0.00    -0.271 OA
HETATM    3  N           1     -36.784   0.042 -11.784  0.00  0.00    -0.344 N 
HETATM    4  C           1     -36.935  -0.342 -13.090  0.00  0.00     0.249 C 
ENDROOT
BRANCH   3   5
HETATM    5  C           1     -36.348  -0.921 -10.792  0.00  0.00     0.189 C 
BRANCH   5   6
HETATM    6  C           1     -36.726  -0.431  -9.416  0.00  0.00     0.197 C 
HETATM    7  O           1     -37.930  -0.337  -9.095  0.00  0.00    -0.646 OA
HETATM    8  O           1     -35.835  -0.119  -8.596  0.00  0.00    -0.646 OA
ENDBRANCH   5   6
BRANCH   5   9
HETATM    9  C           1     -34.837  -1.085 -10.875  0.00  0.00     0.074 C 
BRANCH   9  10
HETATM   10  C           1     -34.498  -2.538 -11.004  0.00  0.00    -0.056 A 
HETATM   11  C           1     -35.485  -3.504 -10.809  0.00  0.00     0.007 A 
HETATM   12  C           1     -35.169  -4.858 -10.930  0.00  0.00     0.001 A 
HETATM   13  C           1     -33.867  -5.244 -11.247  0.00  0.00     0.000 A 
HETATM   14  C           1     -32.881  -4.278 -11.443  0.00  0.00     0.001 A 
HETATM   15  C           1     -33.196  -2.925 -11.322  0.00  0.00     0.007 A 
ENDBRANCH   9  10
ENDBRANCH   5   9
ENDBRANCH   3   5
BRANCH   4  16
HETATM   16  C           1     -35.772  -0.233 -14.047  0.00  0.00     0.278 C 
BRANCH  16  17
HETATM   17  C           1     -36.277   0.229 -15.408  0.00  0.00     0.017 C 
HETATM   18  C           1     -35.699   1.602 -15.726  0.00  0.00     0.012 C 
HETATM   19  C           1     -35.839  -0.765 -16.476  0.00  0.00     0.012 C 
ENDBRANCH  16  17
BRANCH  16  20
HETATM   20  N           1     -35.115  -1.573 -14.187  0.00  0.00    -0.066 N 
HETATM   21  H           1     -35.474  -2.050 -15.045  0.00  0.00     0.275 HD
HETATM   22  H           1     -34.080  -1.447 -14.266  0.00  0.00     0.275 HD
HETATM   23  H           1     -35.332  -2.158 -13.348  0.00  0.00     0.275 HD
ENDBRANCH  16  20
ENDBRANCH   4  16
TORSDOF 7
ENDMDL
MODEL 3
REMARK VINA RESULT:      -6.4     17.516     19.572
REMARK  7 active torsions:
REMARK  status: ('A' for Active; 'I' for Inactive)
REMARK    1  A    between atoms: C_7  and  C_10 
REMARK    2  A    between atoms: C_7  and  C_14 
REMARK    3  A    between atoms: C_7  and  N_22 
REMARK    4  A    between atoms: C_9  and  C_13 
REMARK    5  A    between atoms: C_11  and  C_14 
REMARK    6  A    between atoms: C_13  and  C_23 
REMARK    7  A    between atoms: C_13  and  N_19 
REMARK       I    between atoms: N_22  and  C_23 
ROOT
HETATM    1  H           1     -19.265  -7.103  -3.227  0.00  0.00     0.163 HD
HETATM    2  O           1     -19.628  -8.468  -5.679  0.00  0.00    -0.271 OA
HETATM    3  N           1     -19.909  -7.806  -3.565  0.00  0.00    -0.344 N 
HETATM    4  C           1     -19.500  -8.715  -4.504  0.00  0.00     0.249 C 
ENDROOT
BRANCH   3   5
HETATM    5  C           1     -21.266  -7.852  -3.055  0.00  0.00     0.189 C 
BRANCH   5   6
HETATM    6  C           1     -21.896  -6.487  -3.180  0.00  0.00     0.197 C 
HETATM    7  O           1     -21.950  -5.923  -4.294  0.00  0.00    -0.646 OA
HETATM    8  O           1     -22.365  -5.919  -2.169  0.00  0.00    -0.646 OA
ENDBRANCH   5   6
BRANCH   5   9
HETATM    9  C           1     -21.244  -8.269  -1.591  0.00  0.00     0.074 C 
BRANCH   9  10
HETATM   10  C           1     -22.189  -9.412  -1.382  0.00  0.00    -0.056 A 
HETATM   11  C           1     -22.254 -10.442  -2.319  0.00  0.00     0.007 A 
HETATM   12  C           1     -23.134 -11.507  -2.124  0.00  0.00     0.001 A 
HETATM   13  C           1     -23.947 -11.542  -0.992  0.00  0.00     0.000 A 
HETATM   14  C           1     -23.880 -10.511  -0.054  0.00  0.00     0.001 A 
HETATM   15  C           1     -23.001  -9.446  -0.248  0.00  0.00     0.007 A 
ENDBRANCH   9  10
ENDBRANCH   5   9
ENDBRANCH   3   5
BRANCH   4  16
HETATM   16  C           1     -18.891 -10.025  -4.069  0.00  0.00     0.278 C 
BRANCH  16  17
HETATM   17  C           1     -18.157  -9.830  -2.748  0.00  0.00     0.017 C 
HETATM   18  C           1     -18.410 -11.030  -1.844  0.00  0.00     0.012 C 
HETATM   19  C           1     -16.663  -9.700  -3.012  0.00  0.00     0.012 C 
ENDBRANCH  16  17
BRANCH  16  20
HETATM   20  N           1     -17.922 -10.495  -5.113  0.00  0.00    -0.066 N 
HETATM   21  H           1     -17.922 -11.540  -5.143  0.00  0.00     0.275 HD
HETATM   22  H           1     -18.207 -10.120  -6.046  0.00  0.00     0.275 HD
HETATM   23  H           1     -16.963 -10.154  -4.877  0.00  0.00     0.275 HD
ENDBRANCH  16  20
ENDBRANCH   4  16
TORSDOF 7
ENDMDL
MODEL 4
REMARK VINA RESULT:      -6.2     17.548     19.861
REMARK  7 active torsions:
REMARK  status: ('A' for Active; 'I' for Inactive)
REMARK    1  A    between atoms: C_7  and  C_10 
REMARK    2  A    between atoms: C_7  and  C_14 
REMARK    3  A    between atoms: C_7  and  N_22 
REMARK    4  A    between atoms: C_9  and  C_13 
REMARK    5  A    between atoms: C_11  and  C_14 
REMARK    6  A    between atoms: C_13  and  C_23 
REMARK    7  A    between atoms: C_13  and  N_19 
REMARK       I    between atoms: N_22  and  C_23 
ROOT
HETATM    1  H           1     -22.537  -8.300  -3.625  0.00  0.00     0.163 HD
HETATM    2  O           1     -22.095  -6.158  -1.829  0.00  0.00    -0.271 OA
HETATM    3  N           1     -21.718  -7.841  -3.247  0.00  0.00    -0.344 N 
HETATM    4  C           1     -21.752  -7.305  -1.988  0.00  0.00     0.249 C 
ENDROOT
BRANCH   3   5
HETATM    5  C           1     -20.507  -7.750  -4.041  0.00  0.00     0.189 C 
BRANCH   5   6
HETATM    6  C           1     -20.732  -6.803  -5.194  0.00  0.00     0.197 C 
HETATM    7  O           1     -20.816  -7.245  -6.359  0.00  0.00    -0.646 OA
HETATM    8  O           1     -20.834  -5.574  -4.982  0.00  0.00    -0.646 OA
ENDBRANCH   5   6
BRANCH   5   9
HETATM    9  C           1     -20.149  -9.129  -4.578  0.00  0.00     0.074 C 
BRANCH   9  10
HETATM   10  C           1     -18.690  -9.386  -4.361  0.00  0.00    -0.056 A 
HETATM   11  C           1     -18.155  -9.322  -3.074  0.00  0.00     0.007 A 
HETATM   12  C           1     -16.795  -9.562  -2.871  0.00  0.00     0.001 A 
HETATM   13  C           1     -15.972  -9.868  -3.955  0.00  0.00     0.000 A 
HETATM   14  C           1     -16.508  -9.933  -5.241  0.00  0.00     0.001 A 
HETATM   15  C           1     -17.867  -9.692  -5.444  0.00  0.00     0.007 A 
ENDBRANCH   9  10
ENDBRANCH   5   9
ENDBRANCH   3   5
BRANCH   4  16
HETATM   16  C           1     -21.361  -8.148  -0.799  0.00  0.00     0.278 C 
BRANCH  16  17
HETATM   17  C           1     -21.731  -9.602  -1.064  0.00  0.00     0.017 C 
HETATM   18  C           1     -20.638 -10.513  -0.522  0.00  0.00     0.012 C 
HETATM   19  C           1     -23.049  -9.924  -0.371  0.00  0.00     0.012 C 
ENDBRANCH  16  17
BRANCH  16  20
HETATM   20  N           1     -22.088  -7.662   0.419  0.00  0.00    -0.066 N 
HETATM   21  H           1     -21.805  -6.677   0.624  0.00  0.00     0.275 HD
HETATM   22  H           1     -23.119  -7.699   0.246  0.00  0.00     0.275 HD
HETATM   23  H           1     -21.848  -8.270   1.234  0.00  0.00     0.275 HD
ENDBRANCH  16  20
ENDBRANCH   4  16
TORSDOF 7
ENDMDL
MODEL 5
REMARK VINA RESULT:      -6.2     17.070     19.544
REMARK  7 active torsions:
REMARK  status: ('A' for Active; 'I' for Inactive)
REMARK    1  A    between atoms: C_7  and  C_10 
REMARK    2  A    between atoms: C_7  and  C_14 
REMARK    3  A    between atoms: C_7  and  N_22 
REMARK    4  A    between atoms: C_9  and  C_13 
REMARK    5  A    between atoms: C_11  and  C_14 
REMARK    6  A    between atoms: C_13  and  C_23 
REMARK    7  A    between atoms: C_13  and  N_19 
REMARK       I    between atoms: N_22  and  C_23 
ROOT
HETATM    1  H           1     -18.939  -7.776  -4.512  0.00  0.00     0.163 HD
HETATM    2  O           1     -19.623 -10.044  -6.061  0.00  0.00    -0.271 OA
HETATM    3  N           1     -19.702  -8.442  -4.507  0.00  0.00    -0.344 N 
HETATM    4  C           1     -19.485  -9.735  -4.901  0.00  0.00     0.249 C 
ENDROOT
BRANCH   3   5
HETATM    5  C           1     -21.025  -8.026  -4.083  0.00  0.00     0.189 C 
BRANCH   5   6
HETATM    6  C           1     -21.615  -7.098  -5.116  0.00  0.00     0.197 C 
HETATM    7  O           1     -21.202  -7.132  -6.296  0.00  0.00    -0.646 OA
HETATM    8  O           1     -22.518  -6.295  -4.793  0.00  0.00    -0.646 OA
ENDBRANCH   5   6
BRANCH   5   9
HETATM    9  C           1     -20.925  -7.302  -2.748  0.00  0.00     0.074 C 
BRANCH   9  10
HETATM   10  C           1     -21.734  -8.033  -1.721  0.00  0.00    -0.056 A 
HETATM   11  C           1     -21.949  -9.405  -1.851  0.00  0.00     0.007 A 
HETATM   12  C           1     -22.702 -10.086  -0.894  0.00  0.00     0.001 A 
HETATM   13  C           1     -23.239  -9.395   0.192  0.00  0.00     0.000 A 
HETATM   14  C           1     -23.023  -8.023   0.322  0.00  0.00     0.001 A 
HETATM   15  C           1     -22.270  -7.342  -0.634  0.00  0.00     0.007 A 
ENDBRANCH   9  10
ENDBRANCH   5   9
ENDBRANCH   3   5
BRANCH   4  16
HETATM   16  C           1     -19.074 -10.773  -3.886  0.00  0.00     0.278 C 
BRANCH  16  17
HETATM   17  C           1     -18.391 -10.089  -2.708  0.00  0.00     0.017 C 
HETATM   18  C           1     -18.571 -10.934  -1.454  0.00  0.00     0.012 C 
HETATM   19  C           1     -16.905  -9.933  -3.005  0.00  0.00     0.012 C 
ENDBRANCH  16  17
BRANCH  16  20
HETATM   20  N           1     -18.122 -11.742  -4.521  0.00  0.00    -0.066 N 
HETATM   21  H           1     -17.944 -12.537  -3.865  0.00  0.00     0.275 HD
HETATM   22  H           1     -18.538 -12.109  -5.407  0.00  0.00     0.275 HD
HETATM   23  H           1     -17.221 -11.257  -4.733  0.00  0.00     0.275 HD
ENDBRANCH  16  20
ENDBRANCH   4  16
TORSDOF 7
ENDMDL
MODEL 6
REMARK VINA RESULT:      -6.1     14.484     17.914
REMARK  7 active torsions:
REMARK  status: ('A' for Active; 'I' for Inactive)
REMARK    1  A    between atoms: C_7  and  C_10 
REMARK    2  A    between atoms: C_7  and  C_14 
REMARK    3  A    between atoms: C_7  and  N_22 
REMARK    4  A    between atoms: C_9  and  C_13 
REMARK    5  A    between atoms: C_11  and  C_14 
REMARK    6  A    between atoms: C_13  and  C_23 
REMARK    7  A    between atoms: C_13  and  N_19 
REMARK       I    between atoms: N_22  and  C_23 
ROOT
HETATM    1  H           1     -19.076  -6.920  -6.425  0.00  0.00     0.163 HD
HETATM    2  O           1     -19.885  -4.291  -5.762  0.00  0.00    -0.271 OA
HETATM    3  N           1     -19.839  -6.520  -5.894  0.00  0.00    -0.344 N 
HETATM    4  C           1     -20.348  -5.298  -6.242  0.00  0.00     0.249 C 
ENDROOT
BRANCH   3   5
HETATM    5  C           1     -20.392  -7.240  -4.763  0.00  0.00     0.189 C 
BRANCH   5   6
HETATM    6  C           1     -21.497  -8.150  -5.239  0.00  0.00     0.197 C 
HETATM    7  O           1     -22.689  -7.784  -5.153  0.00  0.00    -0.646 OA
HETATM    8  O           1     -21.221  -9.270  -5.721  0.00  0.00    -0.646 OA
ENDBRANCH   5   6
BRANCH   5   9
HETATM    9  C           1     -20.950  -6.247  -3.753  0.00  0.00     0.074 C 
BRANCH   9  10
HETATM   10  C           1     -21.223  -6.949  -2.459  0.00  0.00    -0.056 A 
HETATM   11  C           1     -20.439  -8.038  -2.079  0.00  0.00     0.007 A 
HETATM   12  C           1     -20.692  -8.693  -0.873  0.00  0.00     0.001 A 
HETATM   13  C           1     -21.729  -8.257  -0.048  0.00  0.00     0.000 A 
HETATM   14  C           1     -22.512  -7.167  -0.428  0.00  0.00     0.001 A 
HETATM   15  C           1     -22.259  -6.513  -1.634  0.00  0.00     0.007 A 
ENDBRANCH   9  10
ENDBRANCH   5   9
ENDBRANCH   3   5
BRANCH   4  16
HETATM   16  C           1     -21.489  -5.210  -7.227  0.00  0.00     0.278 C 
BRANCH  16  17
HETATM   17  C           1     -21.194  -4.118  -8.248  0.00  0.00     0.017 C 
HETATM   18  C           1     -20.174  -4.627  -9.258  0.00  0.00     0.012 C 
HETATM   19  C           1     -22.480  -3.741  -8.973  0.00  0.00     0.012 C 
ENDBRANCH  16  17
BRANCH  16  20
HETATM   20  N           1     -22.755  -4.880  -6.495  0.00  0.00    -0.066 N 
HETATM   21  H           1     -22.650  -3.959  -6.014  0.00  0.00     0.275 HD
HETATM   22  H           1     -23.547  -4.828  -7.177  0.00  0.00     0.275 HD
HETATM   23  H           1     -22.952  -5.623  -5.788  0.00  0.00     0.275 HD
ENDBRANCH  16  20
ENDBRANCH   4  16
TORSDOF 7
ENDMDL
MODEL 7
REMARK VINA RESULT:      -5.9     17.025     19.758
REMARK  7 active torsions:
REMARK  status: ('A' for Active; 'I' for Inactive)
REMARK    1  A    between atoms: C_7  and  C_10 
REMARK    2  A    between atoms: C_7  and  C_14 
REMARK    3  A    between atoms: C_7  and  N_22 
REMARK    4  A    between atoms: C_9  and  C_13 
REMARK    5  A    between atoms: C_11  and  C_14 
REMARK    6  A    between atoms: C_13  and  C_23 
REMARK    7  A    between atoms: C_13  and  N_19 
REMARK       I    between atoms: N_22  and  C_23 
ROOT
HETATM    1  H           1     -23.008 -10.178  -4.334  0.00  0.00     0.163 HD
HETATM    2  O           1     -20.522 -10.357  -5.675  0.00  0.00    -0.271 OA
HETATM    3  N           1     -22.045 -10.287  -4.043  0.00  0.00    -0.344 N 
HETATM    4  C           1     -21.038  -9.727  -4.783  0.00  0.00     0.249 C 
ENDROOT
BRANCH   3   5
HETATM    5  C           1     -21.730 -11.036  -2.842  0.00  0.00     0.189 C 
BRANCH   5   6
HETATM    6  C           1     -21.655 -12.507  -3.172  0.00  0.00     0.197 C 
HETATM    7  O           1     -20.555 -13.099  -3.145  0.00  0.00    -0.646 OA
HETATM    8  O           1     -22.695 -13.134  -3.473  0.00  0.00    -0.646 OA
ENDBRANCH   5   6
BRANCH   5   9
HETATM    9  C           1     -22.816 -10.804  -1.800  0.00  0.00     0.074 C 
BRANCH   9  10
HETATM   10  C           1     -22.252 -10.021  -0.656  0.00  0.00    -0.056 A 
HETATM   11  C           1     -21.192 -10.538   0.088  0.00  0.00     0.007 A 
HETATM   12  C           1     -20.665  -9.807   1.154  0.00  0.00     0.001 A 
HETATM   13  C           1     -21.200  -8.560   1.475  0.00  0.00     0.000 A 
HETATM   14  C           1     -22.260  -8.042   0.730  0.00  0.00     0.001 A 
HETATM   15  C           1     -22.786  -8.772  -0.335  0.00  0.00     0.007 A 
ENDBRANCH   9  10
ENDBRANCH   5   9
ENDBRANCH   3   5
BRANCH   4  16
HETATM   16  C           1     -20.573  -8.323  -4.483  0.00  0.00     0.278 C 
BRANCH  16  17
HETATM   17  C           1     -21.723  -7.525  -3.881  0.00  0.00     0.017 C 
HETATM   18  C           1     -21.205  -6.674  -2.730  0.00  0.00     0.012 C 
HETATM   19  C           1     -22.326  -6.621  -4.949  0.00  0.00     0.012 C 
ENDBRANCH  16  17
BRANCH  16  20
HETATM   20  N           1     -20.120  -7.666  -5.751  0.00  0.00    -0.066 N 
HETATM   21  H           1     -19.078  -7.576  -5.745  0.00  0.00     0.275 HD
HETATM   22  H           1     -20.414  -8.247  -6.569  0.00  0.00     0.275 HD
HETATM   23  H           1     -20.550  -6.716  -5.825  0.00  0.00     0.275 HD
ENDBRANCH  16  20
ENDBRANCH   4  16
TORSDOF 7
ENDMDL
MODEL 8
REMARK VINA RESULT:      -5.7     17.798     19.866
REMARK  7 active torsions:
REMARK  status: ('A' for Active; 'I' for Inactive)
REMARK    1  A    between atoms: C_7  and  C_10 
REMARK    2  A    between atoms: C_7  and  C_14 
REMARK    3  A    between atoms: C_7  and  N_22 
REMARK    4  A    between atoms: C_9  and  C_13 
REMARK    5  A    between atoms: C_11  and  C_14 
REMARK    6  A    between atoms: C_13  and  C_23 
REMARK    7  A    between atoms: C_13  and  N_19 
REMARK       I    between atoms: N_22  and  C_23 
ROOT
HETATM    1  H           1     -23.223  -8.534  -2.402  0.00  0.00     0.163 HD
HETATM    2  O           1     -22.359  -8.264   0.280  0.00  0.00    -0.271 OA
HETATM    3  N           1     -22.322  -8.480  -1.943  0.00  0.00    -0.344 N 
HETATM    4  C           1     -22.168  -8.977  -0.677  0.00  0.00     0.249 C 
ENDROOT
BRANCH   3   5
HETATM    5  C           1     -21.195  -7.875  -2.626  0.00  0.00     0.189 C 
BRANCH   5   6
HETATM    6  C           1     -21.517  -6.438  -2.953  0.00  0.00     0.197 C 
HETATM    7  O           1     -22.243  -5.770  -2.186  0.00  0.00    -0.646 OA
HETATM    8  O           1     -21.058  -5.915  -3.992  0.00  0.00    -0.646 OA
ENDBRANCH   5   6
BRANCH   5   9
HETATM    9  C           1     -20.913  -8.638  -3.913  0.00  0.00     0.074 C 
BRANCH   9  10
HETATM   10  C           1     -19.476  -9.059  -3.940  0.00  0.00    -0.056 A 
HETATM   11  C           1     -18.860  -9.355  -5.156  0.00  0.00     0.007 A 
HETATM   12  C           1     -17.521  -9.747  -5.181  0.00  0.00     0.001 A 
HETATM   13  C           1     -16.799  -9.842  -3.991  0.00  0.00     0.000 A 
HETATM   14  C           1     -17.416  -9.545  -2.776  0.00  0.00     0.001 A 
HETATM   15  C           1     -18.755  -9.153  -2.750  0.00  0.00     0.007 A 
ENDBRANCH   9  10
ENDBRANCH   5   9
ENDBRANCH   3   5
BRANCH   4  16
HETATM   16  C           1     -21.759 -10.416  -0.476  0.00  0.00     0.278 C 
BRANCH  16  17
HETATM   17  C           1     -22.931 -11.201   0.100  0.00  0.00     0.017 C 
HETATM   18  C           1     -23.934 -11.505  -1.005  0.00  0.00     0.012 C 
HETATM   19  C           1     -22.422 -12.507   0.697  0.00  0.00     0.012 C 
ENDBRANCH  16  17
BRANCH  16  20
HETATM   20  N           1     -20.601 -10.478   0.474  0.00  0.00    -0.066 N 
HETATM   21  H           1     -20.732 -11.281   1.131  0.00  0.00     0.275 HD
HETATM   22  H           1     -19.715 -10.611  -0.065  0.00  0.00     0.275 HD
HETATM   23  H           1     -20.549  -9.588   1.019  0.00  0.00     0.275 HD
ENDBRANCH  16  20
ENDBRANCH   4  16
TORSDOF 7
ENDMDL
MODEL 9
REMARK VINA RESULT:      -5.7      2.057      5.685
REMARK  7 active torsions:
REMARK  status: ('A' for Active; 'I' for Inactive)
REMARK    1  A    between atoms: C_7  and  C_10 
REMARK    2  A    between atoms: C_7  and  C_14 
REMARK    3  A    between atoms: C_7  and  N_22 
REMARK    4  A    between atoms: C_9  and  C_13 
REMARK    5  A    between atoms: C_11  and  C_14 
REMARK    6  A    between atoms: C_13  and  C_23 
REMARK    7  A    between atoms: C_13  and  N_19 
REMARK       I    between atoms: N_22  and  C_23 
ROOT
HETATM    1  H           1     -34.453  -0.296 -12.728  0.00  0.00     0.163 HD
HETATM    2  O           1     -37.098   0.655 -12.401  0.00  0.00    -0.271 OA
HETATM    3  N           1     -35.363  -0.730 -12.641  0.00  0.00    -0.344 N 
HETATM    4  C           1     -36.475  -0.091 -13.119  0.00  0.00     0.249 C 
ENDROOT
BRANCH   3   5
HETATM    5  C           1     -35.489  -2.030 -12.011  0.00  0.00     0.189 C 
BRANCH   5   6
HETATM    6  C           1     -36.011  -1.858 -10.606  0.00  0.00     0.197 C 
HETATM    7  O           1     -36.986  -2.535 -10.214  0.00  0.00    -0.646 OA
HETATM    8  O           1     -35.469  -1.038  -9.832  0.00  0.00    -0.646 OA
ENDBRANCH   5   6
BRANCH   5   9
HETATM    9  C           1     -34.126  -2.707 -11.967  0.00  0.00     0.074 C 
BRANCH   9  10
HETATM   10  C           1     -34.298  -4.153 -11.619  0.00  0.00    -0.056 A 
HETATM   11  C           1     -33.866  -4.628 -10.381  0.00  0.00     0.007 A 
HETATM   12  C           1     -34.026  -5.977 -10.057  0.00  0.00     0.001 A 
HETATM   13  C           1     -34.618  -6.848 -10.971  0.00  0.00     0.000 A 
HETATM   14  C           1     -35.051  -6.371 -12.209  0.00  0.00     0.001 A 
HETATM   15  C           1     -34.891  -5.025 -12.533  0.00  0.00     0.007 A 
ENDBRANCH   9  10
ENDBRANCH   5   9
ENDBRANCH   3   5
BRANCH   4  16
HETATM   16  C           1     -36.922  -0.318 -14.542  0.00  0.00     0.278 C 
BRANCH  16  17
HETATM   17  C           1     -35.761  -0.043 -15.489  0.00  0.00     0.017 C 
HETATM   18  C           1     -35.906  -0.904 -16.737  0.00  0.00     0.012 C 
HETATM   19  C           1     -35.766   1.429 -15.884  0.00  0.00     0.012 C 
ENDBRANCH  16  17
BRANCH  16  20
HETATM   20  N           1     -38.057   0.609 -14.862  0.00  0.00    -0.066 N 
HETATM   21  H           1     -38.965   0.131 -14.662  0.00  0.00     0.275 HD
HETATM   22  H           1     -37.980   1.470 -14.274  0.00  0.00     0.275 HD
HETATM   23  H           1     -38.018   0.871 -15.873  0.00  0.00     0.275 HD
ENDBRANCH  16  20
ENDBRANCH   4  16
TORSDOF 7
ENDMDL
