MODEL 1
REMARK VINA RESULT:      -6.0      0.000      0.000
REMARK  5 active torsions:
REMARK  status: ('A' for Active; 'I' for Inactive)
REMARK    1  A    between atoms: C_1  and  C_6 
REMARK    2  A    between atoms: C_3  and  C_5 
REMARK    3  A    between atoms: C_3  and  C_11 
REMARK    4  A    between atoms: C_3  and  N_14 
REMARK       I    between atoms: C_5  and  N_18 
REMARK    5  A    between atoms: C_11  and  O_12 
ROOT
HETATM    1  C           1     -27.032  -6.791 -15.938  0.00  0.00     0.253 C 
HETATM    2  C           1     -29.486  -6.510 -16.521  0.00  0.00     0.188 C 
HETATM    3  C           1     -30.114  -5.144 -16.734  0.00  0.00     0.038 C 
HETATM    4  C           1     -29.108  -4.372 -17.581  0.00  0.00     0.022 C 
HETATM    5  C           1     -27.955  -5.336 -17.801  0.00  0.00     0.127 C 
HETATM    6  N           1     -28.056  -6.265 -16.680  0.00  0.00    -0.336 N 
HETATM    7  O           1     -27.273  -7.554 -15.033  0.00  0.00    -0.271 OA
ENDROOT
BRANCH   1   8
HETATM    8  C           1     -25.604  -6.418 -16.252  0.00  0.00     0.302 C 
BRANCH   8   9
HETATM    9  C           1     -24.945  -7.546 -17.035  0.00  0.00     0.153 C 
HETATM   10  C           1     -24.325  -6.984 -18.307  0.00  0.00     0.042 C 
BRANCH   9  11
HETATM   11  O           1     -23.946  -8.138 -16.251  0.00  0.00    -0.393 OA
HETATM   12  H           1     -23.908  -7.654 -15.443  0.00  0.00     0.210 HD
ENDBRANCH   9  11
ENDBRANCH   8   9
BRANCH   8  13
HETATM   13  N           1     -24.854  -6.194 -14.972  0.00  0.00    -0.064 N 
HETATM   14  H           1     -25.020  -5.218 -14.639  0.00  0.00     0.275 HD
HETATM   15  H           1     -23.832  -6.338 -15.137  0.00  0.00     0.275 HD
HETATM   16  H           1     -25.189  -6.870 -14.249  0.00  0.00     0.275 HD
ENDBRANCH   8  13
ENDBRANCH   1   8
BRANCH   2  17
HETATM   17  C           1     -29.981  -7.494 -17.553  0.00  0.00     0.196 C 
HETATM   18  O           1     -29.396  -8.589 -17.704  0.00  0.00    -0.646 OA
HETATM   19  O           1     -30.975  -7.215 -18.256  0.00  0.00    -0.646 OA
ENDBRANCH   2  17
TORSDOF 5
ENDMDL
MODEL 2
REMARK VINA RESULT:      -5.9      8.767     10.525
REMARK  5 active torsions:
REMARK  status: ('A' for Active; 'I' for Inactive)
REMARK    1  A    between atoms: C_1  and  C_6 
REMARK    2  A    between atoms: C_3  and  C_5 
REMARK    3  A    between atoms: C_3  and  C_11 
REMARK    4  A    between atoms: C_3  and  N_14 
REMARK       I    between atoms: C_5  and  N_18 
REMARK    5  A    between atoms: C_11  and  O_12 
ROOT
HETATM    1  C           1     -21.812  -4.638  -7.904  0.00  0.00     0.253 C 
HETATM    2  C           1     -22.540  -3.745 -10.166  0.00  0.00     0.188 C 
HETATM    3  C           1     -21.587  -2.998 -11.083  0.00  0.00     0.038 C 
HETATM    4  C           1     -20.287  -3.794 -11.038  0.00  0.00     0.022 C 
HETATM    5  C           1     -20.564  -4.949 -10.091  0.00  0.00     0.127 C 
HETATM    6  N           1     -21.654  -4.462  -9.252  0.00  0.00    -0.336 N 
HETATM    7  O           1     -22.775  -4.172  -7.343  0.00  0.00    -0.271 OA
ENDROOT
BRANCH   1   8
HETATM    8  C           1     -20.784  -5.415  -7.119  0.00  0.00     0.302 C 
BRANCH   8   9
HETATM    9  C           1     -21.484  -6.457  -6.258  0.00  0.00     0.153 C 
HETATM   10  C           1     -20.443  -7.353  -5.600  0.00  0.00     0.042 C 
BRANCH   9  11
HETATM   11  O           1     -22.240  -5.816  -5.268  0.00  0.00    -0.393 OA
HETATM   12  H           1     -23.064  -6.270  -5.215  0.00  0.00     0.210 HD
ENDBRANCH   9  11
ENDBRANCH   8   9
BRANCH   8  13
HETATM   13  N           1     -20.014  -4.475  -6.239  0.00  0.00    -0.064 N 
HETATM   14  H           1     -20.679  -3.920  -5.657  0.00  0.00     0.275 HD
HETATM   15  H           1     -19.446  -3.829  -6.833  0.00  0.00     0.275 HD
HETATM   16  H           1     -19.379  -5.024  -5.616  0.00  0.00     0.275 HD
ENDBRANCH   8  13
ENDBRANCH   1   8
BRANCH   2  17
HETATM   17  C           1     -23.397  -4.708 -10.951  0.00  0.00     0.196 C 
HETATM   18  O           1     -23.452  -4.623 -12.196  0.00  0.00    -0.646 OA
HETATM   19  O           1     -24.050  -5.590 -10.354  0.00  0.00    -0.646 OA
ENDBRANCH   2  17
TORSDOF 5
ENDMDL
MODEL 3
REMARK VINA RESULT:      -5.5      2.941      3.726
REMARK  5 active torsions:
REMARK  status: ('A' for Active; 'I' for Inactive)
REMARK    1  A    between atoms: C_1  and  C_6 
REMARK    2  A    between atoms: C_3  and  C_5 
REMARK    3  A    between atoms: C_3  and  C_11 
REMARK    4  A    between atoms: C_3  and  N_14 
REMARK       I    between atoms: C_5  and  N_18 
REMARK    5  A    between atoms: C_11  and  O_12 
ROOT
HETATM    1  C           1     -26.019  -6.374 -19.084  0.00  0.00     0.253 C 
HETATM    2  C           1     -27.063  -5.688 -16.874  0.00  0.00     0.188 C 
HETATM    3  C           1     -27.980  -4.484 -16.755  0.00  0.00     0.038 C 
HETATM    4  C           1     -28.908  -4.570 -17.962  0.00  0.00     0.022 C 
HETATM    5  C           1     -28.467  -5.815 -18.712  0.00  0.00     0.127 C 
HETATM    6  N           1     -27.077  -5.997 -18.302  0.00  0.00    -0.336 N 
HETATM    7  O           1     -24.919  -6.483 -18.599  0.00  0.00    -0.271 OA
ENDROOT
BRANCH   1   8
HETATM    8  C           1     -26.228  -6.654 -20.552  0.00  0.00     0.302 C 
BRANCH   8   9
HETATM    9  C           1     -26.133  -8.152 -20.802  0.00  0.00     0.153 C 
HETATM   10  C           1     -27.501  -8.688 -21.201  0.00  0.00     0.042 C 
BRANCH   9  11
HETATM   11  O           1     -25.217  -8.397 -21.834  0.00  0.00    -0.393 OA
HETATM   12  H           1     -24.459  -7.864 -21.660  0.00  0.00     0.210 HD
ENDBRANCH   9  11
ENDBRANCH   8   9
BRANCH   8  13
HETATM   13  N           1     -25.174  -5.945 -21.350  0.00  0.00    -0.064 N 
HETATM   14  H           1     -25.619  -5.198 -21.928  0.00  0.00     0.275 HD
HETATM   15  H           1     -24.691  -6.630 -21.975  0.00  0.00     0.275 HD
HETATM   16  H           1     -24.476  -5.515 -20.701  0.00  0.00     0.275 HD
ENDBRANCH   8  13
ENDBRANCH   1   8
BRANCH   2  17
HETATM   17  C           1     -27.592  -6.849 -16.068  0.00  0.00     0.196 C 
HETATM   18  O           1     -26.810  -7.542 -15.381  0.00  0.00    -0.646 OA
HETATM   19  O           1     -28.813  -7.116 -16.086  0.00  0.00    -0.646 OA
ENDBRANCH   2  17
TORSDOF 5
ENDMDL
MODEL 4
REMARK VINA RESULT:      -5.2      8.925     10.853
REMARK  5 active torsions:
REMARK  status: ('A' for Active; 'I' for Inactive)
REMARK    1  A    between atoms: C_1  and  C_6 
REMARK    2  A    between atoms: C_3  and  C_5 
REMARK    3  A    between atoms: C_3  and  C_11 
REMARK    4  A    between atoms: C_3  and  N_14 
REMARK       I    between atoms: C_5  and  N_18 
REMARK    5  A    between atoms: C_11  and  O_12 
ROOT
HETATM    1  C           1     -21.267  -5.173  -8.062  0.00  0.00     0.253 C 
HETATM    2  C           1     -21.951  -4.636 -10.447  0.00  0.00     0.188 C 
HETATM    3  C           1     -23.392  -4.732 -10.914  0.00  0.00     0.038 C 
HETATM    4  C           1     -24.215  -4.097  -9.798  0.00  0.00     0.022 C 
HETATM    5  C           1     -23.199  -3.678  -8.748  0.00  0.00     0.127 C 
HETATM    6  N           1     -22.060  -4.557  -8.993  0.00  0.00    -0.336 N 
HETATM    7  O           1     -20.353  -5.877  -8.419  0.00  0.00    -0.271 OA
ENDROOT
BRANCH   1   8
HETATM    8  C           1     -21.535  -4.972  -6.591  0.00  0.00     0.302 C 
BRANCH   8   9
HETATM    9  C           1     -20.759  -6.006  -5.787  0.00  0.00     0.153 C 
HETATM   10  C           1     -21.119  -5.878  -4.313  0.00  0.00     0.042 C 
BRANCH   9  11
HETATM   11  O           1     -21.088  -7.291  -6.238  0.00  0.00    -0.393 OA
HETATM   12  H           1     -20.296  -7.674  -6.578  0.00  0.00     0.210 HD
ENDBRANCH   9  11
ENDBRANCH   8   9
BRANCH   8  13
HETATM   13  N           1     -23.002  -5.130  -6.324  0.00  0.00    -0.064 N 
HETATM   14  H           1     -23.362  -4.276  -5.842  0.00  0.00     0.275 HD
HETATM   15  H           1     -23.158  -5.966  -5.717  0.00  0.00     0.275 HD
HETATM   16  H           1     -23.509  -5.257  -7.230  0.00  0.00     0.275 HD
ENDBRANCH   8  13
ENDBRANCH   1   8
BRANCH   2  17
HETATM   17  C           1     -21.287  -3.400 -11.004  0.00  0.00     0.196 C 
HETATM   18  O           1     -21.951  -2.585 -11.680  0.00  0.00    -0.646 OA
HETATM   19  O           1     -20.074  -3.192 -10.788  0.00  0.00    -0.646 OA
ENDBRANCH   2  17
TORSDOF 5
ENDMDL
MODEL 5
REMARK VINA RESULT:      -5.1      2.001      2.439
REMARK  5 active torsions:
REMARK  status: ('A' for Active; 'I' for Inactive)
REMARK    1  A    between atoms: C_1  and  C_6 
REMARK    2  A    between atoms: C_3  and  C_5 
REMARK    3  A    between atoms: C_3  and  C_11 
REMARK    4  A    between atoms: C_3  and  N_14 
REMARK       I    between atoms: C_5  and  N_18 
REMARK    5  A    between atoms: C_11  and  O_12 
ROOT
HETATM    1  C           1     -28.038  -6.384 -17.229  0.00  0.00     0.253 C 
HETATM    2  C           1     -30.496  -5.986 -16.736  0.00  0.00     0.188 C 
HETATM    3  C           1     -31.061  -4.593 -16.523  0.00  0.00     0.038 C 
HETATM    4  C           1     -30.425  -3.736 -17.613  0.00  0.00     0.022 C 
HETATM    5  C           1     -29.525  -4.684 -18.386  0.00  0.00     0.127 C 
HETATM    6  N           1     -29.234  -5.748 -17.430  0.00  0.00    -0.336 N 
HETATM    7  O           1     -27.950  -7.253 -16.395  0.00  0.00    -0.271 OA
ENDROOT
BRANCH   1   8
HETATM    8  C           1     -26.831  -6.000 -18.049  0.00  0.00     0.302 C 
BRANCH   8   9
HETATM    9  C           1     -27.056  -6.399 -19.501  0.00  0.00     0.153 C 
HETATM   10  C           1     -25.730  -6.811 -20.125  0.00  0.00     0.042 C 
BRANCH   9  11
HETATM   11  O           1     -27.952  -7.476 -19.557  0.00  0.00    -0.393 OA
HETATM   12  H           1     -27.435  -8.263 -19.566  0.00  0.00     0.210 HD
ENDBRANCH   9  11
ENDBRANCH   8   9
BRANCH   8  13
HETATM   13  N           1     -25.621  -6.708 -17.518  0.00  0.00    -0.064 N 
HETATM   14  H           1     -25.051  -6.043 -16.949  0.00  0.00     0.275 HD
HETATM   15  H           1     -25.048  -7.065 -18.316  0.00  0.00     0.275 HD
HETATM   16  H           1     -25.921  -7.510 -16.919  0.00  0.00     0.275 HD
ENDBRANCH   8  13
ENDBRANCH   1   8
BRANCH   2  17
HETATM   17  C           1     -31.427  -6.819 -17.582  0.00  0.00     0.196 C 
HETATM   18  O           1     -32.664  -6.723 -17.431  0.00  0.00    -0.646 OA
HETATM   19  O           1     -30.960  -7.605 -18.435  0.00  0.00    -0.646 OA
ENDBRANCH   2  17
TORSDOF 5
ENDMDL
MODEL 6
REMARK VINA RESULT:      -4.9     11.075     13.098
REMARK  5 active torsions:
REMARK  status: ('A' for Active; 'I' for Inactive)
REMARK    1  A    between atoms: C_1  and  C_6 
REMARK    2  A    between atoms: C_3  and  C_5 
REMARK    3  A    between atoms: C_3  and  C_11 
REMARK    4  A    between atoms: C_3  and  N_14 
REMARK       I    between atoms: C_5  and  N_18 
REMARK    5  A    between atoms: C_11  and  O_12 
ROOT
HETATM    1  C           1     -20.712  -6.164  -6.598  0.00  0.00     0.253 C 
HETATM    2  C           1     -20.474  -7.822  -4.691  0.00  0.00     0.188 C 
HETATM    3  C           1     -20.663  -7.415  -3.240  0.00  0.00     0.038 C 
HETATM    4  C           1     -21.902  -6.526  -3.235  0.00  0.00     0.022 C 
HETATM    5  C           1     -22.351  -6.466  -4.684  0.00  0.00     0.127 C 
HETATM    6  N           1     -21.137  -6.758  -5.440  0.00  0.00    -0.336 N 
HETATM    7  O           1     -19.677  -6.515  -7.111  0.00  0.00    -0.271 OA
ENDROOT
BRANCH   1   8
HETATM    8  C           1     -21.537  -5.071  -7.232  0.00  0.00     0.302 C 
BRANCH   8   9
HETATM    9  C           1     -21.356  -5.111  -8.743  0.00  0.00     0.153 C 
HETATM   10  C           1     -22.507  -4.370  -9.411  0.00  0.00     0.042 C 
BRANCH   9  11
HETATM   11  O           1     -20.144  -4.496  -9.086  0.00  0.00    -0.393 OA
HETATM   12  H           1     -20.093  -4.497 -10.027  0.00  0.00     0.210 HD
ENDBRANCH   9  11
ENDBRANCH   8   9
BRANCH   8  13
HETATM   13  N           1     -21.087  -3.739  -6.710  0.00  0.00    -0.064 N 
HETATM   14  H           1     -20.136  -3.833  -6.290  0.00  0.00     0.275 HD
HETATM   15  H           1     -21.759  -3.406  -5.981  0.00  0.00     0.275 HD
HETATM   16  H           1     -21.056  -3.050  -7.495  0.00  0.00     0.275 HD
ENDBRANCH   8  13
ENDBRANCH   1   8
BRANCH   2  17
HETATM   17  C           1     -21.124  -9.156  -4.963  0.00  0.00     0.196 C 
HETATM   18  O           1     -21.124  -9.627  -6.121  0.00  0.00    -0.646 OA
HETATM   19  O           1     -21.661  -9.791  -4.030  0.00  0.00    -0.646 OA
ENDBRANCH   2  17
TORSDOF 5
ENDMDL
MODEL 7
REMARK VINA RESULT:      -4.9     14.552     16.321
REMARK  5 active torsions:
REMARK  status: ('A' for Active; 'I' for Inactive)
REMARK    1  A    between atoms: C_1  and  C_6 
REMARK    2  A    between atoms: C_3  and  C_5 
REMARK    3  A    between atoms: C_3  and  C_11 
REMARK    4  A    between atoms: C_3  and  N_14 
REMARK       I    between atoms: C_5  and  N_18 
REMARK    5  A    between atoms: C_11  and  O_12 
ROOT
HETATM    1  C           1     -21.192  -8.969  -1.396  0.00  0.00     0.253 C 
HETATM    2  C           1     -20.775  -7.425  -3.367  0.00  0.00     0.188 C 
HETATM    3  C           1     -20.193  -7.928  -4.676  0.00  0.00     0.038 C 
HETATM    4  C           1     -20.926  -9.233  -4.963  0.00  0.00     0.022 C 
HETATM    5  C           1     -21.884  -9.412  -3.798  0.00  0.00     0.127 C 
HETATM    6  N           1     -21.276  -8.636  -2.721  0.00  0.00    -0.336 N 
HETATM    7  O           1     -20.655  -8.219  -0.618  0.00  0.00    -0.271 OA
ENDROOT
BRANCH   1   8
HETATM    8  C           1     -21.772 -10.275  -0.909  0.00  0.00     0.302 C 
BRANCH   8   9
HETATM    9  C           1     -23.248 -10.087  -0.590  0.00  0.00     0.153 C 
HETATM   10  C           1     -23.805 -11.370   0.011  0.00  0.00     0.042 C 
BRANCH   9  11
HETATM   11  O           1     -23.399  -9.038   0.327  0.00  0.00    -0.393 OA
HETATM   12  H           1     -24.321  -8.966   0.512  0.00  0.00     0.210 HD
ENDBRANCH   9  11
ENDBRANCH   8   9
BRANCH   8  13
HETATM   13  N           1     -21.045 -10.712   0.328  0.00  0.00    -0.064 N 
HETATM   14  H           1     -21.148  -9.982   1.068  0.00  0.00     0.275 HD
HETATM   15  H           1     -20.032 -10.847   0.108  0.00  0.00     0.275 HD
HETATM   16  H           1     -21.450 -11.614   0.669  0.00  0.00     0.275 HD
ENDBRANCH   8  13
ENDBRANCH   1   8
BRANCH   2  17
HETATM   17  C           1     -21.897  -6.447  -3.619  0.00  0.00     0.196 C 
HETATM   18  O           1     -22.160  -6.084  -4.786  0.00  0.00    -0.646 OA
HETATM   19  O           1     -22.563  -6.001  -2.660  0.00  0.00    -0.646 OA
ENDBRANCH   2  17
TORSDOF 5
ENDMDL
MODEL 8
REMARK VINA RESULT:      -4.9      2.661      3.248
REMARK  5 active torsions:
REMARK  status: ('A' for Active; 'I' for Inactive)
REMARK    1  A    between atoms: C_1  and  C_6 
REMARK    2  A    between atoms: C_3  and  C_5 
REMARK    3  A    between atoms: C_3  and  C_11 
REMARK    4  A    between atoms: C_3  and  N_14 
REMARK       I    between atoms: C_5  and  N_18 
REMARK    5  A    between atoms: C_11  and  O_12 
ROOT
HETATM    1  C           1     -28.148  -6.335 -18.566  0.00  0.00     0.253 C 
HETATM    2  C           1     -29.896  -5.761 -16.817  0.00  0.00     0.188 C 
HETATM    3  C           1     -29.580  -5.753 -15.332  0.00  0.00     0.038 C 
HETATM    4  C           1     -28.229  -5.055 -15.217  0.00  0.00     0.022 C 
HETATM    5  C           1     -27.842  -4.706 -16.644  0.00  0.00     0.127 C 
HETATM    6  N           1     -28.585  -5.667 -17.454  0.00  0.00    -0.336 N 
HETATM    7  O           1     -28.884  -7.106 -19.135  0.00  0.00    -0.271 OA
ENDROOT
BRANCH   1   8
HETATM    8  C           1     -26.748  -6.108 -19.081  0.00  0.00     0.302 C 
BRANCH   8   9
HETATM    9  C           1     -26.629  -6.670 -20.491  0.00  0.00     0.153 C 
HETATM   10  C           1     -25.283  -6.274 -21.082  0.00  0.00     0.042 C 
BRANCH   9  11
HETATM   11  O           1     -26.727  -8.067 -20.448  0.00  0.00    -0.393 OA
HETATM   12  H           1     -26.454  -8.387 -21.291  0.00  0.00     0.210 HD
ENDBRANCH   9  11
ENDBRANCH   8   9
BRANCH   8  13
HETATM   13  N           1     -25.768  -6.800 -18.182  0.00  0.00    -0.064 N 
HETATM   14  H           1     -24.818  -6.774 -18.617  0.00  0.00     0.275 HD
HETATM   15  H           1     -26.061  -7.794 -18.046  0.00  0.00     0.275 HD
HETATM   16  H           1     -25.740  -6.315 -17.257  0.00  0.00     0.275 HD
ENDBRANCH   8  13
ENDBRANCH   1   8
BRANCH   2  17
HETATM   17  C           1     -30.759  -4.580 -17.188  0.00  0.00     0.196 C 
HETATM   18  O           1     -31.782  -4.318 -16.519  0.00  0.00    -0.646 OA
HETATM   19  O           1     -30.451  -3.863 -18.164  0.00  0.00    -0.646 OA
ENDBRANCH   2  17
TORSDOF 5
ENDMDL
MODEL 9
REMARK VINA RESULT:      -4.9      2.584      4.449
REMARK  5 active torsions:
REMARK  status: ('A' for Active; 'I' for Inactive)
REMARK    1  A    between atoms: C_1  and  C_6 
REMARK    2  A    between atoms: C_3  and  C_5 
REMARK    3  A    between atoms: C_3  and  C_11 
REMARK    4  A    between atoms: C_3  and  N_14 
REMARK       I    between atoms: C_5  and  N_18 
REMARK    5  A    between atoms: C_11  and  O_12 
ROOT
HETATM    1  C           1     -27.746  -5.741 -18.444  0.00  0.00     0.253 C 
HETATM    2  C           1     -26.854  -6.702 -20.617  0.00  0.00     0.188 C 
HETATM    3  C           1     -25.425  -6.471 -21.075  0.00  0.00     0.038 C 
HETATM    4  C           1     -24.571  -6.672 -19.827  0.00  0.00     0.022 C 
HETATM    5  C           1     -25.559  -6.999 -18.721  0.00  0.00     0.127 C 
HETATM    6  N           1     -26.813  -6.414 -19.186  0.00  0.00    -0.336 N 
HETATM    7  O           1     -28.742  -5.310 -18.973  0.00  0.00    -0.271 OA
ENDROOT
BRANCH   1   8
HETATM    8  C           1     -27.529  -5.538 -16.964  0.00  0.00     0.302 C 
BRANCH   8   9
HETATM    9  C           1     -28.347  -6.560 -16.187  0.00  0.00     0.153 C 
HETATM   10  C           1     -29.429  -5.843 -15.390  0.00  0.00     0.042 C 
BRANCH   9  11
HETATM   11  O           1     -28.945  -7.459 -17.081  0.00  0.00    -0.393 OA
HETATM   12  H           1     -29.589  -7.944 -16.593  0.00  0.00     0.210 HD
ENDBRANCH   9  11
ENDBRANCH   8   9
BRANCH   8  13
HETATM   13  N           1     -27.963  -4.155 -16.581  0.00  0.00    -0.064 N 
HETATM   14  H           1     -27.223  -3.470 -16.854  0.00  0.00     0.275 HD
HETATM   15  H           1     -28.116  -4.111 -15.548  0.00  0.00     0.275 HD
HETATM   16  H           1     -28.854  -3.920 -17.075  0.00  0.00     0.275 HD
ENDBRANCH   8  13
ENDBRANCH   1   8
BRANCH   2  17
HETATM   17  C           1     -27.274  -8.129 -20.866  0.00  0.00     0.196 C 
HETATM   18  O           1     -26.593  -8.860 -21.618  0.00  0.00    -0.646 OA
HETATM   19  O           1     -28.304  -8.582 -20.320  0.00  0.00    -0.646 OA
ENDBRANCH   2  17
TORSDOF 5
ENDMDL
