MODEL 1
REMARK VINA RESULT:      -6.8      0.000      0.000
REMARK  9 active torsions:
REMARK  status: ('A' for Active; 'I' for Inactive)
REMARK       I    between atoms: N_2  and  C_3 
REMARK    1  A    between atoms: C_3  and  C_4 
REMARK    2  A    between atoms: C_4  and  C_5 
REMARK    3  A    between atoms: C_5  and  C_6 
REMARK    4  A    between atoms: C_5  and  N_20 
REMARK       I    between atoms: C_6  and  N_7 
REMARK    5  A    between atoms: N_7  and  C_11 
REMARK    6  A    between atoms: C_10  and  C_11 
REMARK    7  A    between atoms: C_11  and  C_12 
REMARK    8  A    between atoms: C_12  and  C_13 
REMARK    9  A    between atoms: C_13  and  C_15 
REMARK       I    between atoms: N_14  and  C_15 
ROOT
HETATM    1  C           1     -34.303  -2.471 -12.325  0.00  0.00     0.249 C 
HETATM    2  N           1     -34.994  -1.634 -13.159  0.00  0.00    -0.345 N 
HETATM    3  O           1     -33.817  -2.041 -11.306  0.00  0.00    -0.271 OA
HETATM    4  H           1     -35.402  -1.994 -14.014  0.00  0.00     0.163 HD
ENDROOT
BRANCH   1   5
HETATM    5  C           1     -34.149  -3.930 -12.678  0.00  0.00     0.283 C 
BRANCH   5   6
HETATM    6  C           1     -33.077  -4.555 -11.795  0.00  0.00     0.145 C 
BRANCH   6   7
HETATM    7  C           1     -33.676  -5.687 -10.998  0.00  0.00     0.217 C 
HETATM    8  O           1     -34.669  -5.499 -10.335  0.00  0.00    -0.274 OA
HETATM    9  N           1     -33.095  -6.926 -11.023  0.00  0.00    -0.370 N 
HETATM   10  H           1     -33.496  -7.685 -10.488  0.00  0.00     0.159 HD
HETATM   11  H           1     -32.263  -7.083 -11.578  0.00  0.00     0.159 HD
ENDBRANCH   6   7
ENDBRANCH   5   6
BRANCH   5  12
HETATM   12  N           1     -33.747  -4.055 -14.117  0.00  0.00    -0.066 N 
HETATM   13  H           1     -34.221  -4.885 -14.542  0.00  0.00     0.275 HD
HETATM   14  H           1     -34.029  -3.192 -14.634  0.00  0.00     0.275 HD
HETATM   15  H           1     -32.711  -4.178 -14.180  0.00  0.00     0.275 HD
ENDBRANCH   5  12
ENDBRANCH   1   5
BRANCH   2  16
HETATM   16  C           1     -35.144  -0.232 -12.821  0.00  0.00     0.186 C 
BRANCH  16  17
HETATM   17  C           1     -36.368  -0.052 -11.959  0.00  0.00     0.196 C 
HETATM   18  O           1     -36.258   0.428 -10.809  0.00  0.00    -0.646 OA
HETATM   19  O           1     -37.494  -0.379 -12.393  0.00  0.00    -0.646 OA
ENDBRANCH  16  17
BRANCH  16  20
HETATM   20  C           1     -35.294   0.585 -14.097  0.00  0.00     0.045 C 
BRANCH  20  21
HETATM   21  C           1     -35.494  -0.352 -15.281  0.00  0.00     0.105 C 
BRANCH  21  22
HETATM   22  C           1     -36.867  -0.133 -15.870  0.00  0.00     0.215 C 
HETATM   23  N           1     -37.743   0.724 -15.260  0.00  0.00    -0.370 N 
HETATM   24  H           1     -37.471   1.210 -14.416  0.00  0.00     0.159 HD
HETATM   25  H           1     -38.664   0.871 -15.655  0.00  0.00     0.159 HD
HETATM   26  O           1     -37.192  -0.714 -16.878  0.00  0.00    -0.274 OA
ENDBRANCH  21  22
ENDBRANCH  20  21
ENDBRANCH  16  20
ENDBRANCH   2  16
TORSDOF 9
ENDMDL
MODEL 2
REMARK VINA RESULT:      -6.7     10.004     11.334
REMARK  9 active torsions:
REMARK  status: ('A' for Active; 'I' for Inactive)
REMARK       I    between atoms: N_2  and  C_3 
REMARK    1  A    between atoms: C_3  and  C_4 
REMARK    2  A    between atoms: C_4  and  C_5 
REMARK    3  A    between atoms: C_5  and  C_6 
REMARK    4  A    between atoms: C_5  and  N_20 
REMARK       I    between atoms: C_6  and  N_7 
REMARK    5  A    between atoms: N_7  and  C_11 
REMARK    6  A    between atoms: C_10  and  C_11 
REMARK    7  A    between atoms: C_11  and  C_12 
REMARK    8  A    between atoms: C_12  and  C_13 
REMARK    9  A    between atoms: C_13  and  C_15 
REMARK       I    between atoms: N_14  and  C_15 
ROOT
HETATM    1  C           1     -26.233  -6.507 -18.609  0.00  0.00     0.249 C 
HETATM    2  N           1     -27.496  -6.705 -19.099  0.00  0.00    -0.345 N 
HETATM    3  O           1     -26.081  -6.095 -17.483  0.00  0.00    -0.271 OA
HETATM    4  H           1     -27.625  -7.050 -20.042  0.00  0.00     0.163 HD
ENDROOT
BRANCH   1   5
HETATM    5  C           1     -25.033  -6.803 -19.474  0.00  0.00     0.283 C 
BRANCH   5   6
HETATM    6  C           1     -25.429  -7.781 -20.573  0.00  0.00     0.145 C 
BRANCH   6   7
HETATM    7  C           1     -24.273  -7.965 -21.524  0.00  0.00     0.217 C 
HETATM    8  O           1     -24.203  -7.295 -22.528  0.00  0.00    -0.274 OA
HETATM    9  N           1     -23.303  -8.892 -21.252  0.00  0.00    -0.370 N 
HETATM   10  H           1     -22.527  -9.016 -21.890  0.00  0.00     0.159 HD
HETATM   11  H           1     -23.362  -9.454 -20.412  0.00  0.00     0.159 HD
ENDBRANCH   6   7
ENDBRANCH   5   6
BRANCH   5  12
HETATM   12  N           1     -23.950  -7.410 -18.633  0.00  0.00    -0.066 N 
HETATM   13  H           1     -23.344  -8.019 -19.229  0.00  0.00     0.275 HD
HETATM   14  H           1     -23.370  -6.650 -18.211  0.00  0.00     0.275 HD
HETATM   15  H           1     -24.379  -7.984 -17.873  0.00  0.00     0.275 HD
ENDBRANCH   5  12
ENDBRANCH   1   5
BRANCH   2  16
HETATM   16  C           1     -28.650  -6.422 -18.268  0.00  0.00     0.186 C 
BRANCH  16  17
HETATM   17  C           1     -29.670  -7.521 -18.434  0.00  0.00     0.196 C 
HETATM   18  O           1     -30.723  -7.503 -17.760  0.00  0.00    -0.646 OA
HETATM   19  O           1     -29.464  -8.450 -19.244  0.00  0.00    -0.646 OA
ENDBRANCH  16  17
BRANCH  16  20
HETATM   20  C           1     -29.263  -5.092 -18.686  0.00  0.00     0.045 C 
BRANCH  20  21
HETATM   21  C           1     -29.477  -4.221 -17.455  0.00  0.00     0.105 C 
BRANCH  21  22
HETATM   22  C           1     -30.956  -4.041 -17.217  0.00  0.00     0.215 C 
HETATM   23  N           1     -31.659  -4.994 -16.530  0.00  0.00    -0.370 N 
HETATM   24  H           1     -31.186  -5.819 -16.182  0.00  0.00     0.159 HD
HETATM   25  H           1     -32.651  -4.874 -16.369  0.00  0.00     0.159 HD
HETATM   26  O           1     -31.520  -3.056 -17.631  0.00  0.00    -0.274 OA
ENDBRANCH  21  22
ENDBRANCH  20  21
ENDBRANCH  16  20
ENDBRANCH   2  16
TORSDOF 9
ENDMDL
MODEL 3
REMARK VINA RESULT:      -6.7      9.065     10.618
REMARK  9 active torsions:
REMARK  status: ('A' for Active; 'I' for Inactive)
REMARK       I    between atoms: N_2  and  C_3 
REMARK    1  A    between atoms: C_3  and  C_4 
REMARK    2  A    between atoms: C_4  and  C_5 
REMARK    3  A    between atoms: C_5  and  C_6 
REMARK    4  A    between atoms: C_5  and  N_20 
REMARK       I    between atoms: C_6  and  N_7 
REMARK    5  A    between atoms: N_7  and  C_11 
REMARK    6  A    between atoms: C_10  and  C_11 
REMARK    7  A    between atoms: C_11  and  C_12 
REMARK    8  A    between atoms: C_12  and  C_13 
REMARK    9  A    between atoms: C_13  and  C_15 
REMARK       I    between atoms: N_14  and  C_15 
ROOT
HETATM    1  C           1     -26.844  -6.902 -16.149  0.00  0.00     0.249 C 
HETATM    2  N           1     -27.640  -6.604 -17.223  0.00  0.00    -0.345 N 
HETATM    3  O           1     -27.308  -7.485 -15.198  0.00  0.00    -0.271 OA
HETATM    4  H           1     -27.252  -6.116 -18.020  0.00  0.00     0.163 HD
ENDROOT
BRANCH   1   5
HETATM    5  C           1     -25.389  -6.504 -16.156  0.00  0.00     0.283 C 
BRANCH   5   6
HETATM    6  C           1     -24.568  -7.592 -16.837  0.00  0.00     0.145 C 
BRANCH   6   7
HETATM    7  C           1     -24.108  -7.105 -18.189  0.00  0.00     0.217 C 
HETATM    8  O           1     -24.908  -6.642 -18.968  0.00  0.00    -0.274 OA
HETATM    9  N           1     -22.786  -7.186 -18.533  0.00  0.00    -0.370 N 
HETATM   10  H           1     -22.477  -6.860 -19.439  0.00  0.00     0.159 HD
HETATM   11  H           1     -22.117  -7.574 -17.880  0.00  0.00     0.159 HD
ENDBRANCH   6   7
ENDBRANCH   5   6
BRANCH   5  12
HETATM   12  N           1     -24.913  -6.331 -14.743  0.00  0.00    -0.066 N 
HETATM   13  H           1     -25.210  -7.154 -14.171  0.00  0.00     0.275 HD
HETATM   14  H           1     -23.871  -6.258 -14.733  0.00  0.00     0.275 HD
HETATM   15  H           1     -25.328  -5.460 -14.341  0.00  0.00     0.275 HD
ENDBRANCH   5  12
ENDBRANCH   1   5
BRANCH   2  16
HETATM   16  C           1     -29.038  -6.987 -17.219  0.00  0.00     0.186 C 
BRANCH  16  17
HETATM   17  C           1     -29.389  -7.622 -18.541  0.00  0.00     0.196 C 
HETATM   18  O           1     -30.517  -8.135 -18.709  0.00  0.00    -0.646 OA
HETATM   19  O           1     -28.553  -7.635 -19.471  0.00  0.00    -0.646 OA
ENDBRANCH  16  17
BRANCH  16  20
HETATM   20  C           1     -29.903  -5.752 -17.002  0.00  0.00     0.045 C 
BRANCH  20  21
HETATM   21  C           1     -29.536  -4.688 -18.028  0.00  0.00     0.105 C 
BRANCH  21  22
HETATM   22  C           1     -28.970  -3.480 -17.321  0.00  0.00     0.215 C 
HETATM   23  N           1     -29.556  -2.255 -17.487  0.00  0.00    -0.370 N 
HETATM   24  H           1     -30.368  -2.158 -18.084  0.00  0.00     0.159 HD
HETATM   25  H           1     -29.177  -1.444 -17.013  0.00  0.00     0.159 HD
HETATM   26  O           1     -28.001  -3.596 -16.609  0.00  0.00    -0.274 OA
ENDBRANCH  21  22
ENDBRANCH  20  21
ENDBRANCH  16  20
ENDBRANCH   2  16
TORSDOF 9
ENDMDL
MODEL 4
REMARK VINA RESULT:      -6.5      1.619      5.894
REMARK  9 active torsions:
REMARK  status: ('A' for Active; 'I' for Inactive)
REMARK       I    between atoms: N_2  and  C_3 
REMARK    1  A    between atoms: C_3  and  C_4 
REMARK    2  A    between atoms: C_4  and  C_5 
REMARK    3  A    between atoms: C_5  and  C_6 
REMARK    4  A    between atoms: C_5  and  N_20 
REMARK       I    between atoms: C_6  and  N_7 
REMARK    5  A    between atoms: N_7  and  C_11 
REMARK    6  A    between atoms: C_10  and  C_11 
REMARK    7  A    between atoms: C_11  and  C_12 
REMARK    8  A    between atoms: C_12  and  C_13 
REMARK    9  A    between atoms: C_13  and  C_15 
REMARK       I    between atoms: N_14  and  C_15 
ROOT
HETATM    1  C           1     -36.074  -0.346 -12.946  0.00  0.00     0.249 C 
HETATM    2  N           1     -35.295  -0.491 -11.829  0.00  0.00    -0.345 N 
HETATM    3  O           1     -37.086  -0.996 -13.064  0.00  0.00    -0.271 OA
HETATM    4  H           1     -34.447   0.053 -11.729  0.00  0.00     0.163 HD
ENDROOT
BRANCH   1   5
HETATM    5  C           1     -35.668   0.625 -14.027  0.00  0.00     0.283 C 
BRANCH   5   6
HETATM    6  C           1     -35.503  -0.122 -15.344  0.00  0.00     0.145 C 
BRANCH   6   7
HETATM    7  C           1     -36.786  -0.045 -16.133  0.00  0.00     0.217 C 
HETATM    8  O           1     -36.973  -0.800 -17.058  0.00  0.00    -0.274 OA
HETATM    9  N           1     -37.739   0.880 -15.802  0.00  0.00    -0.370 N 
HETATM   10  H           1     -38.600   0.932 -16.331  0.00  0.00     0.159 HD
HETATM   11  H           1     -37.582   1.513 -15.028  0.00  0.00     0.159 HD
ENDBRANCH   6   7
ENDBRANCH   5   6
BRANCH   5  12
HETATM   12  N           1     -34.368   1.273 -13.653  0.00  0.00    -0.066 N 
HETATM   13  H           1     -33.661   0.535 -13.432  0.00  0.00     0.275 HD
HETATM   14  H           1     -34.027   1.854 -14.451  0.00  0.00     0.275 HD
HETATM   15  H           1     -34.510   1.880 -12.815  0.00  0.00     0.275 HD
ENDBRANCH   5  12
ENDBRANCH   1   5
BRANCH   2  16
HETATM   16  C           1     -35.684  -1.423 -10.789  0.00  0.00     0.186 C 
BRANCH  16  17
HETATM   17  C           1     -36.469  -0.693  -9.727  0.00  0.00     0.196 C 
HETATM   18  O           1     -37.712  -0.598  -9.824  0.00  0.00    -0.646 OA
HETATM   19  O           1     -35.877  -0.183  -8.751  0.00  0.00    -0.646 OA
ENDBRANCH  16  17
BRANCH  16  20
HETATM   20  C           1     -34.438  -2.040 -10.167  0.00  0.00     0.045 C 
BRANCH  20  21
HETATM   21  C           1     -33.481  -2.474 -11.269  0.00  0.00     0.105 C 
BRANCH  21  22
HETATM   22  C           1     -33.319  -3.974 -11.233  0.00  0.00     0.215 C 
HETATM   23  N           1     -32.534  -4.599 -12.164  0.00  0.00    -0.370 N 
HETATM   24  H           1     -32.063  -4.056 -12.877  0.00  0.00     0.159 HD
HETATM   25  H           1     -32.425  -5.605 -12.141  0.00  0.00     0.159 HD
HETATM   26  O           1     -33.881  -4.622 -10.383  0.00  0.00    -0.274 OA
ENDBRANCH  21  22
ENDBRANCH  20  21
ENDBRANCH  16  20
ENDBRANCH   2  16
TORSDOF 9
ENDMDL
MODEL 5
REMARK VINA RESULT:      -6.3     10.578     12.122
REMARK  9 active torsions:
REMARK  status: ('A' for Active; 'I' for Inactive)
REMARK       I    between atoms: N_2  and  C_3 
REMARK    1  A    between atoms: C_3  and  C_4 
REMARK    2  A    between atoms: C_4  and  C_5 
REMARK    3  A    between atoms: C_5  and  C_6 
REMARK    4  A    between atoms: C_5  and  N_20 
REMARK       I    between atoms: C_6  and  N_7 
REMARK    5  A    between atoms: N_7  and  C_11 
REMARK    6  A    between atoms: C_10  and  C_11 
REMARK    7  A    between atoms: C_11  and  C_12 
REMARK    8  A    between atoms: C_12  and  C_13 
REMARK    9  A    between atoms: C_13  and  C_15 
REMARK       I    between atoms: N_14  and  C_15 
ROOT
HETATM    1  C           1     -25.403  -6.974 -18.865  0.00  0.00     0.249 C 
HETATM    2  N           1     -26.553  -6.664 -18.190  0.00  0.00    -0.345 N 
HETATM    3  O           1     -24.332  -6.643 -18.414  0.00  0.00    -0.271 OA
HETATM    4  H           1     -27.451  -6.941 -18.567  0.00  0.00     0.163 HD
ENDROOT
BRANCH   1   5
HETATM    5  C           1     -25.473  -7.728 -20.170  0.00  0.00     0.283 C 
BRANCH   5   6
HETATM    6  C           1     -24.540  -7.078 -21.183  0.00  0.00     0.145 C 
BRANCH   6   7
HETATM    7  C           1     -23.604  -8.117 -21.747  0.00  0.00     0.217 C 
HETATM    8  O           1     -23.712  -8.467 -22.899  0.00  0.00    -0.274 OA
HETATM    9  N           1     -22.632  -8.666 -20.954  0.00  0.00    -0.370 N 
HETATM   10  H           1     -22.004  -9.364 -21.331  0.00  0.00     0.159 HD
HETATM   11  H           1     -22.543  -8.374 -19.989  0.00  0.00     0.159 HD
ENDBRANCH   6   7
ENDBRANCH   5   6
BRANCH   5  12
HETATM   12  N           1     -26.879  -7.693 -20.691  0.00  0.00    -0.066 N 
HETATM   13  H           1     -27.272  -6.731 -20.571  0.00  0.00     0.275 HD
HETATM   14  H           1     -26.881  -7.945 -21.705  0.00  0.00     0.275 HD
HETATM   15  H           1     -27.465  -8.376 -20.160  0.00  0.00     0.275 HD
ENDBRANCH   5  12
ENDBRANCH   1   5
BRANCH   2  16
HETATM   16  C           1     -26.488  -5.940 -16.936  0.00  0.00     0.186 C 
BRANCH  16  17
HETATM   17  C           1     -26.424  -6.922 -15.792  0.00  0.00     0.196 C 
HETATM   18  O           1     -25.331  -7.163 -15.236  0.00  0.00    -0.646 OA
HETATM   19  O           1     -27.464  -7.494 -15.400  0.00  0.00    -0.646 OA
ENDBRANCH  16  17
BRANCH  16  20
HETATM   20  C           1     -27.725  -5.066 -16.788  0.00  0.00     0.045 C 
BRANCH  20  21
HETATM   21  C           1     -28.698  -5.365 -17.921  0.00  0.00     0.105 C 
BRANCH  21  22
HETATM   22  C           1     -29.930  -6.035 -17.363  0.00  0.00     0.215 C 
HETATM   23  N           1     -30.428  -5.648 -16.148  0.00  0.00    -0.370 N 
HETATM   24  H           1     -29.971  -4.912 -15.625  0.00  0.00     0.159 HD
HETATM   25  H           1     -31.254  -6.097 -15.773  0.00  0.00     0.159 HD
HETATM   26  O           1     -30.476  -6.914 -17.988  0.00  0.00    -0.274 OA
ENDBRANCH  21  22
ENDBRANCH  20  21
ENDBRANCH  16  20
ENDBRANCH   2  16
TORSDOF 9
ENDMDL
MODEL 6
REMARK VINA RESULT:      -6.2     10.420     11.880
REMARK  9 active torsions:
REMARK  status: ('A' for Active; 'I' for Inactive)
REMARK       I    between atoms: N_2  and  C_3 
REMARK    1  A    between atoms: C_3  and  C_4 
REMARK    2  A    between atoms: C_4  and  C_5 
REMARK    3  A    between atoms: C_5  and  C_6 
REMARK    4  A    between atoms: C_5  and  N_20 
REMARK       I    between atoms: C_6  and  N_7 
REMARK    5  A    between atoms: N_7  and  C_11 
REMARK    6  A    between atoms: C_10  and  C_11 
REMARK    7  A    between atoms: C_11  and  C_12 
REMARK    8  A    between atoms: C_12  and  C_13 
REMARK    9  A    between atoms: C_13  and  C_15 
REMARK       I    between atoms: N_14  and  C_15 
ROOT
HETATM    1  C           1     -26.450  -6.437 -19.583  0.00  0.00     0.249 C 
HETATM    2  N           1     -26.841  -6.367 -18.273  0.00  0.00    -0.345 N 
HETATM    3  O           1     -27.213  -6.106 -20.458  0.00  0.00    -0.271 OA
HETATM    4  H           1     -26.202  -6.643 -17.538  0.00  0.00     0.163 HD
ENDROOT
BRANCH   1   5
HETATM    5  C           1     -25.065  -6.925 -19.931  0.00  0.00     0.283 C 
BRANCH   5   6
HETATM    6  C           1     -25.168  -8.062 -20.941  0.00  0.00     0.145 C 
BRANCH   6   7
HETATM    7  C           1     -23.888  -8.148 -21.735  0.00  0.00     0.217 C 
HETATM    8  O           1     -23.780  -7.542 -22.776  0.00  0.00    -0.274 OA
HETATM    9  N           1     -22.848  -8.911 -21.277  0.00  0.00    -0.370 N 
HETATM   10  H           1     -21.989  -8.969 -21.809  0.00  0.00     0.159 HD
HETATM   11  H           1     -22.938  -9.419 -20.406  0.00  0.00     0.159 HD
ENDBRANCH   6   7
ENDBRANCH   5   6
BRANCH   5  12
HETATM   12  N           1     -24.384  -7.420 -18.690  0.00  0.00    -0.066 N 
HETATM   13  H           1     -23.834  -6.642 -18.259  0.00  0.00     0.275 HD
HETATM   14  H           1     -25.102  -7.757 -18.010  0.00  0.00     0.275 HD
HETATM   15  H           1     -23.740  -8.206 -18.936  0.00  0.00     0.275 HD
ENDBRANCH   5  12
ENDBRANCH   1   5
BRANCH   2  16
HETATM   16  C           1     -28.170  -5.896 -17.936  0.00  0.00     0.186 C 
BRANCH  16  17
HETATM   17  C           1     -28.075  -4.528 -17.307  0.00  0.00     0.196 C 
HETATM   18  O           1     -27.149  -4.273 -16.506  0.00  0.00    -0.646 OA
HETATM   19  O           1     -28.919  -3.650 -17.587  0.00  0.00    -0.646 OA
ENDBRANCH  16  17
BRANCH  16  20
HETATM   20  C           1     -28.818  -6.864 -16.954  0.00  0.00     0.045 C 
BRANCH  20  21
HETATM   21  C           1     -30.300  -7.002 -17.279  0.00  0.00     0.105 C 
BRANCH  21  22
HETATM   22  C           1     -30.468  -7.866 -18.505  0.00  0.00     0.215 C 
HETATM   23  N           1     -29.449  -8.686 -18.909  0.00  0.00    -0.370 N 
HETATM   24  H           1     -28.583  -8.713 -18.385  0.00  0.00     0.159 HD
HETATM   25  H           1     -29.561  -9.265 -19.731  0.00  0.00     0.159 HD
HETATM   26  O           1     -31.502  -7.834 -19.130  0.00  0.00    -0.274 OA
ENDBRANCH  21  22
ENDBRANCH  20  21
ENDBRANCH  16  20
ENDBRANCH   2  16
TORSDOF 9
ENDMDL
MODEL 7
REMARK VINA RESULT:      -6.1      2.501      3.925
REMARK  9 active torsions:
REMARK  status: ('A' for Active; 'I' for Inactive)
REMARK       I    between atoms: N_2  and  C_3 
REMARK    1  A    between atoms: C_3  and  C_4 
REMARK    2  A    between atoms: C_4  and  C_5 
REMARK    3  A    between atoms: C_5  and  C_6 
REMARK    4  A    between atoms: C_5  and  N_20 
REMARK       I    between atoms: C_6  and  N_7 
REMARK    5  A    between atoms: N_7  and  C_11 
REMARK    6  A    between atoms: C_10  and  C_11 
REMARK    7  A    between atoms: C_11  and  C_12 
REMARK    8  A    between atoms: C_12  and  C_13 
REMARK    9  A    between atoms: C_13  and  C_15 
REMARK       I    between atoms: N_14  and  C_15 
ROOT
HETATM    1  C           1     -35.344  -2.904 -11.425  0.00  0.00     0.249 C 
HETATM    2  N           1     -35.389  -1.713 -12.099  0.00  0.00    -0.345 N 
HETATM    3  O           1     -36.290  -3.260 -10.765  0.00  0.00    -0.271 OA
HETATM    4  H           1     -34.596  -1.413 -12.652  0.00  0.00     0.163 HD
ENDROOT
BRANCH   1   5
HETATM    5  C           1     -34.112  -3.772 -11.510  0.00  0.00     0.283 C 
BRANCH   5   6
HETATM    6  C           1     -34.173  -4.845 -10.431  0.00  0.00     0.145 C 
BRANCH   6   7
HETATM    7  C           1     -34.458  -6.183 -11.067  0.00  0.00     0.217 C 
HETATM    8  O           1     -34.327  -7.198 -10.424  0.00  0.00    -0.274 OA
HETATM    9  N           1     -34.865  -6.248 -12.372  0.00  0.00    -0.370 N 
HETATM   10  H           1     -35.057  -7.146 -12.799  0.00  0.00     0.159 HD
HETATM   11  H           1     -34.974  -5.398 -12.911  0.00  0.00     0.159 HD
ENDBRANCH   6   7
ENDBRANCH   5   6
BRANCH   5  12
HETATM   12  N           1     -32.891  -2.925 -11.303  0.00  0.00    -0.066 N 
HETATM   13  H           1     -32.069  -3.379 -11.763  0.00  0.00     0.275 HD
HETATM   14  H           1     -33.046  -1.981 -11.723  0.00  0.00     0.275 HD
HETATM   15  H           1     -32.705  -2.826 -10.280  0.00  0.00     0.275 HD
ENDBRANCH   5  12
ENDBRANCH   1   5
BRANCH   2  16
HETATM   16  C           1     -36.573  -0.879 -12.019  0.00  0.00     0.186 C 
BRANCH  16  17
HETATM   17  C           1     -36.886  -0.321 -13.386  0.00  0.00     0.196 C 
HETATM   18  O           1     -36.109   0.503 -13.917  0.00  0.00    -0.646 OA
HETATM   19  O           1     -37.920  -0.681 -13.987  0.00  0.00    -0.646 OA
ENDBRANCH  16  17
BRANCH  16  20
HETATM   20  C           1     -36.323   0.266 -11.047  0.00  0.00     0.045 C 
BRANCH  20  21
HETATM   21  C           1     -37.439   0.306 -10.011  0.00  0.00     0.105 C 
BRANCH  21  22
HETATM   22  C           1     -36.925   0.939  -8.741  0.00  0.00     0.215 C 
HETATM   23  N           1     -37.526   2.065  -8.247  0.00  0.00    -0.370 N 
HETATM   24  H           1     -38.315   2.473  -8.732  0.00  0.00     0.159 HD
HETATM   25  H           1     -37.182   2.490  -7.395  0.00  0.00     0.159 HD
HETATM   26  O           1     -35.983   0.453  -8.162  0.00  0.00    -0.274 OA
ENDBRANCH  21  22
ENDBRANCH  20  21
ENDBRANCH  16  20
ENDBRANCH   2  16
TORSDOF 9
ENDMDL
MODEL 8
REMARK VINA RESULT:      -5.9     14.391     17.282
REMARK  9 active torsions:
REMARK  status: ('A' for Active; 'I' for Inactive)
REMARK       I    between atoms: N_2  and  C_3 
REMARK    1  A    between atoms: C_3  and  C_4 
REMARK    2  A    between atoms: C_4  and  C_5 
REMARK    3  A    between atoms: C_5  and  C_6 
REMARK    4  A    between atoms: C_5  and  N_20 
REMARK       I    between atoms: C_6  and  N_7 
REMARK    5  A    between atoms: N_7  and  C_11 
REMARK    6  A    between atoms: C_10  and  C_11 
REMARK    7  A    between atoms: C_11  and  C_12 
REMARK    8  A    between atoms: C_12  and  C_13 
REMARK    9  A    between atoms: C_13  and  C_15 
REMARK       I    between atoms: N_14  and  C_15 
ROOT
HETATM    1  C           1     -21.175  -5.068  -6.964  0.00  0.00     0.249 C 
HETATM    2  N           1     -21.293  -6.349  -6.496  0.00  0.00    -0.345 N 
HETATM    3  O           1     -20.654  -4.222  -6.277  0.00  0.00    -0.271 OA
HETATM    4  H           1     -21.730  -7.060  -7.070  0.00  0.00     0.163 HD
ENDROOT
BRANCH   1   5
HETATM    5  C           1     -21.694  -4.715  -8.336  0.00  0.00     0.283 C 
BRANCH   5   6
HETATM    6  C           1     -20.524  -4.361  -9.245  0.00  0.00     0.145 C 
BRANCH   6   7
HETATM    7  C           1     -21.036  -4.063 -10.632  0.00  0.00     0.217 C 
HETATM    8  O           1     -22.036  -4.609 -11.038  0.00  0.00    -0.274 OA
HETATM    9  N           1     -20.369  -3.176 -11.433  0.00  0.00    -0.370 N 
HETATM   10  H           1     -20.712  -2.976 -12.364  0.00  0.00     0.159 HD
HETATM   11  H           1     -19.532  -2.719 -11.094  0.00  0.00     0.159 HD
ENDBRANCH   6   7
ENDBRANCH   5   6
BRANCH   5  12
HETATM   12  N           1     -22.620  -3.540  -8.232  0.00  0.00    -0.066 N 
HETATM   13  H           1     -22.801  -3.326  -7.224  0.00  0.00     0.275 HD
HETATM   14  H           1     -22.181  -2.709  -8.690  0.00  0.00     0.275 HD
HETATM   15  H           1     -23.523  -3.764  -8.707  0.00  0.00     0.275 HD
ENDBRANCH   5  12
ENDBRANCH   1   5
BRANCH   2  16
HETATM   16  C           1     -20.794  -6.690  -5.178  0.00  0.00     0.186 C 
BRANCH  16  17
HETATM   17  C           1     -20.153  -8.055  -5.221  0.00  0.00     0.196 C 
HETATM   18  O           1     -19.184  -8.266  -5.983  0.00  0.00    -0.646 OA
HETATM   19  O           1     -20.589  -8.975  -4.496  0.00  0.00    -0.646 OA
ENDBRANCH  16  17
BRANCH  16  20
HETATM   20  C           1     -21.949  -6.702  -4.184  0.00  0.00     0.045 C 
BRANCH  20  21
HETATM   21  C           1     -21.485  -6.110  -2.860  0.00  0.00     0.105 C 
BRANCH  21  22
HETATM   22  C           1     -21.878  -7.033  -1.732  0.00  0.00     0.215 C 
HETATM   23  N           1     -21.319  -8.279  -1.642  0.00  0.00    -0.370 N 
HETATM   24  H           1     -20.643  -8.582  -2.331  0.00  0.00     0.159 HD
HETATM   25  H           1     -21.582  -8.899  -0.885  0.00  0.00     0.159 HD
HETATM   26  O           1     -22.686  -6.672  -0.909  0.00  0.00    -0.274 OA
ENDBRANCH  21  22
ENDBRANCH  20  21
ENDBRANCH  16  20
ENDBRANCH   2  16
TORSDOF 9
ENDMDL
MODEL 9
REMARK VINA RESULT:      -5.9      9.230     10.660
REMARK  9 active torsions:
REMARK  status: ('A' for Active; 'I' for Inactive)
REMARK       I    between atoms: N_2  and  C_3 
REMARK    1  A    between atoms: C_3  and  C_4 
REMARK    2  A    between atoms: C_4  and  C_5 
REMARK    3  A    between atoms: C_5  and  C_6 
REMARK    4  A    between atoms: C_5  and  N_20 
REMARK       I    between atoms: C_6  and  N_7 
REMARK    5  A    between atoms: N_7  and  C_11 
REMARK    6  A    between atoms: C_10  and  C_11 
REMARK    7  A    between atoms: C_11  and  C_12 
REMARK    8  A    between atoms: C_12  and  C_13 
REMARK    9  A    between atoms: C_13  and  C_15 
REMARK       I    between atoms: N_14  and  C_15 
ROOT
HETATM    1  C           1     -26.438  -6.426 -19.007  0.00  0.00     0.249 C 
HETATM    2  N           1     -27.571  -6.115 -18.304  0.00  0.00    -0.345 N 
HETATM    3  O           1     -25.383  -6.539 -18.430  0.00  0.00    -0.271 OA
HETATM    4  H           1     -28.456  -6.020 -18.786  0.00  0.00     0.163 HD
ENDROOT
BRANCH   1   5
HETATM    5  C           1     -26.508  -6.626 -20.501  0.00  0.00     0.283 C 
BRANCH   5   6
HETATM    6  C           1     -26.423  -8.114 -20.817  0.00  0.00     0.145 C 
BRANCH   6   7
HETATM    7  C           1     -27.813  -8.699 -20.868  0.00  0.00     0.217 C 
HETATM    8  O           1     -28.142  -9.395 -21.800  0.00  0.00    -0.274 OA
HETATM    9  N           1     -28.702  -8.441 -19.859  0.00  0.00    -0.370 N 
HETATM   10  H           1     -29.634  -8.833 -19.893  0.00  0.00     0.159 HD
HETATM   11  H           1     -28.426  -7.858 -19.079  0.00  0.00     0.159 HD
ENDBRANCH   6   7
ENDBRANCH   5   6
BRANCH   5  12
HETATM   12  N           1     -25.363  -5.911 -21.154  0.00  0.00    -0.066 N 
HETATM   13  H           1     -24.542  -5.900 -20.506  0.00  0.00     0.275 HD
HETATM   14  H           1     -25.102  -6.404 -22.037  0.00  0.00     0.275 HD
HETATM   15  H           1     -25.645  -4.929 -21.373  0.00  0.00     0.275 HD
ENDBRANCH   5  12
ENDBRANCH   1   5
BRANCH   2  16
HETATM   16  C           1     -27.506  -5.923 -16.868  0.00  0.00     0.186 C 
BRANCH  16  17
HETATM   17  C           1     -28.165  -7.090 -16.175  0.00  0.00     0.196 C 
HETATM   18  O           1     -27.805  -7.416 -15.023  0.00  0.00    -0.646 OA
HETATM   19  O           1     -29.071  -7.730 -16.751  0.00  0.00    -0.646 OA
ENDBRANCH  16  17
BRANCH  16  20
HETATM   20  C           1     -28.227  -4.635 -16.494  0.00  0.00     0.045 C 
BRANCH  20  21
HETATM   21  C           1     -28.984  -4.106 -17.705  0.00  0.00     0.105 C 
BRANCH  21  22
HETATM   22  C           1     -30.464  -4.102 -17.412  0.00  0.00     0.215 C 
HETATM   23  N           1     -31.232  -3.031 -17.783  0.00  0.00    -0.370 N 
HETATM   24  H           1     -30.807  -2.243 -18.253  0.00  0.00     0.159 HD
HETATM   25  H           1     -32.225  -3.029 -17.586  0.00  0.00     0.159 HD
HETATM   26  O           1     -30.971  -5.044 -16.850  0.00  0.00    -0.274 OA
ENDBRANCH  21  22
ENDBRANCH  20  21
ENDBRANCH  16  20
ENDBRANCH   2  16
TORSDOF 9
ENDMDL
