MODEL 1
REMARK VINA RESULT:      -5.8      0.000      0.000
REMARK  6 active torsions:
REMARK  status: ('A' for Active; 'I' for Inactive)
REMARK    1  A    between atoms: C_3  and  C_4 
REMARK    2  A    between atoms: C_4  and  C_5 
REMARK    3  A    between atoms: C_4  and  N_9 
REMARK    4  A    between atoms: C_5  and  C_8 
REMARK       I    between atoms: C_6  and  N_9 
REMARK    5  A    between atoms: C_6  and  C_15 
REMARK    6  A    between atoms: C_8  and  C_10 
ROOT
HETATM    1  C           1     -20.627  -4.624  -6.054  0.00  0.00     0.251 C 
HETATM    2  O           1     -19.494  -4.569  -5.639  0.00  0.00    -0.271 OA
HETATM    3  N           1     -21.497  -5.552  -5.550  0.00  0.00    -0.345 N 
HETATM    4  H           1     -22.446  -5.598  -5.898  0.00  0.00     0.163 HD
ENDROOT
BRANCH   3   5
HETATM    5  C           1     -21.058  -6.471  -4.519  0.00  0.00     0.186 C 
BRANCH   5   6
HETATM    6  C           1     -20.614  -7.766  -5.154  0.00  0.00     0.196 C 
HETATM    7  O           1     -21.222  -8.215  -6.150  0.00  0.00    -0.646 OA
HETATM    8  O           1     -19.639  -8.391  -4.683  0.00  0.00    -0.646 OA
ENDBRANCH   5   6
BRANCH   5   9
HETATM    9  C           1     -22.209  -6.745  -3.559  0.00  0.00     0.046 C 
BRANCH   9  10
HETATM   10  C           1     -21.913  -6.100  -2.212  0.00  0.00     0.116 C 
BRANCH  10  11
HETATM   11  C           1     -22.004  -7.142  -1.124  0.00  0.00     0.172 C 
HETATM   12  O           1     -21.076  -7.964  -0.967  0.00  0.00    -0.648 OA
HETATM   13  O           1     -23.008  -7.182  -0.380  0.00  0.00    -0.648 OA
ENDBRANCH  10  11
ENDBRANCH   9  10
ENDBRANCH   5   9
ENDBRANCH   3   5
BRANCH   1  14
HETATM   14  C           1     -21.084  -3.666  -7.128  0.00  0.00     0.311 C 
HETATM   15  C           1     -22.348  -4.173  -7.802  0.00  0.00     0.047 C 
HETATM   16  C           1     -21.864  -4.928  -9.035  0.00  0.00     0.033 C 
HETATM   17  C           1     -20.351  -4.807  -9.006  0.00  0.00     0.271 C 
HETATM   18  N           1     -20.112  -3.603  -8.215  0.00  0.00     0.097 N 
HETATM   19  H           1     -20.270  -2.779  -8.795  0.00  0.00     0.317 HD
ENDBRANCH   1  14
TORSDOF 6
ENDMDL
MODEL 2
REMARK VINA RESULT:      -5.6     20.395     22.485
REMARK  6 active torsions:
REMARK  status: ('A' for Active; 'I' for Inactive)
REMARK    1  A    between atoms: C_3  and  C_4 
REMARK    2  A    between atoms: C_4  and  C_5 
REMARK    3  A    between atoms: C_4  and  N_9 
REMARK    4  A    between atoms: C_5  and  C_8 
REMARK       I    between atoms: C_6  and  N_9 
REMARK    5  A    between atoms: C_6  and  C_15 
REMARK    6  A    between atoms: C_8  and  C_10 
ROOT
HETATM    1  C           1     -11.481   4.168 -22.003  0.00  0.00     0.251 C 
HETATM    2  O           1     -10.774   3.213 -21.792  0.00  0.00    -0.271 OA
HETATM    3  N           1     -11.179   5.380 -21.445  0.00  0.00    -0.345 N 
HETATM    4  H           1     -11.772   6.181 -21.622  0.00  0.00     0.163 HD
ENDROOT
BRANCH   3   5
HETATM    5  C           1     -10.009   5.518 -20.601  0.00  0.00     0.186 C 
BRANCH   5   6
HETATM    6  C           1     -10.430   5.501 -19.152  0.00  0.00     0.196 C 
HETATM    7  O           1      -9.584   5.696 -18.252  0.00  0.00    -0.646 OA
HETATM    8  O           1     -11.625   5.290 -18.850  0.00  0.00    -0.646 OA
ENDBRANCH   5   6
BRANCH   5   9
HETATM    9  C           1      -9.311   6.836 -20.910  0.00  0.00     0.046 C 
BRANCH   9  10
HETATM   10  C           1     -10.328   7.841 -21.432  0.00  0.00     0.116 C 
BRANCH  10  11
HETATM   11  C           1     -10.373   9.036 -20.511  0.00  0.00     0.172 C 
HETATM   12  O           1      -9.964   8.934 -19.334  0.00  0.00    -0.648 OA
HETATM   13  O           1     -10.818  10.128 -20.926  0.00  0.00    -0.648 OA
ENDBRANCH  10  11
ENDBRANCH   9  10
ENDBRANCH   5   9
ENDBRANCH   3   5
BRANCH   1  14
HETATM   14  C           1     -12.699   4.025 -22.884  0.00  0.00     0.311 C 
HETATM   15  C           1     -13.509   5.311 -22.899  0.00  0.00     0.047 C 
HETATM   16  C           1     -14.575   5.121 -21.827  0.00  0.00     0.033 C 
HETATM   17  C           1     -14.324   3.735 -21.259  0.00  0.00     0.271 C 
HETATM   18  N           1     -13.624   3.039 -22.334  0.00  0.00     0.097 N 
HETATM   19  H           1     -14.297   2.741 -23.040  0.00  0.00     0.317 HD
ENDBRANCH   1  14
TORSDOF 6
ENDMDL
MODEL 3
REMARK VINA RESULT:      -5.5      1.534      2.083
REMARK  6 active torsions:
REMARK  status: ('A' for Active; 'I' for Inactive)
REMARK    1  A    between atoms: C_3  and  C_4 
REMARK    2  A    between atoms: C_4  and  C_5 
REMARK    3  A    between atoms: C_4  and  N_9 
REMARK    4  A    between atoms: C_5  and  C_8 
REMARK       I    between atoms: C_6  and  N_9 
REMARK    5  A    between atoms: C_6  and  C_15 
REMARK    6  A    between atoms: C_8  and  C_10 
ROOT
HETATM    1  C           1     -20.232  -5.915  -6.330  0.00  0.00     0.251 C 
HETATM    2  O           1     -19.840  -5.170  -5.464  0.00  0.00    -0.271 OA
HETATM    3  N           1     -20.454  -7.236  -6.048  0.00  0.00    -0.345 N 
HETATM    4  H           1     -20.782  -7.860  -6.774  0.00  0.00     0.163 HD
ENDROOT
BRANCH   3   5
HETATM    5  C           1     -20.219  -7.741  -4.710  0.00  0.00     0.186 C 
BRANCH   5   6
HETATM    6  C           1     -19.472  -9.049  -4.791  0.00  0.00     0.196 C 
HETATM    7  O           1     -18.451  -9.230  -4.092  0.00  0.00    -0.646 OA
HETATM    8  O           1     -19.873  -9.953  -5.557  0.00  0.00    -0.646 OA
ENDBRANCH   5   6
BRANCH   5   9
HETATM    9  C           1     -21.553  -7.961  -4.008  0.00  0.00     0.046 C 
BRANCH   9  10
HETATM   10  C           1     -21.343  -7.943  -2.500  0.00  0.00     0.116 C 
BRANCH  10  11
HETATM   11  C           1     -22.092  -6.778  -1.901  0.00  0.00     0.172 C 
HETATM   12  O           1     -22.652  -6.899  -0.790  0.00  0.00    -0.648 OA
HETATM   13  O           1     -22.151  -5.691  -2.516  0.00  0.00    -0.648 OA
ENDBRANCH  10  11
ENDBRANCH   9  10
ENDBRANCH   5   9
ENDBRANCH   3   5
BRANCH   1  14
HETATM   14  C           1     -20.477  -5.389  -7.723  0.00  0.00     0.311 C 
HETATM   15  C           1     -20.216  -3.893  -7.789  0.00  0.00     0.047 C 
HETATM   16  C           1     -21.579  -3.243  -7.577  0.00  0.00     0.033 C 
HETATM   17  C           1     -22.548  -4.400  -7.408  0.00  0.00     0.271 C 
HETATM   18  N           1     -21.886  -5.511  -8.085  0.00  0.00     0.097 N 
HETATM   19  H           1     -22.010  -5.419  -9.093  0.00  0.00     0.317 HD
ENDBRANCH   1  14
TORSDOF 6
ENDMDL
MODEL 4
REMARK VINA RESULT:      -5.4      3.639      7.289
REMARK  6 active torsions:
REMARK  status: ('A' for Active; 'I' for Inactive)
REMARK    1  A    between atoms: C_3  and  C_4 
REMARK    2  A    between atoms: C_4  and  C_5 
REMARK    3  A    between atoms: C_4  and  N_9 
REMARK    4  A    between atoms: C_5  and  C_8 
REMARK       I    between atoms: C_6  and  N_9 
REMARK    5  A    between atoms: C_6  and  C_15 
REMARK    6  A    between atoms: C_8  and  C_10 
ROOT
HETATM    1  C           1     -21.288 -10.190  -1.122  0.00  0.00     0.251 C 
HETATM    2  O           1     -20.437  -9.976  -0.292  0.00  0.00    -0.271 OA
HETATM    3  N           1     -21.748  -9.169  -1.910  0.00  0.00    -0.345 N 
HETATM    4  H           1     -22.461  -9.349  -2.606  0.00  0.00     0.163 HD
ENDROOT
BRANCH   3   5
HETATM    5  C           1     -21.213  -7.832  -1.749  0.00  0.00     0.186 C 
BRANCH   5   6
HETATM    6  C           1     -22.302  -6.912  -1.254  0.00  0.00     0.196 C 
HETATM    7  O           1     -22.503  -5.817  -1.823  0.00  0.00    -0.646 OA
HETATM    8  O           1     -23.003  -7.244  -0.273  0.00  0.00    -0.646 OA
ENDBRANCH   5   6
BRANCH   5   9
HETATM    9  C           1     -20.692  -7.327  -3.088  0.00  0.00     0.046 C 
BRANCH   9  10
HETATM   10  C           1     -21.414  -8.047  -4.219  0.00  0.00     0.116 C 
BRANCH  10  11
HETATM   11  C           1     -21.732  -7.065  -5.319  0.00  0.00     0.172 C 
HETATM   12  O           1     -22.591  -6.176  -5.134  0.00  0.00    -0.648 OA
HETATM   13  O           1     -21.136  -7.140  -6.415  0.00  0.00    -0.648 OA
ENDBRANCH  10  11
ENDBRANCH   9  10
ENDBRANCH   5   9
ENDBRANCH   3   5
BRANCH   1  14
HETATM   14  C           1     -21.844 -11.583  -1.291  0.00  0.00     0.311 C 
HETATM   15  C           1     -23.135 -11.556  -2.092  0.00  0.00     0.047 C 
HETATM   16  C           1     -24.247 -11.512  -1.051  0.00  0.00     0.033 C 
HETATM   17  C           1     -23.535 -11.523   0.291  0.00  0.00     0.271 C 
HETATM   18  N           1     -22.246 -12.142  -0.004  0.00  0.00     0.097 N 
HETATM   19  H           1     -22.361 -13.153  -0.068  0.00  0.00     0.317 HD
ENDBRANCH   1  14
TORSDOF 6
ENDMDL
MODEL 5
REMARK VINA RESULT:      -5.3      1.717      3.625
REMARK  6 active torsions:
REMARK  status: ('A' for Active; 'I' for Inactive)
REMARK    1  A    between atoms: C_3  and  C_4 
REMARK    2  A    between atoms: C_4  and  C_5 
REMARK    3  A    between atoms: C_4  and  N_9 
REMARK    4  A    between atoms: C_5  and  C_8 
REMARK       I    between atoms: C_6  and  N_9 
REMARK    5  A    between atoms: C_6  and  C_15 
REMARK    6  A    between atoms: C_8  and  C_10 
ROOT
HETATM    1  C           1     -21.371  -5.434  -5.547  0.00  0.00     0.251 C 
HETATM    2  O           1     -22.555  -5.574  -5.738  0.00  0.00    -0.271 OA
HETATM    3  N           1     -20.717  -6.260  -4.674  0.00  0.00    -0.345 N 
HETATM    4  H           1     -19.724  -6.143  -4.513  0.00  0.00     0.163 HD
ENDROOT
BRANCH   3   5
HETATM    5  C           1     -21.444  -7.303  -3.978  0.00  0.00     0.186 C 
BRANCH   5   6
HETATM    6  C           1     -21.664  -6.892  -2.544  0.00  0.00     0.196 C 
HETATM    7  O           1     -21.042  -7.469  -1.625  0.00  0.00    -0.646 OA
HETATM    8  O           1     -22.469  -5.974  -2.272  0.00  0.00    -0.646 OA
ENDBRANCH   5   6
BRANCH   5   9
HETATM    9  C           1     -20.642  -8.597  -4.019  0.00  0.00     0.046 C 
BRANCH   9  10
HETATM   10  C           1     -19.544  -8.482  -5.067  0.00  0.00     0.116 C 
BRANCH  10  11
HETATM   11  C           1     -18.979  -9.852  -5.357  0.00  0.00     0.172 C 
HETATM   12  O           1     -19.212 -10.801  -4.578  0.00  0.00    -0.648 OA
HETATM   13  O           1     -18.279 -10.036  -6.376  0.00  0.00    -0.648 OA
ENDBRANCH  10  11
ENDBRANCH   9  10
ENDBRANCH   5   9
ENDBRANCH   3   5
BRANCH   1  14
HETATM   14  C           1     -20.613  -4.349  -6.272  0.00  0.00     0.311 C 
HETATM   15  C           1     -21.482  -3.703  -7.338  0.00  0.00     0.047 C 
HETATM   16  C           1     -21.147  -4.446  -8.626  0.00  0.00     0.033 C 
HETATM   17  C           1     -20.099  -5.472  -8.231  0.00  0.00     0.271 C 
HETATM   18  N           1     -19.497  -4.909  -7.026  0.00  0.00     0.097 N 
HETATM   19  H           1     -18.833  -4.180  -7.287  0.00  0.00     0.317 HD
ENDBRANCH   1  14
TORSDOF 6
ENDMDL
MODEL 6
REMARK VINA RESULT:      -5.3      3.601      6.632
REMARK  6 active torsions:
REMARK  status: ('A' for Active; 'I' for Inactive)
REMARK    1  A    between atoms: C_3  and  C_4 
REMARK    2  A    between atoms: C_4  and  C_5 
REMARK    3  A    between atoms: C_4  and  N_9 
REMARK    4  A    between atoms: C_5  and  C_8 
REMARK       I    between atoms: C_6  and  N_9 
REMARK    5  A    between atoms: C_6  and  C_15 
REMARK    6  A    between atoms: C_8  and  C_10 
ROOT
HETATM    1  C           1     -20.828  -8.735  -1.628  0.00  0.00     0.251 C 
HETATM    2  O           1     -19.751  -8.194  -1.540  0.00  0.00    -0.271 OA
HETATM    3  N           1     -21.591  -8.561  -2.751  0.00  0.00    -0.345 N 
HETATM    4  H           1     -22.493  -9.015  -2.825  0.00  0.00     0.163 HD
ENDROOT
BRANCH   3   5
HETATM    5  C           1     -21.108  -7.729  -3.835  0.00  0.00     0.186 C 
BRANCH   5   6
HETATM    6  C           1     -21.939  -6.472  -3.913  0.00  0.00     0.196 C 
HETATM    7  O           1     -22.174  -5.946  -5.022  0.00  0.00    -0.646 OA
HETATM    8  O           1     -22.393  -5.957  -2.868  0.00  0.00    -0.646 OA
ENDBRANCH   5   6
BRANCH   5   9
HETATM    9  C           1     -21.215  -8.491  -5.149  0.00  0.00     0.046 C 
BRANCH   9  10
HETATM   10  C           1     -20.353  -9.744  -5.082  0.00  0.00     0.116 C 
BRANCH  10  11
HETATM   11  C           1     -18.898  -9.362  -5.213  0.00  0.00     0.172 C 
HETATM   12  O           1     -18.125  -9.506  -4.242  0.00  0.00    -0.648 OA
HETATM   13  O           1     -18.468  -8.902  -6.293  0.00  0.00    -0.648 OA
ENDBRANCH  10  11
ENDBRANCH   9  10
ENDBRANCH   5   9
ENDBRANCH   3   5
BRANCH   1  14
HETATM   14  C           1     -21.330  -9.603  -0.500  0.00  0.00     0.311 C 
HETATM   15  C           1     -22.845  -9.716  -0.540  0.00  0.00     0.047 C 
HETATM   16  C           1     -23.349  -8.633   0.407  0.00  0.00     0.033 C 
HETATM   17  C           1     -22.096  -7.962   0.944  0.00  0.00     0.271 C 
HETATM   18  N           1     -21.062  -8.981   0.793  0.00  0.00     0.097 N 
HETATM   19  H           1     -21.145  -9.664   1.546  0.00  0.00     0.317 HD
ENDBRANCH   1  14
TORSDOF 6
ENDMDL
MODEL 7
REMARK VINA RESULT:      -5.2      1.971      2.930
REMARK  6 active torsions:
REMARK  status: ('A' for Active; 'I' for Inactive)
REMARK    1  A    between atoms: C_3  and  C_4 
REMARK    2  A    between atoms: C_4  and  C_5 
REMARK    3  A    between atoms: C_4  and  N_9 
REMARK    4  A    between atoms: C_5  and  C_8 
REMARK       I    between atoms: C_6  and  N_9 
REMARK    5  A    between atoms: C_6  and  C_15 
REMARK    6  A    between atoms: C_8  and  C_10 
ROOT
HETATM    1  C           1     -20.536  -7.536  -5.311  0.00  0.00     0.251 C 
HETATM    2  O           1     -19.529  -8.121  -5.631  0.00  0.00    -0.271 OA
HETATM    3  N           1     -21.099  -7.763  -4.084  0.00  0.00    -0.345 N 
HETATM    4  H           1     -21.943  -7.273  -3.816  0.00  0.00     0.163 HD
ENDROOT
BRANCH   3   5
HETATM    5  C           1     -20.486  -8.705  -3.169  0.00  0.00     0.186 C 
BRANCH   5   6
HETATM    6  C           1     -21.343  -9.943  -3.073  0.00  0.00     0.196 C 
HETATM    7  O           1     -22.155 -10.214  -3.984  0.00  0.00    -0.646 OA
HETATM    8  O           1     -21.242 -10.698  -2.081  0.00  0.00    -0.646 OA
ENDBRANCH   5   6
BRANCH   5   9
HETATM    9  C           1     -20.359  -8.067  -1.792  0.00  0.00     0.046 C 
BRANCH   9  10
HETATM   10  C           1     -21.622  -7.274  -1.480  0.00  0.00     0.116 C 
BRANCH  10  11
HETATM   11  C           1     -22.210  -7.757  -0.177  0.00  0.00     0.172 C 
HETATM   12  O           1     -23.382  -7.449   0.132  0.00  0.00    -0.648 OA
HETATM   13  O           1     -21.526  -8.465   0.593  0.00  0.00    -0.648 OA
ENDBRANCH  10  11
ENDBRANCH   9  10
ENDBRANCH   5   9
ENDBRANCH   3   5
BRANCH   1  14
HETATM   14  C           1     -21.174  -6.554  -6.264  0.00  0.00     0.311 C 
HETATM   15  C           1     -20.173  -6.088  -7.309  0.00  0.00     0.047 C 
HETATM   16  C           1     -19.598  -4.789  -6.755  0.00  0.00     0.033 C 
HETATM   17  C           1     -20.304  -4.577  -5.428  0.00  0.00     0.271 C 
HETATM   18  N           1     -21.549  -5.326  -5.571  0.00  0.00     0.097 N 
HETATM   19  H           1     -22.210  -4.784  -6.127  0.00  0.00     0.317 HD
ENDBRANCH   1  14
TORSDOF 6
ENDMDL
MODEL 8
REMARK VINA RESULT:      -5.1     21.374     22.974
REMARK  6 active torsions:
REMARK  status: ('A' for Active; 'I' for Inactive)
REMARK    1  A    between atoms: C_3  and  C_4 
REMARK    2  A    between atoms: C_4  and  C_5 
REMARK    3  A    between atoms: C_4  and  N_9 
REMARK    4  A    between atoms: C_5  and  C_8 
REMARK       I    between atoms: C_6  and  N_9 
REMARK    5  A    between atoms: C_6  and  C_15 
REMARK    6  A    between atoms: C_8  and  C_10 
ROOT
HETATM    1  C           1     -11.951   4.862 -21.635  0.00  0.00     0.251 C 
HETATM    2  O           1     -11.243   4.320 -22.450  0.00  0.00    -0.271 OA
HETATM    3  N           1     -11.671   6.138 -21.227  0.00  0.00    -0.345 N 
HETATM    4  H           1     -12.264   6.593 -20.543  0.00  0.00     0.163 HD
ENDROOT
BRANCH   3   5
HETATM    5  C           1     -10.526   6.840 -21.771  0.00  0.00     0.186 C 
BRANCH   5   6
HETATM    6  C           1      -9.530   7.109 -20.671  0.00  0.00     0.196 C 
HETATM    7  O           1      -9.276   8.285 -20.331  0.00  0.00    -0.646 OA
HETATM    8  O           1      -8.959   6.155 -20.097  0.00  0.00    -0.646 OA
ENDBRANCH   5   6
BRANCH   5   9
HETATM    9  C           1     -10.980   8.160 -22.379  0.00  0.00     0.046 C 
BRANCH   9  10
HETATM   10  C           1     -12.410   8.455 -21.945  0.00  0.00     0.116 C 
BRANCH  10  11
HETATM   11  C           1     -12.411   9.601 -20.962  0.00  0.00     0.172 C 
HETATM   12  O           1     -12.980   9.474 -19.856  0.00  0.00    -0.648 OA
HETATM   13  O           1     -11.843  10.675 -21.254  0.00  0.00    -0.648 OA
ENDBRANCH  10  11
ENDBRANCH   9  10
ENDBRANCH   5   9
ENDBRANCH   3   5
BRANCH   1  14
HETATM   14  C           1     -13.144   4.132 -21.068  0.00  0.00     0.311 C 
HETATM   15  C           1     -13.680   3.118 -22.065  0.00  0.00     0.047 C 
HETATM   16  C           1     -14.796   3.844 -22.807  0.00  0.00     0.033 C 
HETATM   17  C           1     -14.845   5.231 -22.192  0.00  0.00     0.271 C 
HETATM   18  N           1     -14.264   5.046 -20.865  0.00  0.00     0.097 N 
HETATM   19  H           1     -14.960   4.633 -20.244  0.00  0.00     0.317 HD
ENDBRANCH   1  14
TORSDOF 6
ENDMDL
MODEL 9
REMARK VINA RESULT:      -5.0      2.795      5.100
REMARK  6 active torsions:
REMARK  status: ('A' for Active; 'I' for Inactive)
REMARK    1  A    between atoms: C_3  and  C_4 
REMARK    2  A    between atoms: C_4  and  C_5 
REMARK    3  A    between atoms: C_4  and  N_9 
REMARK    4  A    between atoms: C_5  and  C_8 
REMARK       I    between atoms: C_6  and  N_9 
REMARK    5  A    between atoms: C_6  and  C_15 
REMARK    6  A    between atoms: C_8  and  C_10 
ROOT
HETATM    1  C           1     -19.494  -9.017  -4.982  0.00  0.00     0.251 C 
HETATM    2  O           1     -20.069  -9.801  -5.699  0.00  0.00    -0.271 OA
HETATM    3  N           1     -20.007  -7.763  -4.789  0.00  0.00    -0.345 N 
HETATM    4  H           1     -19.525  -7.106  -4.188  0.00  0.00     0.163 HD
ENDROOT
BRANCH   3   5
HETATM    5  C           1     -21.239  -7.374  -5.445  0.00  0.00     0.186 C 
BRANCH   5   6
HETATM    6  C           1     -20.939  -6.358  -6.519  0.00  0.00     0.196 C 
HETATM    7  O           1     -21.700  -5.380  -6.685  0.00  0.00    -0.646 OA
HETATM    8  O           1     -19.929  -6.494  -7.244  0.00  0.00    -0.646 OA
ENDBRANCH   5   6
BRANCH   5   9
HETATM    9  C           1     -22.190  -6.766  -4.422  0.00  0.00     0.046 C 
BRANCH   9  10
HETATM   10  C           1     -21.387  -6.122  -3.301  0.00  0.00     0.116 C 
BRANCH  10  11
HETATM   11  C           1     -21.653  -6.852  -2.007  0.00  0.00     0.172 C 
HETATM   12  O           1     -20.913  -7.798  -1.660  0.00  0.00    -0.648 OA
HETATM   13  O           1     -22.613  -6.511  -1.283  0.00  0.00    -0.648 OA
ENDBRANCH  10  11
ENDBRANCH   9  10
ENDBRANCH   5   9
ENDBRANCH   3   5
BRANCH   1  14
HETATM   14  C           1     -18.211  -9.422  -4.298  0.00  0.00     0.311 C 
HETATM   15  C           1     -17.910 -10.892  -4.540  0.00  0.00     0.047 C 
HETATM   16  C           1     -18.487 -11.619  -3.331  0.00  0.00     0.033 C 
HETATM   17  C           1     -19.081 -10.527  -2.457  0.00  0.00     0.271 C 
HETATM   18  N           1     -18.343  -9.329  -2.847  0.00  0.00     0.097 N 
HETATM   19  H           1     -17.427  -9.333  -2.399  0.00  0.00     0.317 HD
ENDBRANCH   1  14
TORSDOF 6
ENDMDL
