MODEL 1
REMARK VINA RESULT:      -6.7      0.000      0.000
REMARK  5 active torsions:
REMARK  status: ('A' for Active; 'I' for Inactive)
REMARK    1  A    between atoms: C_5  and  C_19 
REMARK    2  A    between atoms: N_8  and  C_18 
REMARK    3  A    between atoms: C_13  and  C_15 
REMARK       I    between atoms: N_16  and  C_17 
REMARK    4  A    between atoms: C_17  and  C_18 
REMARK    5  A    between atoms: C_18  and  C_19 
ROOT
HETATM    1  C           1     -33.210  -2.882 -11.274  0.00  0.00     0.038 C 
HETATM    2  O           1     -34.987  -1.768 -14.791  0.00  0.00    -0.271 OA
HETATM    3  C           1     -35.210  -1.528 -11.193  0.00  0.00     0.127 C 
HETATM    4  C           1     -33.914  -1.808 -10.452  0.00  0.00     0.022 C 
HETATM    5  C           1     -34.144  -3.165 -12.437  0.00  0.00     0.188 C 
HETATM    6  N           1     -34.923  -1.937 -12.566  0.00  0.00    -0.336 N 
HETATM    7  C           1     -35.301  -1.306 -13.720  0.00  0.00     0.251 C 
ENDROOT
BRANCH   7   8
HETATM    8  C           1     -36.111  -0.034 -13.655  0.00  0.00     0.284 C 
BRANCH   8   9
HETATM    9  N           1     -35.504   0.990 -14.567  0.00  0.00    -0.066 N 
HETATM   10  H           1     -35.925   1.926 -14.368  0.00  0.00     0.275 HD
HETATM   11  H           1     -34.473   1.032 -14.405  0.00  0.00     0.275 HD
HETATM   12  H           1     -35.692   0.727 -15.560  0.00  0.00     0.275 HD
ENDBRANCH   8   9
BRANCH   8  13
HETATM   13  C           1     -37.541  -0.320 -14.093  0.00  0.00     0.155 C 
BRANCH  13  14
HETATM   14  C           1     -37.696   0.010 -15.558  0.00  0.00     0.175 C 
HETATM   15  O           1     -38.075   1.149 -15.906  0.00  0.00    -0.648 OA
HETATM   16  O           1     -37.445  -0.857 -16.423  0.00  0.00    -0.648 OA
ENDBRANCH  13  14
ENDBRANCH   8  13
ENDBRANCH   7   8
BRANCH   5  17
HETATM   17  C           1     -35.040  -4.340 -12.133  0.00  0.00     0.196 C 
HETATM   18  O           1     -35.108  -5.300 -12.932  0.00  0.00    -0.646 OA
HETATM   19  O           1     -35.715  -4.355 -11.081  0.00  0.00    -0.646 OA
ENDBRANCH   5  17
TORSDOF 5
ENDMDL
MODEL 2
REMARK VINA RESULT:      -6.7     13.254     15.864
REMARK  5 active torsions:
REMARK  status: ('A' for Active; 'I' for Inactive)
REMARK    1  A    between atoms: C_5  and  C_19 
REMARK    2  A    between atoms: N_8  and  C_18 
REMARK    3  A    between atoms: C_13  and  C_15 
REMARK       I    between atoms: N_16  and  C_17 
REMARK    4  A    between atoms: C_17  and  C_18 
REMARK    5  A    between atoms: C_18  and  C_19 
ROOT
HETATM    1  C           1     -21.629  -2.929 -11.166  0.00  0.00     0.038 C 
HETATM    2  O           1     -22.746  -4.055  -7.390  0.00  0.00    -0.271 OA
HETATM    3  C           1     -20.525  -4.816 -10.136  0.00  0.00     0.127 C 
HETATM    4  C           1     -20.300  -3.674 -11.112  0.00  0.00     0.022 C 
HETATM    5  C           1     -22.547  -3.689 -10.224  0.00  0.00     0.188 C 
HETATM    6  N           1     -21.628  -4.349  -9.300  0.00  0.00    -0.336 N 
HETATM    7  C           1     -21.769  -4.498  -7.947  0.00  0.00     0.251 C 
ENDROOT
BRANCH   7   8
HETATM    8  C           1     -20.707  -5.216  -7.152  0.00  0.00     0.284 C 
BRANCH   8   9
HETATM    9  N           1     -20.365  -4.409  -5.935  0.00  0.00    -0.066 N 
HETATM   10  H           1     -20.029  -5.046  -5.178  0.00  0.00     0.275 HD
HETATM   11  H           1     -19.612  -3.724  -6.172  0.00  0.00     0.275 HD
HETATM   12  H           1     -21.214  -3.896  -5.607  0.00  0.00     0.275 HD
ENDBRANCH   8   9
BRANCH   8  13
HETATM   13  C           1     -21.228  -6.581  -6.724  0.00  0.00     0.155 C 
BRANCH  13  14
HETATM   14  C           1     -21.529  -6.567  -5.246  0.00  0.00     0.175 C 
HETATM   15  O           1     -20.688  -7.006  -4.432  0.00  0.00    -0.648 OA
HETATM   16  O           1     -22.620  -6.116  -4.835  0.00  0.00    -0.648 OA
ENDBRANCH  13  14
ENDBRANCH   8  13
ENDBRANCH   7   8
BRANCH   5  17
HETATM   17  C           1     -23.371  -4.703 -10.978  0.00  0.00     0.196 C 
HETATM   18  O           1     -23.408  -4.675 -12.227  0.00  0.00    -0.646 OA
HETATM   19  O           1     -24.017  -5.572 -10.353  0.00  0.00    -0.646 OA
ENDBRANCH   5  17
TORSDOF 5
ENDMDL
MODEL 3
REMARK VINA RESULT:      -6.5      1.842      2.355
REMARK  5 active torsions:
REMARK  status: ('A' for Active; 'I' for Inactive)
REMARK    1  A    between atoms: C_5  and  C_19 
REMARK    2  A    between atoms: N_8  and  C_18 
REMARK    3  A    between atoms: C_13  and  C_15 
REMARK       I    between atoms: N_16  and  C_17 
REMARK    4  A    between atoms: C_17  and  C_18 
REMARK    5  A    between atoms: C_18  and  C_19 
ROOT
HETATM    1  C           1     -32.875  -3.375 -11.571  0.00  0.00     0.038 C 
HETATM    2  O           1     -35.246  -1.706 -14.464  0.00  0.00    -0.271 OA
HETATM    3  C           1     -34.548  -1.758 -10.919  0.00  0.00     0.127 C 
HETATM    4  C           1     -33.175  -2.288 -10.545  0.00  0.00     0.022 C 
HETATM    5  C           1     -34.097  -3.415 -12.473  0.00  0.00     0.188 C 
HETATM    6  N           1     -34.673  -2.080 -12.339  0.00  0.00    -0.336 N 
HETATM    7  C           1     -35.211  -1.301 -13.326  0.00  0.00     0.251 C 
ENDROOT
BRANCH   7   8
HETATM    8  C           1     -35.763   0.064 -12.994  0.00  0.00     0.284 C 
BRANCH   8   9
HETATM    9  N           1     -35.404   1.026 -14.087  0.00  0.00    -0.066 N 
HETATM   10  H           1     -36.226   1.637 -14.296  0.00  0.00     0.275 HD
HETATM   11  H           1     -34.600   1.618 -13.779  0.00  0.00     0.275 HD
HETATM   12  H           1     -35.138   0.494 -14.946  0.00  0.00     0.275 HD
ENDBRANCH   8   9
BRANCH   8  13
HETATM   13  C           1     -37.279  -0.018 -12.868  0.00  0.00     0.155 C 
BRANCH  13  14
HETATM   14  C           1     -37.656  -0.196 -11.418  0.00  0.00     0.175 C 
HETATM   15  O           1     -37.948  -1.330 -10.982  0.00  0.00    -0.648 OA
HETATM   16  O           1     -37.677   0.792 -10.652  0.00  0.00    -0.648 OA
ENDBRANCH  13  14
ENDBRANCH   8  13
ENDBRANCH   7   8
BRANCH   5  17
HETATM   17  C           1     -35.072  -4.470 -12.011  0.00  0.00     0.196 C 
HETATM   18  O           1     -35.097  -5.587 -12.571  0.00  0.00    -0.646 OA
HETATM   19  O           1     -35.854  -4.227 -11.067  0.00  0.00    -0.646 OA
ENDBRANCH   5  17
TORSDOF 5
ENDMDL
MODEL 4
REMARK VINA RESULT:      -6.3     10.865     12.243
REMARK  5 active torsions:
REMARK  status: ('A' for Active; 'I' for Inactive)
REMARK    1  A    between atoms: C_5  and  C_19 
REMARK    2  A    between atoms: N_8  and  C_18 
REMARK    3  A    between atoms: C_13  and  C_15 
REMARK       I    between atoms: N_16  and  C_17 
REMARK    4  A    between atoms: C_17  and  C_18 
REMARK    5  A    between atoms: C_18  and  C_19 
ROOT
HETATM    1  C           1     -28.272  -4.594 -16.666  0.00  0.00     0.038 C 
HETATM    2  O           1     -25.173  -6.663 -18.366  0.00  0.00    -0.271 OA
HETATM    3  C           1     -28.633  -5.707 -18.780  0.00  0.00     0.127 C 
HETATM    4  C           1     -29.065  -4.501 -17.965  0.00  0.00     0.022 C 
HETATM    5  C           1     -27.433  -5.853 -16.804  0.00  0.00     0.188 C 
HETATM    6  N           1     -27.312  -6.034 -18.248  0.00  0.00    -0.336 N 
HETATM    7  C           1     -26.204  -6.425 -18.949  0.00  0.00     0.251 C 
ENDROOT
BRANCH   7   8
HETATM    8  C           1     -26.270  -6.558 -20.451  0.00  0.00     0.284 C 
BRANCH   8   9
HETATM    9  N           1     -25.253  -5.650 -21.077  0.00  0.00    -0.066 N 
HETATM   10  H           1     -25.519  -4.655 -20.899  0.00  0.00     0.275 HD
HETATM   11  H           1     -24.315  -5.839 -20.660  0.00  0.00     0.275 HD
HETATM   12  H           1     -25.220  -5.823 -22.107  0.00  0.00     0.275 HD
ENDBRANCH   8   9
BRANCH   8  13
HETATM   13  C           1     -25.975  -7.999 -20.846  0.00  0.00     0.155 C 
BRANCH  13  14
HETATM   14  C           1     -24.611  -8.077 -21.488  0.00  0.00     0.175 C 
HETATM   15  O           1     -24.503  -8.038 -22.733  0.00  0.00    -0.648 OA
HETATM   16  O           1     -23.590  -8.181 -20.775  0.00  0.00    -0.648 OA
ENDBRANCH  13  14
ENDBRANCH   8  13
ENDBRANCH   7   8
BRANCH   5  17
HETATM   17  C           1     -28.128  -7.033 -16.170  0.00  0.00     0.196 C 
HETATM   18  O           1     -27.803  -7.408 -15.023  0.00  0.00    -0.646 OA
HETATM   19  O           1     -29.029  -7.636 -16.793  0.00  0.00    -0.646 OA
ENDBRANCH   5  17
TORSDOF 5
ENDMDL
MODEL 5
REMARK VINA RESULT:      -6.3     13.304     16.044
REMARK  5 active torsions:
REMARK  status: ('A' for Active; 'I' for Inactive)
REMARK    1  A    between atoms: C_5  and  C_19 
REMARK    2  A    between atoms: N_8  and  C_18 
REMARK    3  A    between atoms: C_13  and  C_15 
REMARK       I    between atoms: N_16  and  C_17 
REMARK    4  A    between atoms: C_17  and  C_18 
REMARK    5  A    between atoms: C_18  and  C_19 
ROOT
HETATM    1  C           1     -23.478  -4.777 -10.862  0.00  0.00     0.038 C 
HETATM    2  O           1     -20.573  -5.814  -8.168  0.00  0.00    -0.271 OA
HETATM    3  C           1     -23.315  -3.544  -8.790  0.00  0.00     0.127 C 
HETATM    4  C           1     -24.310  -4.015  -9.836  0.00  0.00     0.022 C 
HETATM    5  C           1     -22.049  -4.695 -10.352  0.00  0.00     0.188 C 
HETATM    6  N           1     -22.204  -4.485  -8.915  0.00  0.00    -0.336 N 
HETATM    7  C           1     -21.470  -5.047  -7.907  0.00  0.00     0.251 C 
ENDROOT
BRANCH   7   8
HETATM    8  C           1     -21.778  -4.708  -6.469  0.00  0.00     0.284 C 
BRANCH   8   9
HETATM    9  N           1     -22.961  -5.507  -6.011  0.00  0.00    -0.066 N 
HETATM   10  H           1     -22.702  -6.519  -5.966  0.00  0.00     0.275 HD
HETATM   11  H           1     -23.256  -5.181  -5.063  0.00  0.00     0.275 HD
HETATM   12  H           1     -23.750  -5.380  -6.685  0.00  0.00     0.275 HD
ENDBRANCH   8   9
BRANCH   8  13
HETATM   13  C           1     -20.573  -5.042  -5.599  0.00  0.00     0.155 C 
BRANCH  13  14
HETATM   14  C           1     -20.942  -6.133  -4.624  0.00  0.00     0.175 C 
HETATM   15  O           1     -20.732  -7.330  -4.916  0.00  0.00    -0.648 OA
HETATM   16  O           1     -21.457  -5.840  -3.523  0.00  0.00    -0.648 OA
ENDBRANCH  13  14
ENDBRANCH   8  13
ENDBRANCH   7   8
BRANCH   5  17
HETATM   17  C           1     -21.317  -3.539 -10.988  0.00  0.00     0.196 C 
HETATM   18  O           1     -20.109  -3.346 -10.731  0.00  0.00    -0.646 OA
HETATM   19  O           1     -21.919  -2.775 -11.773  0.00  0.00    -0.646 OA
ENDBRANCH   5  17
TORSDOF 5
ENDMDL
MODEL 6
REMARK VINA RESULT:      -5.6     16.325     18.150
REMARK  5 active torsions:
REMARK  status: ('A' for Active; 'I' for Inactive)
REMARK    1  A    between atoms: C_5  and  C_19 
REMARK    2  A    between atoms: N_8  and  C_18 
REMARK    3  A    between atoms: C_13  and  C_15 
REMARK       I    between atoms: N_16  and  C_17 
REMARK    4  A    between atoms: C_17  and  C_18 
REMARK    5  A    between atoms: C_18  and  C_19 
ROOT
HETATM    1  C           1     -21.819 -10.092  -3.729  0.00  0.00     0.038 C 
HETATM    2  O           1     -21.927  -6.022  -4.173  0.00  0.00    -0.271 OA
HETATM    3  C           1     -19.931  -8.978  -4.746  0.00  0.00     0.127 C 
HETATM    4  C           1     -20.708 -10.283  -4.755  0.00  0.00     0.022 C 
HETATM    5  C           1     -21.613  -8.690  -3.180  0.00  0.00     0.188 C 
HETATM    6  N           1     -20.895  -8.000  -4.249  0.00  0.00    -0.336 N 
HETATM    7  C           1     -21.084  -6.718  -4.688  0.00  0.00     0.251 C 
ENDROOT
BRANCH   7   8
HETATM    8  C           1     -20.239  -6.173  -5.813  0.00  0.00     0.284 C 
BRANCH   8   9
HETATM    9  N           1     -20.842  -6.572  -7.127  0.00  0.00    -0.066 N 
HETATM   10  H           1     -20.509  -5.922  -7.875  0.00  0.00     0.275 HD
HETATM   11  H           1     -20.551  -7.548  -7.361  0.00  0.00     0.275 HD
HETATM   12  H           1     -21.883  -6.524  -7.062  0.00  0.00     0.275 HD
ENDBRANCH   8   9
BRANCH   8  13
HETATM   13  C           1     -20.187  -4.654  -5.720  0.00  0.00     0.155 C 
BRANCH  13  14
HETATM   14  C           1     -20.689  -4.051  -7.009  0.00  0.00     0.175 C 
HETATM   15  O           1     -21.902  -3.780  -7.142  0.00  0.00    -0.648 OA
HETATM   16  O           1     -19.892  -3.824  -7.944  0.00  0.00    -0.648 OA
ENDBRANCH  13  14
ENDBRANCH   8  13
ENDBRANCH   7   8
BRANCH   5  17
HETATM   17  C           1     -20.792  -8.723  -1.915  0.00  0.00     0.196 C 
HETATM   18  O           1     -20.673  -9.790  -1.274  0.00  0.00    -0.646 OA
HETATM   19  O           1     -20.231  -7.683  -1.507  0.00  0.00    -0.646 OA
ENDBRANCH   5  17
TORSDOF 5
ENDMDL
MODEL 7
REMARK VINA RESULT:      -5.6     17.026     19.435
REMARK  5 active torsions:
REMARK  status: ('A' for Active; 'I' for Inactive)
REMARK    1  A    between atoms: C_5  and  C_19 
REMARK    2  A    between atoms: N_8  and  C_18 
REMARK    3  A    between atoms: C_13  and  C_15 
REMARK       I    between atoms: N_16  and  C_17 
REMARK    4  A    between atoms: C_17  and  C_18 
REMARK    5  A    between atoms: C_18  and  C_19 
ROOT
HETATM    1  C           1     -21.066  -8.848   1.241  0.00  0.00     0.038 C 
HETATM    2  O           1     -19.742  -8.513  -2.620  0.00  0.00    -0.271 OA
HETATM    3  C           1     -22.650  -8.269  -0.490  0.00  0.00     0.127 C 
HETATM    4  C           1     -22.347  -8.063   0.984  0.00  0.00     0.022 C 
HETATM    5  C           1     -20.707  -9.469  -0.099  0.00  0.00     0.188 C 
HETATM    6  N           1     -21.349  -8.590  -1.072  0.00  0.00    -0.336 N 
HETATM    7  C           1     -20.844  -8.160  -2.269  0.00  0.00     0.251 C 
ENDROOT
BRANCH   7   8
HETATM    8  C           1     -21.660  -7.247  -3.150  0.00  0.00     0.284 C 
BRANCH   8   9
HETATM    9  N           1     -21.657  -5.863  -2.572  0.00  0.00    -0.066 N 
HETATM   10  H           1     -21.770  -5.165  -3.341  0.00  0.00     0.275 HD
HETATM   11  H           1     -22.448  -5.767  -1.896  0.00  0.00     0.275 HD
HETATM   12  H           1     -20.753  -5.694  -2.077  0.00  0.00     0.275 HD
ENDBRANCH   8   9
BRANCH   8  13
HETATM   13  C           1     -21.055  -7.214  -4.547  0.00  0.00     0.155 C 
BRANCH  13  14
HETATM   14  C           1     -21.339  -5.879  -5.189  0.00  0.00     0.175 C 
HETATM   15  O           1     -20.433  -5.023  -5.281  0.00  0.00    -0.648 OA
HETATM   16  O           1     -22.483  -5.628  -5.628  0.00  0.00    -0.648 OA
ENDBRANCH  13  14
ENDBRANCH   8  13
ENDBRANCH   7   8
BRANCH   5  17
HETATM   17  C           1     -21.249 -10.873  -0.202  0.00  0.00     0.196 C 
HETATM   18  O           1     -21.582 -11.493   0.831  0.00  0.00    -0.646 OA
HETATM   19  O           1     -21.366 -11.416  -1.322  0.00  0.00    -0.646 OA
ENDBRANCH   5  17
TORSDOF 5
ENDMDL
MODEL 8
REMARK VINA RESULT:      -5.5     14.433     16.565
REMARK  5 active torsions:
REMARK  status: ('A' for Active; 'I' for Inactive)
REMARK    1  A    between atoms: C_5  and  C_19 
REMARK    2  A    between atoms: N_8  and  C_18 
REMARK    3  A    between atoms: C_13  and  C_15 
REMARK       I    between atoms: N_16  and  C_17 
REMARK    4  A    between atoms: C_17  and  C_18 
REMARK    5  A    between atoms: C_18  and  C_19 
ROOT
HETATM    1  C           1     -20.668  -7.435  -3.218  0.00  0.00     0.038 C 
HETATM    2  O           1     -19.640  -6.529  -7.077  0.00  0.00    -0.271 OA
HETATM    3  C           1     -22.346  -6.497  -4.683  0.00  0.00     0.127 C 
HETATM    4  C           1     -21.913  -6.554  -3.228  0.00  0.00     0.022 C 
HETATM    5  C           1     -20.459  -7.841  -4.667  0.00  0.00     0.188 C 
HETATM    6  N           1     -21.119  -6.781  -5.424  0.00  0.00    -0.336 N 
HETATM    7  C           1     -20.684  -6.185  -6.576  0.00  0.00     0.251 C 
ENDROOT
BRANCH   7   8
HETATM    8  C           1     -21.508  -5.097  -7.221  0.00  0.00     0.284 C 
BRANCH   8   9
HETATM    9  N           1     -21.047  -3.760  -6.723  0.00  0.00    -0.066 N 
HETATM   10  H           1     -20.838  -3.823  -5.701  0.00  0.00     0.275 HD
HETATM   11  H           1     -20.183  -3.477  -7.237  0.00  0.00     0.275 HD
HETATM   12  H           1     -21.797  -3.051  -6.882  0.00  0.00     0.275 HD
ENDBRANCH   8   9
BRANCH   8  13
HETATM   13  C           1     -21.339  -5.161  -8.733  0.00  0.00     0.155 C 
BRANCH  13  14
HETATM   14  C           1     -22.491  -4.450  -9.400  0.00  0.00     0.175 C 
HETATM   15  O           1     -23.412  -3.965  -8.709  0.00  0.00    -0.648 OA
HETATM   16  O           1     -22.524  -4.347 -10.646  0.00  0.00    -0.648 OA
ENDBRANCH  13  14
ENDBRANCH   8  13
ENDBRANCH   7   8
BRANCH   5  17
HETATM   17  C           1     -21.097  -9.180  -4.947  0.00  0.00     0.196 C 
HETATM   18  O           1     -21.620  -9.831  -4.017  0.00  0.00    -0.646 OA
HETATM   19  O           1     -21.104  -9.637  -6.110  0.00  0.00    -0.646 OA
ENDBRANCH   5  17
TORSDOF 5
ENDMDL
MODEL 9
REMARK VINA RESULT:      -5.4     19.219     21.236
REMARK  5 active torsions:
REMARK  status: ('A' for Active; 'I' for Inactive)
REMARK    1  A    between atoms: C_5  and  C_19 
REMARK    2  A    between atoms: N_8  and  C_18 
REMARK    3  A    between atoms: C_13  and  C_15 
REMARK       I    between atoms: N_16  and  C_17 
REMARK    4  A    between atoms: C_17  and  C_18 
REMARK    5  A    between atoms: C_18  and  C_19 
ROOT
HETATM    1  C           1     -20.457  -7.851  -2.194  0.00  0.00     0.038 C 
HETATM    2  O           1     -20.995 -10.121   1.172  0.00  0.00    -0.271 OA
HETATM    3  C           1     -21.967  -9.735  -2.286  0.00  0.00     0.127 C 
HETATM    4  C           1     -21.006  -8.918  -3.133  0.00  0.00     0.022 C 
HETATM    5  C           1     -21.138  -8.109  -0.860  0.00  0.00     0.188 C 
HETATM    6  N           1     -21.495  -9.523  -0.920  0.00  0.00    -0.336 N 
HETATM    7  C           1     -21.408 -10.448   0.084  0.00  0.00     0.251 C 
ENDROOT
BRANCH   7   8
HETATM    8  C           1     -21.827 -11.876  -0.166  0.00  0.00     0.284 C 
BRANCH   8   9
HETATM    9  N           1     -20.905 -12.803   0.569  0.00  0.00    -0.066 N 
HETATM   10  H           1     -19.944 -12.392   0.591  0.00  0.00     0.275 HD
HETATM   11  H           1     -21.249 -12.933   1.547  0.00  0.00     0.275 HD
HETATM   12  H           1     -20.878 -13.726   0.082  0.00  0.00     0.275 HD
ENDBRANCH   8   9
BRANCH   8  13
HETATM   13  C           1     -23.252 -12.081   0.330  0.00  0.00     0.155 C 
BRANCH  13  14
HETATM   14  C           1     -23.388 -13.464   0.919  0.00  0.00     0.175 C 
HETATM   15  O           1     -23.462 -13.611   2.158  0.00  0.00    -0.648 OA
HETATM   16  O           1     -23.426 -14.462   0.167  0.00  0.00    -0.648 OA
ENDBRANCH  13  14
ENDBRANCH   8  13
ENDBRANCH   7   8
BRANCH   5  17
HETATM   17  C           1     -22.369  -7.249  -0.711  0.00  0.00     0.196 C 
HETATM   18  O           1     -22.531  -6.254  -1.450  0.00  0.00    -0.646 OA
HETATM   19  O           1     -23.228  -7.533   0.152  0.00  0.00    -0.646 OA
ENDBRANCH   5  17
TORSDOF 5
ENDMDL
