MODEL 1
REMARK VINA RESULT:      -5.8      0.000      0.000
REMARK  8 active torsions:
REMARK  status: ('A' for Active; 'I' for Inactive)
REMARK    1  A    between atoms: Se_1  and  C_20 
REMARK    2  A    between atoms: N_2  and  C_19 
REMARK    3  A    between atoms: C_5  and  O_6 
REMARK    4  A    between atoms: C_5  and  C_7 
REMARK    5  A    between atoms: C_7  and  C_8 
REMARK    6  A    between atoms: C_7  and  N_11 
REMARK       I    between atoms: N_11  and  C_18 
REMARK    7  A    between atoms: C_18  and  C_19 
REMARK    8  A    between atoms: C_19  and  C_20 
ROOT
HETATM    1  O           1     -21.669  -3.425  -7.370  0.00  0.00    -0.271 OA
HETATM    2  N           1     -22.128  -4.791  -9.075  0.00  0.00    -0.343 N 
HETATM    3  H           1     -22.137  -5.736  -9.440  0.00  0.00     0.163 HD
HETATM    4  C           1     -21.680  -4.552  -7.804  0.00  0.00     0.249 C 
ENDROOT
BRANCH   2   5
HETATM    5  C           1     -22.593  -3.692  -9.900  0.00  0.00     0.214 C 
BRANCH   5   6
HETATM    6  C           1     -21.797  -3.661 -11.198  0.00  0.00     0.147 C 
HETATM    7  C           1     -20.427  -4.285 -10.967  0.00  0.00     0.042 C 
BRANCH   6   8
HETATM    8  O           1     -22.482  -4.386 -12.183  0.00  0.00    -0.393 OA
HETATM    9  H           1     -21.847  -4.628 -12.835  0.00  0.00     0.210 HD
ENDBRANCH   6   8
ENDBRANCH   5   6
BRANCH   5  10
HETATM   10  C           1     -24.057  -3.883 -10.211  0.00  0.00     0.199 C 
HETATM   11  O           1     -24.611  -4.977  -9.969  0.00  0.00    -0.646 OA
HETATM   12  O           1     -24.717  -2.946 -10.711  0.00  0.00    -0.646 OA
ENDBRANCH   5  10
ENDBRANCH   2   5
BRANCH   4  13
HETATM   13  C           1     -21.197  -5.695  -6.946  0.00  0.00     0.274 C 
BRANCH  13  14
HETATM   14  N           1     -19.940  -6.265  -7.535  0.00  0.00    -0.067 N 
HETATM   15  H           1     -19.263  -6.482  -6.768  0.00  0.00     0.275 HD
HETATM   16  H           1     -20.166  -7.142  -8.057  0.00  0.00     0.275 HD
HETATM   17  H           1     -19.515  -5.570  -8.188  0.00  0.00     0.275 HD
ENDBRANCH  13  14
BRANCH  13  18
HETATM   18  C           1     -20.913  -5.189  -5.538  0.00  0.00     0.045 C 
BRANCH  18  19
HETATM   19 Se           1     -21.596  -6.468  -4.236  0.00  0.00     0.000 Se
HETATM   20  H           1     -22.959  -5.913  -4.232  0.00  0.00     0.000 HD
ENDBRANCH  18  19
ENDBRANCH  13  18
ENDBRANCH   4  13
TORSDOF 8
ENDMDL
MODEL 2
REMARK VINA RESULT:      -5.5     13.437     14.617
REMARK  8 active torsions:
REMARK  status: ('A' for Active; 'I' for Inactive)
REMARK    1  A    between atoms: Se_1  and  C_20 
REMARK    2  A    between atoms: N_2  and  C_19 
REMARK    3  A    between atoms: C_5  and  O_6 
REMARK    4  A    between atoms: C_5  and  C_7 
REMARK    5  A    between atoms: C_7  and  C_8 
REMARK    6  A    between atoms: C_7  and  N_11 
REMARK       I    between atoms: N_11  and  C_18 
REMARK    7  A    between atoms: C_18  and  C_19 
REMARK    8  A    between atoms: C_19  and  C_20 
ROOT
HETATM    1  O           1     -36.490  -1.565 -12.295  0.00  0.00    -0.271 OA
HETATM    2  N           1     -35.062  -1.248 -13.982  0.00  0.00    -0.343 N 
HETATM    3  H           1     -34.129  -1.381 -14.354  0.00  0.00     0.163 HD
HETATM    4  C           1     -35.378  -1.724 -12.738  0.00  0.00     0.249 C 
ENDROOT
BRANCH   2   5
HETATM    5  C           1     -36.064  -0.555 -14.770  0.00  0.00     0.214 C 
BRANCH   5   6
HETATM    6  C           1     -35.884   0.949 -14.609  0.00  0.00     0.147 C 
HETATM    7  C           1     -34.513   1.233 -14.010  0.00  0.00     0.042 C 
BRANCH   6   8
HETATM    8  O           1     -35.984   1.568 -15.863  0.00  0.00    -0.393 OA
HETATM    9  H           1     -36.867   1.434 -16.164  0.00  0.00     0.210 HD
ENDBRANCH   6   8
ENDBRANCH   5   6
BRANCH   5  10
HETATM   10  C           1     -35.906  -0.929 -16.223  0.00  0.00     0.199 C 
HETATM   11  O           1     -36.854  -0.759 -17.019  0.00  0.00    -0.646 OA
HETATM   12  O           1     -34.825  -1.408 -16.631  0.00  0.00    -0.646 OA
ENDBRANCH   5  10
ENDBRANCH   2   5
BRANCH   4  13
HETATM   13  C           1     -34.336  -2.446 -11.920  0.00  0.00     0.274 C 
BRANCH  13  14
HETATM   14  N           1     -33.855  -1.547 -10.819  0.00  0.00    -0.067 N 
HETATM   15  H           1     -34.467  -0.702 -10.765  0.00  0.00     0.275 HD
HETATM   16  H           1     -33.892  -2.061  -9.909  0.00  0.00     0.275 HD
HETATM   17  H           1     -32.872  -1.253 -11.013  0.00  0.00     0.275 HD
ENDBRANCH  13  14
BRANCH  13  18
HETATM   18  C           1     -34.946  -3.704 -11.316  0.00  0.00     0.045 C 
BRANCH  18  19
HETATM   19 Se           1     -33.597  -5.108 -11.237  0.00  0.00     0.000 Se
HETATM   20  H           1     -33.217  -4.984 -12.654  0.00  0.00     0.000 HD
ENDBRANCH  18  19
ENDBRANCH  13  18
ENDBRANCH   4  13
TORSDOF 8
ENDMDL
MODEL 3
REMARK VINA RESULT:      -5.2     12.259     14.093
REMARK  8 active torsions:
REMARK  status: ('A' for Active; 'I' for Inactive)
REMARK    1  A    between atoms: Se_1  and  C_20 
REMARK    2  A    between atoms: N_2  and  C_19 
REMARK    3  A    between atoms: C_5  and  O_6 
REMARK    4  A    between atoms: C_5  and  C_7 
REMARK    5  A    between atoms: C_7  and  C_8 
REMARK    6  A    between atoms: C_7  and  N_11 
REMARK       I    between atoms: N_11  and  C_18 
REMARK    7  A    between atoms: C_18  and  C_19 
REMARK    8  A    between atoms: C_19  and  C_20 
ROOT
HETATM    1  O           1     -33.830  -1.851 -11.093  0.00  0.00    -0.271 OA
HETATM    2  N           1     -35.454  -1.757 -12.623  0.00  0.00    -0.343 N 
HETATM    3  H           1     -36.008  -2.243 -13.317  0.00  0.00     0.163 HD
HETATM    4  C           1     -34.490  -2.431 -11.922  0.00  0.00     0.249 C 
ENDROOT
BRANCH   2   5
HETATM    5  C           1     -35.684  -0.348 -12.369  0.00  0.00     0.214 C 
BRANCH   5   6
HETATM    6  C           1     -36.139   0.331 -13.654  0.00  0.00     0.147 C 
HETATM    7  C           1     -34.919   0.785 -14.446  0.00  0.00     0.042 C 
BRANCH   6   8
HETATM    8  O           1     -36.884  -0.575 -14.422  0.00  0.00    -0.393 OA
HETATM    9  H           1     -36.387  -0.745 -15.204  0.00  0.00     0.210 HD
ENDBRANCH   6   8
ENDBRANCH   5   6
BRANCH   5  10
HETATM   10  C           1     -36.752  -0.195 -11.314  0.00  0.00     0.199 C 
HETATM   11  O           1     -36.543   0.520 -10.312  0.00  0.00    -0.646 OA
HETATM   12  O           1     -37.847  -0.785 -11.444  0.00  0.00    -0.646 OA
ENDBRANCH   5  10
ENDBRANCH   2   5
BRANCH   4  13
HETATM   13  C           1     -34.252  -3.897 -12.185  0.00  0.00     0.274 C 
BRANCH  13  14
HETATM   14  N           1     -33.418  -4.053 -13.423  0.00  0.00    -0.067 N 
HETATM   15  H           1     -32.814  -4.901 -13.332  0.00  0.00     0.275 HD
HETATM   16  H           1     -34.044  -4.161 -14.253  0.00  0.00     0.275 HD
HETATM   17  H           1     -32.817  -3.209 -13.546  0.00  0.00     0.275 HD
ENDBRANCH  13  14
BRANCH  13  18
HETATM   18  C           1     -33.520  -4.514 -11.000  0.00  0.00     0.045 C 
BRANCH  18  19
HETATM   19 Se           1     -34.342  -6.220 -10.543  0.00  0.00     0.000 Se
HETATM   20  H           1     -34.544  -5.876  -9.126  0.00  0.00     0.000 HD
ENDBRANCH  18  19
ENDBRANCH  13  18
ENDBRANCH   4  13
TORSDOF 8
ENDMDL
MODEL 4
REMARK VINA RESULT:      -5.2     10.573     11.834
REMARK  8 active torsions:
REMARK  status: ('A' for Active; 'I' for Inactive)
REMARK    1  A    between atoms: Se_1  and  C_20 
REMARK    2  A    between atoms: N_2  and  C_19 
REMARK    3  A    between atoms: C_5  and  O_6 
REMARK    4  A    between atoms: C_5  and  C_7 
REMARK    5  A    between atoms: C_7  and  C_8 
REMARK    6  A    between atoms: C_7  and  N_11 
REMARK       I    between atoms: N_11  and  C_18 
REMARK    7  A    between atoms: C_18  and  C_19 
REMARK    8  A    between atoms: C_19  and  C_20 
ROOT
HETATM    1  O           1     -27.187  -5.967 -20.389  0.00  0.00    -0.271 OA
HETATM    2  N           1     -26.965  -6.295 -18.191  0.00  0.00    -0.343 N 
HETATM    3  H           1     -26.381  -6.607 -17.425  0.00  0.00     0.163 HD
HETATM    4  C           1     -26.491  -6.338 -19.475  0.00  0.00     0.249 C 
ENDROOT
BRANCH   2   5
HETATM    5  C           1     -28.303  -5.801 -17.929  0.00  0.00     0.214 C 
BRANCH   5   6
HETATM    6  C           1     -29.138  -6.907 -17.298  0.00  0.00     0.147 C 
HETATM    7  C           1     -29.812  -7.719 -18.396  0.00  0.00     0.042 C 
BRANCH   6   8
HETATM    8  O           1     -28.307  -7.744 -16.540  0.00  0.00    -0.393 OA
HETATM    9  H           1     -27.897  -7.204 -15.886  0.00  0.00     0.210 HD
ENDBRANCH   6   8
ENDBRANCH   5   6
BRANCH   5  10
HETATM   10  C           1     -28.227  -4.626 -16.984  0.00  0.00     0.199 C 
HETATM   11  O           1     -28.611  -3.497 -17.357  0.00  0.00    -0.646 OA
HETATM   12  O           1     -27.781  -4.784 -15.826  0.00  0.00    -0.646 OA
ENDBRANCH   5  10
ENDBRANCH   2   5
BRANCH   4  13
HETATM   13  C           1     -25.098  -6.852 -19.747  0.00  0.00     0.274 C 
BRANCH  13  14
HETATM   14  N           1     -24.531  -7.448 -18.492  0.00  0.00    -0.067 N 
HETATM   15  H           1     -23.928  -6.742 -18.012  0.00  0.00     0.275 HD
HETATM   16  H           1     -25.312  -7.728 -17.857  0.00  0.00     0.275 HD
HETATM   17  H           1     -23.959  -8.288 -18.733  0.00  0.00     0.275 HD
ENDBRANCH  13  14
BRANCH  13  18
HETATM   18  C           1     -25.154  -7.918 -20.834  0.00  0.00     0.045 C 
BRANCH  18  19
HETATM   19 Se           1     -23.347  -8.319 -21.445  0.00  0.00     0.000 Se
HETATM   20  H           1     -22.730  -7.186 -20.736  0.00  0.00     0.000 HD
ENDBRANCH  18  19
ENDBRANCH  13  18
ENDBRANCH   4  13
TORSDOF 8
ENDMDL
MODEL 5
REMARK VINA RESULT:      -4.8     11.912     13.468
REMARK  8 active torsions:
REMARK  status: ('A' for Active; 'I' for Inactive)
REMARK    1  A    between atoms: Se_1  and  C_20 
REMARK    2  A    between atoms: N_2  and  C_19 
REMARK    3  A    between atoms: C_5  and  O_6 
REMARK    4  A    between atoms: C_5  and  C_7 
REMARK    5  A    between atoms: C_7  and  C_8 
REMARK    6  A    between atoms: C_7  and  N_11 
REMARK       I    between atoms: N_11  and  C_18 
REMARK    7  A    between atoms: C_18  and  C_19 
REMARK    8  A    between atoms: C_19  and  C_20 
ROOT
HETATM    1  O           1     -35.004  -5.058 -15.474  0.00  0.00    -0.271 OA
HETATM    2  N           1     -33.398  -4.018 -14.323  0.00  0.00    -0.343 N 
HETATM    3  H           1     -32.483  -3.584 -14.326  0.00  0.00     0.163 HD
HETATM    4  C           1     -33.913  -4.540 -15.478  0.00  0.00     0.249 C 
ENDROOT
BRANCH   2   5
HETATM    5  C           1     -34.164  -4.084 -13.092  0.00  0.00     0.214 C 
BRANCH   5   6
HETATM    6  C           1     -33.228  -4.378 -11.928  0.00  0.00     0.147 C 
HETATM    7  C           1     -33.808  -5.506 -11.085  0.00  0.00     0.042 C 
BRANCH   6   8
HETATM    8  O           1     -31.973  -4.760 -12.422  0.00  0.00    -0.393 OA
HETATM    9  H           1     -31.961  -5.702 -12.439  0.00  0.00     0.210 HD
ENDBRANCH   6   8
ENDBRANCH   5   6
BRANCH   5  10
HETATM   10  C           1     -34.856  -2.763 -12.862  0.00  0.00     0.199 C 
HETATM   11  O           1     -35.508  -2.573 -11.813  0.00  0.00    -0.646 OA
HETATM   12  O           1     -34.777  -1.858 -13.721  0.00  0.00    -0.646 OA
ENDBRANCH   5  10
ENDBRANCH   2   5
BRANCH   4  13
HETATM   13  C           1     -33.116  -4.471 -16.758  0.00  0.00     0.274 C 
BRANCH  13  14
HETATM   14  N           1     -33.391  -3.167 -17.448  0.00  0.00    -0.067 N 
HETATM   15  H           1     -32.494  -2.651 -17.590  0.00  0.00     0.275 HD
HETATM   16  H           1     -33.837  -3.351 -18.375  0.00  0.00     0.275 HD
HETATM   17  H           1     -34.034  -2.591 -16.860  0.00  0.00     0.275 HD
ENDBRANCH  13  14
BRANCH  13  18
HETATM   18  C           1     -31.630  -4.570 -16.438  0.00  0.00     0.045 C 
BRANCH  18  19
HETATM   19 Se           1     -30.896  -6.184 -17.246  0.00  0.00     0.000 Se
HETATM   20  H           1     -32.212  -6.779 -17.532  0.00  0.00     0.000 HD
ENDBRANCH  18  19
ENDBRANCH  13  18
ENDBRANCH   4  13
TORSDOF 8
ENDMDL
MODEL 6
REMARK VINA RESULT:      -4.7     17.898     19.498
REMARK  8 active torsions:
REMARK  status: ('A' for Active; 'I' for Inactive)
REMARK    1  A    between atoms: Se_1  and  C_20 
REMARK    2  A    between atoms: N_2  and  C_19 
REMARK    3  A    between atoms: C_5  and  O_6 
REMARK    4  A    between atoms: C_5  and  C_7 
REMARK    5  A    between atoms: C_7  and  C_8 
REMARK    6  A    between atoms: C_7  and  N_11 
REMARK       I    between atoms: N_11  and  C_18 
REMARK    7  A    between atoms: C_18  and  C_19 
REMARK    8  A    between atoms: C_19  and  C_20 
ROOT
HETATM    1  O           1     -12.200   6.200 -22.284  0.00  0.00    -0.271 OA
HETATM    2  N           1     -12.234   6.844 -20.146  0.00  0.00    -0.343 N 
HETATM    3  H           1     -12.726   6.857 -19.261  0.00  0.00     0.163 HD
HETATM    4  C           1     -12.787   6.215 -21.229  0.00  0.00     0.249 C 
ENDROOT
BRANCH   2   5
HETATM    5  C           1     -10.940   7.490 -20.265  0.00  0.00     0.214 C 
BRANCH   5   6
HETATM    6  C           1     -10.947   8.789 -19.471  0.00  0.00     0.147 C 
HETATM    7  C           1     -12.383   9.166 -19.131  0.00  0.00     0.042 C 
BRANCH   6   8
HETATM    8  O           1     -10.215   8.617 -18.287  0.00  0.00    -0.393 OA
HETATM    9  H           1     -10.815   8.750 -17.573  0.00  0.00     0.210 HD
ENDBRANCH   6   8
ENDBRANCH   5   6
BRANCH   5  10
HETATM   10  C           1      -9.871   6.573 -19.723  0.00  0.00     0.199 C 
HETATM   11  O           1     -10.071   5.933 -18.669  0.00  0.00    -0.646 OA
HETATM   12  O           1      -8.784   6.454 -20.329  0.00  0.00    -0.646 OA
ENDBRANCH   5  10
ENDBRANCH   2   5
BRANCH   4  13
HETATM   13  C           1     -14.133   5.543 -21.105  0.00  0.00     0.274 C 
BRANCH  13  14
HETATM   14  N           1     -14.653   5.211 -22.472  0.00  0.00    -0.067 N 
HETATM   15  H           1     -13.857   4.938 -23.092  0.00  0.00     0.275 HD
HETATM   16  H           1     -15.328   4.415 -22.404  0.00  0.00     0.275 HD
HETATM   17  H           1     -15.136   6.045 -22.873  0.00  0.00     0.275 HD
ENDBRANCH  13  14
BRANCH  13  18
HETATM   18  C           1     -13.988   4.263 -20.293  0.00  0.00     0.045 C 
BRANCH  18  19
HETATM   19 Se           1     -13.259   2.853 -21.425  0.00  0.00     0.000 Se
HETATM   20  H           1     -14.043   1.780 -20.792  0.00  0.00     0.000 HD
ENDBRANCH  18  19
ENDBRANCH  13  18
ENDBRANCH   4  13
TORSDOF 8
ENDMDL
MODEL 7
REMARK VINA RESULT:      -4.6     17.789     19.039
REMARK  8 active torsions:
REMARK  status: ('A' for Active; 'I' for Inactive)
REMARK    1  A    between atoms: Se_1  and  C_20 
REMARK    2  A    between atoms: N_2  and  C_19 
REMARK    3  A    between atoms: C_5  and  O_6 
REMARK    4  A    between atoms: C_5  and  C_7 
REMARK    5  A    between atoms: C_7  and  C_8 
REMARK    6  A    between atoms: C_7  and  N_11 
REMARK       I    between atoms: N_11  and  C_18 
REMARK    7  A    between atoms: C_18  and  C_19 
REMARK    8  A    between atoms: C_19  and  C_20 
ROOT
HETATM    1  O           1     -12.218   7.461 -21.489  0.00  0.00    -0.271 OA
HETATM    2  N           1     -12.001   5.387 -20.690  0.00  0.00    -0.343 N 
HETATM    3  H           1     -11.525   4.757 -20.056  0.00  0.00     0.163 HD
HETATM    4  C           1     -11.651   6.710 -20.732  0.00  0.00     0.249 C 
ENDROOT
BRANCH   2   5
HETATM    5  C           1     -13.054   4.888 -21.552  0.00  0.00     0.214 C 
BRANCH   5   6
HETATM    6  C           1     -12.740   3.455 -21.959  0.00  0.00     0.147 C 
HETATM    7  C           1     -11.759   2.850 -20.964  0.00  0.00     0.042 C 
BRANCH   6   8
HETATM    8  O           1     -13.922   2.701 -21.968  0.00  0.00    -0.393 OA
HETATM    9  H           1     -13.839   2.070 -22.662  0.00  0.00     0.210 HD
ENDBRANCH   6   8
ENDBRANCH   5   6
BRANCH   5  10
HETATM   10  C           1     -14.368   4.924 -20.811  0.00  0.00     0.199 C 
HETATM   11  O           1     -15.410   5.283 -21.401  0.00  0.00    -0.646 OA
HETATM   12  O           1     -14.415   4.594 -19.606  0.00  0.00    -0.646 OA
ENDBRANCH   5  10
ENDBRANCH   2   5
BRANCH   4  13
HETATM   13  C           1     -10.555   7.230 -19.834  0.00  0.00     0.274 C 
BRANCH  13  14
HETATM   14  N           1      -9.259   6.562 -20.190  0.00  0.00    -0.067 N 
HETATM   15  H           1      -8.560   6.731 -19.432  0.00  0.00     0.275 HD
HETATM   16  H           1      -9.415   5.534 -20.295  0.00  0.00     0.275 HD
HETATM   17  H           1      -8.900   6.955 -21.088  0.00  0.00     0.275 HD
ENDBRANCH  13  14
BRANCH  13  18
HETATM   18  C           1     -10.417   8.735 -20.021  0.00  0.00     0.045 C 
BRANCH  18  19
HETATM   19 Se           1      -8.981   9.105 -21.285  0.00  0.00     0.000 Se
HETATM   20  H           1      -9.862   9.744 -22.277  0.00  0.00     0.000 HD
ENDBRANCH  18  19
ENDBRANCH  13  18
ENDBRANCH   4  13
TORSDOF 8
ENDMDL
MODEL 8
REMARK VINA RESULT:      -4.6     18.512     19.959
REMARK  8 active torsions:
REMARK  status: ('A' for Active; 'I' for Inactive)
REMARK    1  A    between atoms: Se_1  and  C_20 
REMARK    2  A    between atoms: N_2  and  C_19 
REMARK    3  A    between atoms: C_5  and  O_6 
REMARK    4  A    between atoms: C_5  and  C_7 
REMARK    5  A    between atoms: C_7  and  C_8 
REMARK    6  A    between atoms: C_7  and  N_11 
REMARK       I    between atoms: N_11  and  C_18 
REMARK    7  A    between atoms: C_18  and  C_19 
REMARK    8  A    between atoms: C_19  and  C_20 
ROOT
HETATM    1  O           1     -11.807   5.669 -19.220  0.00  0.00    -0.271 OA
HETATM    2  N           1     -11.763   7.318 -20.726  0.00  0.00    -0.343 N 
HETATM    3  H           1     -12.200   7.764 -21.523  0.00  0.00     0.163 HD
HETATM    4  C           1     -12.329   6.202 -20.170  0.00  0.00     0.249 C 
ENDROOT
BRANCH   2   5
HETATM    5  C           1     -10.538   7.863 -20.172  0.00  0.00     0.214 C 
BRANCH   5   6
HETATM    6  C           1      -9.723   8.509 -21.284  0.00  0.00     0.147 C 
HETATM    7  C           1     -10.613   8.735 -22.499  0.00  0.00     0.042 C 
BRANCH   6   8
HETATM    8  O           1      -9.218   9.739 -20.839  0.00  0.00    -0.393 OA
HETATM    9  H           1      -9.914  10.167 -20.372  0.00  0.00     0.210 HD
ENDBRANCH   6   8
ENDBRANCH   5   6
BRANCH   5  10
HETATM   10  C           1     -10.877   8.899 -19.129  0.00  0.00     0.199 C 
HETATM   11  O           1     -11.902   9.602 -19.255  0.00  0.00    -0.646 OA
HETATM   12  O           1     -10.132   9.052 -18.136  0.00  0.00    -0.646 OA
ENDBRANCH   5  10
ENDBRANCH   2   5
BRANCH   4  13
HETATM   13  C           1     -13.603   5.636 -20.746  0.00  0.00     0.274 C 
BRANCH  13  14
HETATM   14  N           1     -13.522   5.644 -22.245  0.00  0.00    -0.067 N 
HETATM   15  H           1     -14.188   6.353 -22.626  0.00  0.00     0.275 HD
HETATM   16  H           1     -12.549   5.889 -22.538  0.00  0.00     0.275 HD
HETATM   17  H           1     -13.770   4.699 -22.612  0.00  0.00     0.275 HD
ENDBRANCH  13  14
BRANCH  13  18
HETATM   18  C           1     -13.790   4.205 -20.258  0.00  0.00     0.045 C 
BRANCH  18  19
HETATM   19 Se           1     -13.364   2.964 -21.699  0.00  0.00     0.000 Se
HETATM   20  H           1     -14.747   2.484 -21.851  0.00  0.00     0.000 HD
ENDBRANCH  18  19
ENDBRANCH  13  18
ENDBRANCH   4  13
TORSDOF 8
ENDMDL
MODEL 9
REMARK VINA RESULT:      -4.6     18.336     19.609
REMARK  8 active torsions:
REMARK  status: ('A' for Active; 'I' for Inactive)
REMARK    1  A    between atoms: Se_1  and  C_20 
REMARK    2  A    between atoms: N_2  and  C_19 
REMARK    3  A    between atoms: C_5  and  O_6 
REMARK    4  A    between atoms: C_5  and  C_7 
REMARK    5  A    between atoms: C_7  and  C_8 
REMARK    6  A    between atoms: C_7  and  N_11 
REMARK       I    between atoms: N_11  and  C_18 
REMARK    7  A    between atoms: C_18  and  C_19 
REMARK    8  A    between atoms: C_19  and  C_20 
ROOT
HETATM    1  O           1     -11.581   5.304 -18.952  0.00  0.00    -0.271 OA
HETATM    2  N           1     -10.798   6.678 -20.528  0.00  0.00    -0.343 N 
HETATM    3  H           1     -10.402   6.785 -21.454  0.00  0.00     0.163 HD
HETATM    4  C           1     -11.109   5.432 -20.056  0.00  0.00     0.249 C 
ENDROOT
BRANCH   2   5
HETATM    5  C           1     -11.038   7.847 -19.704  0.00  0.00     0.214 C 
BRANCH   5   6
HETATM    6  C           1     -10.072   8.955 -20.101  0.00  0.00     0.147 C 
HETATM    7  C           1      -9.095   8.425 -21.142  0.00  0.00     0.042 C 
BRANCH   6   8
HETATM    8  O           1     -10.792  10.031 -20.640  0.00  0.00    -0.393 OA
HETATM    9  H           1     -11.288  10.409 -19.934  0.00  0.00     0.210 HD
ENDBRANCH   6   8
ENDBRANCH   5   6
BRANCH   5  10
HETATM   10  C           1     -12.457   8.320 -19.905  0.00  0.00     0.199 C 
HETATM   11  O           1     -13.103   8.787 -18.943  0.00  0.00    -0.646 OA
HETATM   12  O           1     -12.986   8.245 -21.036  0.00  0.00    -0.646 OA
ENDBRANCH   5  10
ENDBRANCH   2   5
BRANCH   4  13
HETATM   13  C           1     -10.860   4.216 -20.914  0.00  0.00     0.274 C 
BRANCH  13  14
HETATM   14  N           1     -10.977   2.978 -20.074  0.00  0.00    -0.067 N 
HETATM   15  H           1     -10.319   2.250 -20.431  0.00  0.00     0.275 HD
HETATM   16  H           1     -10.737   3.207 -19.082  0.00  0.00     0.275 HD
HETATM   17  H           1     -11.956   2.617 -20.121  0.00  0.00     0.275 HD
ENDBRANCH  13  14
BRANCH  13  18
HETATM   18  C           1     -11.890   4.166 -22.035  0.00  0.00     0.045 C 
BRANCH  18  19
HETATM   19 Se           1     -13.332   2.952 -21.540  0.00  0.00     0.000 Se
HETATM   20  H           1     -14.317   4.025 -21.324  0.00  0.00     0.000 HD
ENDBRANCH  18  19
ENDBRANCH  13  18
ENDBRANCH   4  13
TORSDOF 8
ENDMDL
