MODEL 1
REMARK VINA RESULT:      -7.3      0.000      0.000
REMARK  9 active torsions:
REMARK  status: ('A' for Active; 'I' for Inactive)
REMARK    1  A    between atoms: C_1  and  C_9 
REMARK    2  A    between atoms: C_1  and  C_18 
REMARK    3  A    between atoms: C_1  and  N_10 
REMARK    4  A    between atoms: C_3  and  C_8 
REMARK    5  A    between atoms: C_6  and  C_7 
REMARK    6  A    between atoms: C_6  and  C_8 
REMARK    7  A    between atoms: C_7  and  C_21 
REMARK    8  A    between atoms: C_8  and  N_12 
REMARK       I    between atoms: C_9  and  N_12 
REMARK    9  A    between atoms: C_18  and  C_25 
ROOT
HETATM    1  C           1     -21.281  -5.840  -5.733  0.00  0.00     0.249 C 
HETATM    2  N           1     -21.335  -7.160  -5.374  0.00  0.00    -0.345 N 
HETATM    3  O           1     -20.475  -5.106  -5.213  0.00  0.00    -0.271 OA
HETATM    4  H           1     -22.011  -7.776  -5.809  0.00  0.00     0.163 HD
ENDROOT
BRANCH   1   5
HETATM    5  C           1     -22.229  -5.303  -6.776  0.00  0.00     0.278 C 
BRANCH   5   6
HETATM    6  C           1     -21.671  -4.008  -7.352  0.00  0.00     0.081 C 
BRANCH   6   7
HETATM    7  C           1     -21.641  -4.097  -8.846  0.00  0.00    -0.056 A 
HETATM    8  C           1     -22.835  -4.168  -9.563  0.00  0.00     0.007 A 
HETATM    9  C           1     -22.809  -4.251 -10.956  0.00  0.00     0.001 A 
HETATM   10  C           1     -21.587  -4.264 -11.630  0.00  0.00     0.000 A 
HETATM   11  C           1     -20.394  -4.193 -10.912  0.00  0.00     0.001 A 
HETATM   12  C           1     -20.421  -4.109  -9.520  0.00  0.00     0.007 A 
ENDBRANCH   6   7
ENDBRANCH   5   6
BRANCH   5  13
HETATM   13  N           1     -23.564  -5.035  -6.148  0.00  0.00    -0.066 N 
HETATM   14  H           1     -23.427  -4.567  -5.224  0.00  0.00     0.275 HD
HETATM   15  H           1     -24.072  -5.938  -6.009  0.00  0.00     0.275 HD
HETATM   16  H           1     -24.125  -4.414  -6.773  0.00  0.00     0.275 HD
ENDBRANCH   5  13
ENDBRANCH   1   5
BRANCH   2  17
HETATM   17  C           1     -20.424  -7.677  -4.371  0.00  0.00     0.186 C 
BRANCH  17  18
HETATM   18  C           1     -19.491  -8.678  -5.008  0.00  0.00     0.196 C 
HETATM   19  O           1     -19.220  -9.745  -4.415  0.00  0.00    -0.646 OA
HETATM   20  O           1     -18.989  -8.441  -6.128  0.00  0.00    -0.646 OA
ENDBRANCH  17  18
BRANCH  17  21
HETATM   21  C           1     -21.219  -8.359  -3.266  0.00  0.00     0.046 C 
BRANCH  21  22
HETATM   22  C           1     -20.985  -7.631  -1.949  0.00  0.00     0.116 C 
BRANCH  22  23
HETATM   23  C           1     -22.164  -6.737  -1.651  0.00  0.00     0.172 C 
HETATM   24  O           1     -22.505  -5.857  -2.471  0.00  0.00    -0.648 OA
HETATM   25  O           1     -22.801  -6.876  -0.584  0.00  0.00    -0.648 OA
ENDBRANCH  22  23
ENDBRANCH  21  22
ENDBRANCH  17  21
ENDBRANCH   2  17
TORSDOF 9
ENDMDL
MODEL 2
REMARK VINA RESULT:      -7.1      1.191      1.577
REMARK  9 active torsions:
REMARK  status: ('A' for Active; 'I' for Inactive)
REMARK    1  A    between atoms: C_1  and  C_9 
REMARK    2  A    between atoms: C_1  and  C_18 
REMARK    3  A    between atoms: C_1  and  N_10 
REMARK    4  A    between atoms: C_3  and  C_8 
REMARK    5  A    between atoms: C_6  and  C_7 
REMARK    6  A    between atoms: C_6  and  C_8 
REMARK    7  A    between atoms: C_7  and  C_21 
REMARK    8  A    between atoms: C_8  and  N_12 
REMARK       I    between atoms: C_9  and  N_12 
REMARK    9  A    between atoms: C_18  and  C_25 
ROOT
HETATM    1  C           1     -20.981  -6.974  -5.899  0.00  0.00     0.249 C 
HETATM    2  N           1     -21.605  -7.808  -5.010  0.00  0.00    -0.345 N 
HETATM    3  O           1     -19.791  -7.070  -6.085  0.00  0.00    -0.271 OA
HETATM    4  H           1     -22.602  -7.727  -4.853  0.00  0.00     0.163 HD
ENDROOT
BRANCH   1   5
HETATM    5  C           1     -21.780  -5.934  -6.646  0.00  0.00     0.278 C 
BRANCH   5   6
HETATM    6  C           1     -20.867  -4.781  -7.043  0.00  0.00     0.081 C 
BRANCH   6   7
HETATM    7  C           1     -21.083  -4.449  -8.487  0.00  0.00    -0.056 A 
HETATM    8  C           1     -22.295  -3.895  -8.900  0.00  0.00     0.007 A 
HETATM    9  C           1     -22.497  -3.584 -10.245  0.00  0.00     0.001 A 
HETATM   10  C           1     -21.487  -3.828 -11.177  0.00  0.00     0.000 A 
HETATM   11  C           1     -20.276  -4.382 -10.762  0.00  0.00     0.001 A 
HETATM   12  C           1     -20.075  -4.692  -9.418  0.00  0.00     0.007 A 
ENDBRANCH   6   7
ENDBRANCH   5   6
BRANCH   5  13
HETATM   13  N           1     -22.879  -5.420  -5.764  0.00  0.00    -0.066 N 
HETATM   14  H           1     -23.412  -4.677  -6.270  0.00  0.00     0.275 HD
HETATM   15  H           1     -22.468  -5.020  -4.891  0.00  0.00     0.275 HD
HETATM   16  H           1     -23.523  -6.205  -5.518  0.00  0.00     0.275 HD
ENDBRANCH   5  13
ENDBRANCH   1   5
BRANCH   2  17
HETATM   17  C           1     -20.837  -8.807  -4.292  0.00  0.00     0.186 C 
BRANCH  17  18
HETATM   18  C           1     -21.058 -10.160  -4.924  0.00  0.00     0.196 C 
HETATM   19  O           1     -21.032 -10.280  -6.168  0.00  0.00    -0.646 OA
HETATM   20  O           1     -21.267 -11.160  -4.203  0.00  0.00    -0.646 OA
ENDBRANCH  17  18
BRANCH  17  21
HETATM   21  C           1     -21.289  -8.846  -2.839  0.00  0.00     0.046 C 
BRANCH  21  22
HETATM   22  C           1     -20.858  -7.565  -2.137  0.00  0.00     0.116 C 
BRANCH  22  23
HETATM   23  C           1     -22.070  -6.709  -1.863  0.00  0.00     0.172 C 
HETATM   24  O           1     -22.665  -6.799  -0.767  0.00  0.00    -0.648 OA
HETATM   25  O           1     -22.479  -5.908  -2.732  0.00  0.00    -0.648 OA
ENDBRANCH  22  23
ENDBRANCH  21  22
ENDBRANCH  17  21
ENDBRANCH   2  17
TORSDOF 9
ENDMDL
MODEL 3
REMARK VINA RESULT:      -7.0      3.009      7.504
REMARK  9 active torsions:
REMARK  status: ('A' for Active; 'I' for Inactive)
REMARK    1  A    between atoms: C_1  and  C_9 
REMARK    2  A    between atoms: C_1  and  C_18 
REMARK    3  A    between atoms: C_1  and  N_10 
REMARK    4  A    between atoms: C_3  and  C_8 
REMARK    5  A    between atoms: C_6  and  C_7 
REMARK    6  A    between atoms: C_6  and  C_8 
REMARK    7  A    between atoms: C_7  and  C_21 
REMARK    8  A    between atoms: C_8  and  N_12 
REMARK       I    between atoms: C_9  and  N_12 
REMARK    9  A    between atoms: C_18  and  C_25 
ROOT
HETATM    1  C           1     -21.072  -5.975  -6.429  0.00  0.00     0.249 C 
HETATM    2  N           1     -21.290  -4.772  -7.043  0.00  0.00    -0.345 N 
HETATM    3  O           1     -21.116  -6.998  -7.070  0.00  0.00    -0.271 OA
HETATM    4  H           1     -21.255  -3.914  -6.506  0.00  0.00     0.163 HD
ENDROOT
BRANCH   1   5
HETATM    5  C           1     -20.778  -6.025  -4.950  0.00  0.00     0.278 C 
BRANCH   5   6
HETATM    6  C           1     -22.060  -6.331  -4.186  0.00  0.00     0.081 C 
BRANCH   6   7
HETATM    7  C           1     -21.721  -6.981  -2.881  0.00  0.00    -0.056 A 
HETATM    8  C           1     -22.364  -6.574  -1.712  0.00  0.00     0.007 A 
HETATM    9  C           1     -22.049  -7.179  -0.495  0.00  0.00     0.001 A 
HETATM   10  C           1     -21.089  -8.192  -0.448  0.00  0.00     0.000 A 
HETATM   11  C           1     -20.447  -8.598  -1.618  0.00  0.00     0.001 A 
HETATM   12  C           1     -20.763  -7.993  -2.834  0.00  0.00     0.007 A 
ENDBRANCH   6   7
ENDBRANCH   5   6
BRANCH   5  13
HETATM   13  N           1     -20.236  -4.699  -4.503  0.00  0.00    -0.066 N 
HETATM   14  H           1     -20.213  -4.666  -3.459  0.00  0.00     0.275 HD
HETATM   15  H           1     -20.848  -3.933  -4.862  0.00  0.00     0.275 HD
HETATM   16  H           1     -19.268  -4.576  -4.877  0.00  0.00     0.275 HD
ENDBRANCH   5  13
ENDBRANCH   1   5
BRANCH   2  17
HETATM   17  C           1     -21.573  -4.724  -8.465  0.00  0.00     0.186 C 
BRANCH  17  18
HETATM   18  C           1     -20.364  -4.202  -9.200  0.00  0.00     0.196 C 
HETATM   19  O           1     -20.391  -4.089 -10.446  0.00  0.00    -0.646 OA
HETATM   20  O           1     -19.335  -3.882  -8.566  0.00  0.00    -0.646 OA
ENDBRANCH  17  18
BRANCH  17  21
HETATM   21  C           1     -22.757  -3.799  -8.716  0.00  0.00     0.046 C 
BRANCH  21  22
HETATM   22  C           1     -23.896  -4.590  -9.345  0.00  0.00     0.116 C 
BRANCH  22  23
HETATM   23  C           1     -24.171  -4.061 -10.732  0.00  0.00     0.172 C 
HETATM   24  O           1     -23.549  -4.523 -11.712  0.00  0.00    -0.648 OA
HETATM   25  O           1     -25.023  -3.162 -10.899  0.00  0.00    -0.648 OA
ENDBRANCH  22  23
ENDBRANCH  21  22
ENDBRANCH  17  21
ENDBRANCH   2  17
TORSDOF 9
ENDMDL
MODEL 4
REMARK VINA RESULT:      -6.3      2.578      7.656
REMARK  9 active torsions:
REMARK  status: ('A' for Active; 'I' for Inactive)
REMARK    1  A    between atoms: C_1  and  C_9 
REMARK    2  A    between atoms: C_1  and  C_18 
REMARK    3  A    between atoms: C_1  and  N_10 
REMARK    4  A    between atoms: C_3  and  C_8 
REMARK    5  A    between atoms: C_6  and  C_7 
REMARK    6  A    between atoms: C_6  and  C_8 
REMARK    7  A    between atoms: C_7  and  C_21 
REMARK    8  A    between atoms: C_8  and  N_12 
REMARK       I    between atoms: C_9  and  N_12 
REMARK    9  A    between atoms: C_18  and  C_25 
ROOT
HETATM    1  C           1     -20.971  -7.105  -5.682  0.00  0.00     0.249 C 
HETATM    2  N           1     -21.681  -6.095  -6.274  0.00  0.00    -0.345 N 
HETATM    3  O           1     -19.951  -7.505  -6.191  0.00  0.00    -0.271 OA
HETATM    4  H           1     -22.536  -5.760  -5.849  0.00  0.00     0.163 HD
ENDROOT
BRANCH   1   5
HETATM    5  C           1     -21.463  -7.719  -4.395  0.00  0.00     0.278 C 
BRANCH   5   6
HETATM    6  C           1     -20.436  -7.487  -3.295  0.00  0.00     0.081 C 
BRANCH   6   7
HETATM    7  C           1     -21.063  -7.754  -1.962  0.00  0.00    -0.056 A 
HETATM    8  C           1     -22.089  -6.931  -1.497  0.00  0.00     0.007 A 
HETATM    9  C           1     -22.674  -7.180  -0.255  0.00  0.00     0.001 A 
HETATM   10  C           1     -22.233  -8.252   0.521  0.00  0.00     0.000 A 
HETATM   11  C           1     -21.208  -9.075   0.055  0.00  0.00     0.001 A 
HETATM   12  C           1     -20.623  -8.826  -1.186  0.00  0.00     0.007 A 
ENDBRANCH   6   7
ENDBRANCH   5   6
BRANCH   5  13
HETATM   13  N           1     -21.662  -9.193  -4.589  0.00  0.00    -0.066 N 
HETATM   14  H           1     -21.445  -9.694  -3.698  0.00  0.00     0.275 HD
HETATM   15  H           1     -21.026  -9.535  -5.344  0.00  0.00     0.275 HD
HETATM   16  H           1     -22.655  -9.378  -4.859  0.00  0.00     0.275 HD
ENDBRANCH   5  13
ENDBRANCH   1   5
BRANCH   2  17
HETATM   17  C           1     -21.208  -5.505  -7.511  0.00  0.00     0.186 C 
BRANCH  17  18
HETATM   18  C           1     -20.364  -4.293  -7.200  0.00  0.00     0.196 C 
HETATM   19  O           1     -20.905  -3.246  -6.780  0.00  0.00    -0.646 OA
HETATM   20  O           1     -19.125  -4.336  -7.359  0.00  0.00    -0.646 OA
ENDBRANCH  17  18
BRANCH  17  21
HETATM   21  C           1     -22.399  -5.087  -8.363  0.00  0.00     0.046 C 
BRANCH  21  22
HETATM   22  C           1     -21.905  -4.529  -9.690  0.00  0.00     0.116 C 
BRANCH  22  23
HETATM   23  C           1     -23.084  -4.253 -10.591  0.00  0.00     0.172 C 
HETATM   24  O           1     -23.339  -3.082 -10.948  0.00  0.00    -0.648 OA
HETATM   25  O           1     -23.806  -5.196 -10.982  0.00  0.00    -0.648 OA
ENDBRANCH  22  23
ENDBRANCH  21  22
ENDBRANCH  17  21
ENDBRANCH   2  17
TORSDOF 9
ENDMDL
MODEL 5
REMARK VINA RESULT:      -6.1      2.233      3.404
REMARK  9 active torsions:
REMARK  status: ('A' for Active; 'I' for Inactive)
REMARK    1  A    between atoms: C_1  and  C_9 
REMARK    2  A    between atoms: C_1  and  C_18 
REMARK    3  A    between atoms: C_1  and  N_10 
REMARK    4  A    between atoms: C_3  and  C_8 
REMARK    5  A    between atoms: C_6  and  C_7 
REMARK    6  A    between atoms: C_6  and  C_8 
REMARK    7  A    between atoms: C_7  and  C_21 
REMARK    8  A    between atoms: C_8  and  N_12 
REMARK       I    between atoms: C_9  and  N_12 
REMARK    9  A    between atoms: C_18  and  C_25 
ROOT
HETATM    1  C           1     -20.928  -7.711  -3.338  0.00  0.00     0.249 C 
HETATM    2  N           1     -20.848  -9.047  -3.052  0.00  0.00    -0.345 N 
HETATM    3  O           1     -21.166  -6.917  -2.459  0.00  0.00    -0.271 OA
HETATM    4  H           1     -20.650  -9.712  -3.788  0.00  0.00     0.163 HD
ENDROOT
BRANCH   1   5
HETATM    5  C           1     -20.722  -7.229  -4.753  0.00  0.00     0.278 C 
BRANCH   5   6
HETATM    6  C           1     -21.531  -5.959  -4.982  0.00  0.00     0.081 C 
BRANCH   6   7
HETATM    7  C           1     -21.042  -5.271  -6.218  0.00  0.00    -0.056 A 
HETATM    8  C           1     -21.956  -4.793  -7.157  0.00  0.00     0.007 A 
HETATM    9  C           1     -21.501  -4.151  -8.309  0.00  0.00     0.001 A 
HETATM   10  C           1     -20.132  -3.987  -8.521  0.00  0.00     0.000 A 
HETATM   11  C           1     -19.219  -4.465  -7.581  0.00  0.00     0.001 A 
HETATM   12  C           1     -19.674  -5.106  -6.430  0.00  0.00     0.007 A 
ENDBRANCH   6   7
ENDBRANCH   5   6
BRANCH   5  13
HETATM   13  N           1     -21.175  -8.289  -5.713  0.00  0.00    -0.066 N 
HETATM   14  H           1     -20.522  -8.323  -6.528  0.00  0.00     0.275 HD
HETATM   15  H           1     -22.139  -8.067  -6.049  0.00  0.00     0.275 HD
HETATM   16  H           1     -21.179  -9.216  -5.231  0.00  0.00     0.275 HD
ENDBRANCH   5  13
ENDBRANCH   1   5
BRANCH   2  17
HETATM   17  C           1     -21.046  -9.510  -1.692  0.00  0.00     0.186 C 
BRANCH  17  18
HETATM   18  C           1     -20.155 -10.699  -1.431  0.00  0.00     0.196 C 
HETATM   19  O           1     -19.738 -11.388  -2.387  0.00  0.00    -0.646 OA
HETATM   20  O           1     -19.833 -10.993  -0.260  0.00  0.00    -0.646 OA
ENDBRANCH  17  18
BRANCH  17  21
HETATM   21  C           1     -22.502  -9.916  -1.501  0.00  0.00     0.046 C 
BRANCH  21  22
HETATM   22  C           1     -22.886  -9.758  -0.036  0.00  0.00     0.116 C 
BRANCH  22  23
HETATM   23  C           1     -22.646  -8.333   0.397  0.00  0.00     0.172 C 
HETATM   24  O           1     -23.344  -7.410  -0.075  0.00  0.00    -0.648 OA
HETATM   25  O           1     -21.749  -8.075   1.230  0.00  0.00    -0.648 OA
ENDBRANCH  22  23
ENDBRANCH  21  22
ENDBRANCH  17  21
ENDBRANCH   2  17
TORSDOF 9
ENDMDL
MODEL 6
REMARK VINA RESULT:      -6.1      2.368      4.190
REMARK  9 active torsions:
REMARK  status: ('A' for Active; 'I' for Inactive)
REMARK    1  A    between atoms: C_1  and  C_9 
REMARK    2  A    between atoms: C_1  and  C_18 
REMARK    3  A    between atoms: C_1  and  N_10 
REMARK    4  A    between atoms: C_3  and  C_8 
REMARK    5  A    between atoms: C_6  and  C_7 
REMARK    6  A    between atoms: C_6  and  C_8 
REMARK    7  A    between atoms: C_7  and  C_21 
REMARK    8  A    between atoms: C_8  and  N_12 
REMARK       I    between atoms: C_9  and  N_12 
REMARK    9  A    between atoms: C_18  and  C_25 
ROOT
HETATM    1  C           1     -21.068  -7.744  -4.918  0.00  0.00     0.249 C 
HETATM    2  N           1     -20.369  -8.189  -3.829  0.00  0.00    -0.345 N 
HETATM    3  O           1     -21.184  -8.450  -5.892  0.00  0.00    -0.271 OA
HETATM    4  H           1     -20.271  -7.598  -3.013  0.00  0.00     0.163 HD
ENDROOT
BRANCH   1   5
HETATM    5  C           1     -21.694  -6.371  -4.903  0.00  0.00     0.278 C 
BRANCH   5   6
HETATM    6  C           1     -20.651  -5.333  -5.298  0.00  0.00     0.081 C 
BRANCH   6   7
HETATM    7  C           1     -20.867  -4.926  -6.723  0.00  0.00    -0.056 A 
HETATM    8  C           1     -19.793  -4.910  -7.613  0.00  0.00     0.007 A 
HETATM    9  C           1     -19.993  -4.532  -8.940  0.00  0.00     0.001 A 
HETATM   10  C           1     -21.267  -4.169  -9.378  0.00  0.00     0.000 A 
HETATM   11  C           1     -22.340  -4.186  -8.487  0.00  0.00     0.001 A 
HETATM   12  C           1     -22.140  -4.565  -7.160  0.00  0.00     0.007 A 
ENDBRANCH   6   7
ENDBRANCH   5   6
BRANCH   5  13
HETATM   13  N           1     -22.202  -6.068  -3.525  0.00  0.00    -0.066 N 
HETATM   14  H           1     -21.489  -5.508  -3.006  0.00  0.00     0.275 HD
HETATM   15  H           1     -22.380  -6.962  -3.014  0.00  0.00     0.275 HD
HETATM   16  H           1     -23.091  -5.523  -3.594  0.00  0.00     0.275 HD
ENDBRANCH   5  13
ENDBRANCH   1   5
BRANCH   2  17
HETATM   17  C           1     -19.768  -9.509  -3.843  0.00  0.00     0.186 C 
BRANCH  17  18
HETATM   18  C           1     -20.360 -10.343  -2.734  0.00  0.00     0.196 C 
HETATM   19  O           1     -19.963 -10.191  -1.558  0.00  0.00    -0.646 OA
HETATM   20  O           1     -21.247 -11.185  -2.990  0.00  0.00    -0.646 OA
ENDBRANCH  17  18
BRANCH  17  21
HETATM   21  C           1     -18.264  -9.384  -3.636  0.00  0.00     0.046 C 
BRANCH  21  22
HETATM   22  C           1     -17.548 -10.454  -4.450  0.00  0.00     0.116 C 
BRANCH  22  23
HETATM   23  C           1     -17.096  -9.869  -5.765  0.00  0.00     0.172 C 
HETATM   24  O           1     -15.906  -9.992  -6.129  0.00  0.00    -0.648 OA
HETATM   25  O           1     -17.911  -9.261  -6.492  0.00  0.00    -0.648 OA
ENDBRANCH  22  23
ENDBRANCH  21  22
ENDBRANCH  17  21
ENDBRANCH   2  17
TORSDOF 9
ENDMDL
MODEL 7
REMARK VINA RESULT:      -5.9      3.157      4.730
REMARK  9 active torsions:
REMARK  status: ('A' for Active; 'I' for Inactive)
REMARK    1  A    between atoms: C_1  and  C_9 
REMARK    2  A    between atoms: C_1  and  C_18 
REMARK    3  A    between atoms: C_1  and  N_10 
REMARK    4  A    between atoms: C_3  and  C_8 
REMARK    5  A    between atoms: C_6  and  C_7 
REMARK    6  A    between atoms: C_6  and  C_8 
REMARK    7  A    between atoms: C_7  and  C_21 
REMARK    8  A    between atoms: C_8  and  N_12 
REMARK       I    between atoms: C_9  and  N_12 
REMARK    9  A    between atoms: C_18  and  C_25 
ROOT
HETATM    1  C           1     -21.340  -7.894  -2.838  0.00  0.00     0.249 C 
HETATM    2  N           1     -21.642  -9.125  -2.323  0.00  0.00    -0.345 N 
HETATM    3  O           1     -21.209  -6.946  -2.100  0.00  0.00    -0.271 OA
HETATM    4  H           1     -21.754  -9.920  -2.941  0.00  0.00     0.163 HD
ENDROOT
BRANCH   1   5
HETATM    5  C           1     -21.174  -7.719  -4.327  0.00  0.00     0.278 C 
BRANCH   5   6
HETATM    6  C           1     -22.235  -6.759  -4.849  0.00  0.00     0.081 C 
BRANCH   6   7
HETATM    7  C           1     -21.605  -5.784  -5.795  0.00  0.00    -0.056 A 
HETATM    8  C           1     -20.217  -5.654  -5.838  0.00  0.00     0.007 A 
HETATM    9  C           1     -19.629  -4.746  -6.719  0.00  0.00     0.001 A 
HETATM   10  C           1     -20.430  -3.969  -7.557  0.00  0.00     0.000 A 
HETATM   11  C           1     -21.818  -4.101  -7.513  0.00  0.00     0.001 A 
HETATM   12  C           1     -22.405  -5.008  -6.632  0.00  0.00     0.007 A 
ENDBRANCH   6   7
ENDBRANCH   5   6
BRANCH   5  13
HETATM   13  N           1     -21.325  -9.047  -5.006  0.00  0.00    -0.066 N 
HETATM   14  H           1     -20.786  -9.044  -5.902  0.00  0.00     0.275 HD
HETATM   15  H           1     -22.335  -9.223  -5.209  0.00  0.00     0.275 HD
HETATM   16  H           1     -20.958  -9.801  -4.382  0.00  0.00     0.275 HD
ENDBRANCH   5  13
ENDBRANCH   1   5
BRANCH   2  17
HETATM   17  C           1     -21.803  -9.294  -0.891  0.00  0.00     0.186 C 
BRANCH  17  18
HETATM   18  C           1     -20.698 -10.175  -0.362  0.00  0.00     0.196 C 
HETATM   19  O           1     -19.815 -10.602  -1.137  0.00  0.00    -0.646 OA
HETATM   20  O           1     -20.666 -10.476   0.851  0.00  0.00    -0.646 OA
ENDBRANCH  17  18
BRANCH  17  21
HETATM   21  C           1     -23.150  -9.943  -0.605  0.00  0.00     0.046 C 
BRANCH  21  22
HETATM   22  C           1     -23.306 -11.191  -1.462  0.00  0.00     0.116 C 
BRANCH  22  23
HETATM   23  C           1     -23.743 -12.347  -0.595  0.00  0.00     0.172 C 
HETATM   24  O           1     -23.502 -12.335   0.631  0.00  0.00    -0.648 OA
HETATM   25  O           1     -24.348 -13.316  -1.104  0.00  0.00    -0.648 OA
ENDBRANCH  22  23
ENDBRANCH  21  22
ENDBRANCH  17  21
ENDBRANCH   2  17
TORSDOF 9
ENDMDL
MODEL 8
REMARK VINA RESULT:      -5.8     20.399     22.163
REMARK  9 active torsions:
REMARK  status: ('A' for Active; 'I' for Inactive)
REMARK    1  A    between atoms: C_1  and  C_9 
REMARK    2  A    between atoms: C_1  and  C_18 
REMARK    3  A    between atoms: C_1  and  N_10 
REMARK    4  A    between atoms: C_3  and  C_8 
REMARK    5  A    between atoms: C_6  and  C_7 
REMARK    6  A    between atoms: C_6  and  C_8 
REMARK    7  A    between atoms: C_7  and  C_21 
REMARK    8  A    between atoms: C_8  and  N_12 
REMARK       I    between atoms: C_9  and  N_12 
REMARK    9  A    between atoms: C_18  and  C_25 
ROOT
HETATM    1  C           1     -10.649   6.379 -20.791  0.00  0.00     0.249 C 
HETATM    2  N           1     -11.084   7.570 -20.276  0.00  0.00    -0.345 N 
HETATM    3  O           1     -10.415   6.281 -21.972  0.00  0.00    -0.271 OA
HETATM    4  H           1     -11.281   7.653 -19.286  0.00  0.00     0.163 HD
ENDROOT
BRANCH   1   5
HETATM    5  C           1     -10.464   5.188 -19.884  0.00  0.00     0.278 C 
BRANCH   5   6
HETATM    6  C           1     -11.808   4.788 -19.289  0.00  0.00     0.081 C 
BRANCH   6   7
HETATM    7  C           1     -12.771   4.480 -20.393  0.00  0.00    -0.056 A 
HETATM    8  C           1     -13.904   5.273 -20.570  0.00  0.00     0.007 A 
HETATM    9  C           1     -14.803   4.987 -21.598  0.00  0.00     0.001 A 
HETATM   10  C           1     -14.566   3.907 -22.450  0.00  0.00     0.000 A 
HETATM   11  C           1     -13.432   3.115 -22.272  0.00  0.00     0.001 A 
HETATM   12  C           1     -12.535   3.402 -21.244  0.00  0.00     0.007 A 
ENDBRANCH   6   7
ENDBRANCH   5   6
BRANCH   5  13
HETATM   13  N           1      -9.514   5.544 -18.778  0.00  0.00    -0.066 N 
HETATM   14  H           1      -9.726   4.962 -17.936  0.00  0.00     0.275 HD
HETATM   15  H           1      -9.621   6.555 -18.539  0.00  0.00     0.275 HD
HETATM   16  H           1      -8.534   5.361 -19.090  0.00  0.00     0.275 HD
ENDBRANCH   5  13
ENDBRANCH   1   5
BRANCH   2  17
HETATM   17  C           1     -11.262   8.716 -21.148  0.00  0.00     0.186 C 
BRANCH  17  18
HETATM   18  C           1      -9.949   9.444 -21.296  0.00  0.00     0.196 C 
HETATM   19  O           1      -9.262   9.704 -20.284  0.00  0.00    -0.646 OA
HETATM   20  O           1      -9.547   9.785 -22.429  0.00  0.00    -0.646 OA
ENDBRANCH  17  18
BRANCH  17  21
HETATM   21  C           1     -12.297   9.656 -20.545  0.00  0.00     0.046 C 
BRANCH  21  22
HETATM   22  C           1     -12.482   9.330 -19.069  0.00  0.00     0.116 C 
BRANCH  22  23
HETATM   23  C           1     -13.694  10.058 -18.540  0.00  0.00     0.172 C 
HETATM   24  O           1     -13.996   9.973 -17.330  0.00  0.00    -0.648 OA
HETATM   25  O           1     -14.395  10.748 -19.312  0.00  0.00    -0.648 OA
ENDBRANCH  22  23
ENDBRANCH  21  22
ENDBRANCH  17  21
ENDBRANCH   2  17
TORSDOF 9
ENDMDL
MODEL 9
REMARK VINA RESULT:      -5.8      4.852      8.003
REMARK  9 active torsions:
REMARK  status: ('A' for Active; 'I' for Inactive)
REMARK    1  A    between atoms: C_1  and  C_9 
REMARK    2  A    between atoms: C_1  and  C_18 
REMARK    3  A    between atoms: C_1  and  N_10 
REMARK    4  A    between atoms: C_3  and  C_8 
REMARK    5  A    between atoms: C_6  and  C_7 
REMARK    6  A    between atoms: C_6  and  C_8 
REMARK    7  A    between atoms: C_7  and  C_21 
REMARK    8  A    between atoms: C_8  and  N_12 
REMARK       I    between atoms: C_9  and  N_12 
REMARK    9  A    between atoms: C_18  and  C_25 
ROOT
HETATM    1  C           1     -20.699 -11.604  -2.309  0.00  0.00     0.249 C 
HETATM    2  N           1     -20.101 -10.444  -2.723  0.00  0.00    -0.345 N 
HETATM    3  O           1     -21.567 -12.109  -2.979  0.00  0.00    -0.271 OA
HETATM    4  H           1     -19.374 -10.020  -2.162  0.00  0.00     0.163 HD
ENDROOT
BRANCH   1   5
HETATM    5  C           1     -20.273 -12.250  -1.013  0.00  0.00     0.278 C 
BRANCH   5   6
HETATM    6  C           1     -21.414 -12.173  -0.007  0.00  0.00     0.081 C 
BRANCH   6   7
HETATM    7  C           1     -21.722 -10.739   0.290  0.00  0.00    -0.056 A 
HETATM    8  C           1     -20.827  -9.975   1.039  0.00  0.00     0.007 A 
HETATM    9  C           1     -21.113  -8.638   1.316  0.00  0.00     0.001 A 
HETATM   10  C           1     -22.295  -8.065   0.844  0.00  0.00     0.000 A 
HETATM   11  C           1     -23.189  -8.830   0.095  0.00  0.00     0.001 A 
HETATM   12  C           1     -22.902 -10.166  -0.182  0.00  0.00     0.007 A 
ENDBRANCH   6   7
ENDBRANCH   5   6
BRANCH   5  13
HETATM   13  N           1     -19.076 -11.531  -0.466  0.00  0.00    -0.066 N 
HETATM   14  H           1     -18.349 -12.228  -0.186  0.00  0.00     0.275 HD
HETATM   15  H           1     -19.358 -10.969   0.368  0.00  0.00     0.275 HD
HETATM   16  H           1     -18.686 -10.896  -1.198  0.00  0.00     0.275 HD
ENDBRANCH   5  13
ENDBRANCH   1   5
BRANCH   2  17
HETATM   17  C           1     -20.511  -9.823  -3.968  0.00  0.00     0.186 C 
BRANCH  17  18
HETATM   18  C           1     -19.324  -9.141  -4.604  0.00  0.00     0.196 C 
HETATM   19  O           1     -19.474  -8.471  -5.649  0.00  0.00    -0.646 OA
HETATM   20  O           1     -18.191  -9.246  -4.085  0.00  0.00    -0.646 OA
ENDBRANCH  17  18
BRANCH  17  21
HETATM   21  C           1     -21.596  -8.793  -3.689  0.00  0.00     0.046 C 
BRANCH  21  22
HETATM   22  C           1     -21.089  -7.783  -2.667  0.00  0.00     0.116 C 
BRANCH  22  23
HETATM   23  C           1     -21.750  -6.448  -2.908  0.00  0.00     0.172 C 
HETATM   24  O           1     -21.523  -5.818  -3.963  0.00  0.00    -0.648 OA
HETATM   25  O           1     -22.526  -5.971  -2.051  0.00  0.00    -0.648 OA
ENDBRANCH  22  23
ENDBRANCH  21  22
ENDBRANCH  17  21
ENDBRANCH   2  17
TORSDOF 9
ENDMDL
