MODEL 1
REMARK VINA RESULT:      -6.3      0.000      0.000
REMARK  8 active torsions:
REMARK  status: ('A' for Active; 'I' for Inactive)
REMARK    1  A    between atoms: C_3  and  C_9 
REMARK    2  A    between atoms: C_3  and  C_21 
REMARK    3  A    between atoms: C_3  and  N_25 
REMARK    4  A    between atoms: C_7  and  C_8 
REMARK    5  A    between atoms: C_8  and  C_23 
REMARK    6  A    between atoms: C_10  and  C_21 
REMARK    7  A    between atoms: N_11  and  C_23 
REMARK    8  A    between atoms: C_23  and  C_24 
REMARK       I    between atoms: C_24  and  N_25 
ROOT
HETATM    1  H           1     -23.024  -4.516  -5.918  0.00  0.00     0.163 HD
HETATM    2  O           1     -20.436  -4.997  -4.878  0.00  0.00    -0.271 OA
HETATM    3  C           1     -21.372  -5.614  -5.328  0.00  0.00     0.249 C 
HETATM    4  N           1     -22.209  -5.024  -6.237  0.00  0.00    -0.344 N 
ENDROOT
BRANCH   4   5
HETATM    5  C           1     -21.926  -5.126  -7.655  0.00  0.00     0.191 C 
BRANCH   5   6
HETATM    6  C           1     -20.437  -5.024  -7.879  0.00  0.00     0.197 C 
HETATM    7  O           1     -19.892  -3.903  -7.960  0.00  0.00    -0.646 OA
HETATM    8  O           1     -19.748  -6.063  -7.982  0.00  0.00    -0.646 OA
ENDBRANCH   5   6
BRANCH   5   9
HETATM    9  C           1     -22.629  -3.995  -8.395  0.00  0.00     0.094 C 
BRANCH   9  10
HETATM   10  C           1     -22.602  -4.270  -9.866  0.00  0.00     0.028 A 
HETATM   11  C           1     -23.609  -4.894 -10.564  0.00  0.00     0.114 A 
HETATM   12  N           1     -23.170  -4.935 -11.858  0.00  0.00    -0.360 N 
HETATM   13  C           1     -21.939  -4.346 -11.893  0.00  0.00     0.180 A 
HETATM   14  H           1     -23.686  -5.345 -12.676  0.00  0.00     0.166 HD
HETATM   15  N           1     -21.569  -3.934 -10.703  0.00  0.00    -0.354 N 
ATOM     16  HN          1     -20.698  -3.466 -10.453  1.00  0.00     0.166 HD
ENDBRANCH   9  10
ENDBRANCH   5   9
ENDBRANCH   4   5
BRANCH   3  17
HETATM   17  C           1     -21.618  -7.036  -4.888  0.00  0.00     0.275 C 
BRANCH  17  18
HETATM   18  C           1     -20.834  -7.318  -3.613  0.00  0.00     0.046 C 
BRANCH  18  19
HETATM   19  C           1     -21.803  -7.548  -2.461  0.00  0.00    -0.020 C 
HETATM   20  C           1     -21.146  -8.435  -1.413  0.00  0.00     0.009 C 
HETATM   21  C           1     -22.172  -6.210  -1.833  0.00  0.00     0.009 C 
ENDBRANCH  18  19
ENDBRANCH  17  18
BRANCH  17  22
HETATM   22  N           1     -21.169  -7.977  -5.967  0.00  0.00    -0.066 N 
HETATM   23  H           1     -21.563  -7.667  -6.885  0.00  0.00     0.275 HD
HETATM   24  H           1     -21.507  -8.941  -5.752  0.00  0.00     0.275 HD
HETATM   25  H           1     -20.125  -7.977  -6.018  0.00  0.00     0.275 HD
ENDBRANCH  17  22
ENDBRANCH   3  17
TORSDOF 8
ENDMDL
MODEL 2
REMARK VINA RESULT:      -6.2      1.761      2.224
REMARK  8 active torsions:
REMARK  status: ('A' for Active; 'I' for Inactive)
REMARK    1  A    between atoms: C_3  and  C_9 
REMARK    2  A    between atoms: C_3  and  C_21 
REMARK    3  A    between atoms: C_3  and  N_25 
REMARK    4  A    between atoms: C_7  and  C_8 
REMARK    5  A    between atoms: C_8  and  C_23 
REMARK    6  A    between atoms: C_10  and  C_21 
REMARK    7  A    between atoms: N_11  and  C_23 
REMARK    8  A    between atoms: C_23  and  C_24 
REMARK       I    between atoms: C_24  and  N_25 
ROOT
HETATM    1  H           1     -21.842  -7.808  -6.522  0.00  0.00     0.163 HD
HETATM    2  O           1     -23.476  -6.048  -5.024  0.00  0.00    -0.271 OA
HETATM    3  C           1     -22.316  -6.375  -5.106  0.00  0.00     0.249 C 
HETATM    4  N           1     -21.812  -6.822  -6.298  0.00  0.00    -0.344 N 
ENDROOT
BRANCH   4   5
HETATM    5  C           1     -21.237  -5.881  -7.239  0.00  0.00     0.191 C 
BRANCH   5   6
HETATM    6  C           1     -19.744  -5.809  -7.028  0.00  0.00     0.197 C 
HETATM    7  O           1     -19.163  -4.703  -7.044  0.00  0.00    -0.646 OA
HETATM    8  O           1     -19.089  -6.857  -6.835  0.00  0.00    -0.646 OA
ENDBRANCH   5   6
BRANCH   5   9
HETATM    9  C           1     -21.848  -4.503  -7.017  0.00  0.00     0.094 C 
BRANCH   9  10
HETATM   10  C           1     -22.618  -4.098  -8.235  0.00  0.00     0.028 A 
HETATM   11  C           1     -22.060  -3.854  -9.468  0.00  0.00     0.114 A 
HETATM   12  N           1     -23.113  -3.517 -10.272  0.00  0.00    -0.360 N 
HETATM   13  C           1     -24.245  -3.568  -9.510  0.00  0.00     0.180 A 
HETATM   14  H           1     -23.060  -3.264 -11.290  0.00  0.00     0.166 HD
HETATM   15  N           1     -23.977  -3.916  -8.273  0.00  0.00    -0.354 N 
ATOM     16  HN          1     -24.638  -4.028  -7.505  1.00  0.00     0.166 HD
ENDBRANCH   9  10
ENDBRANCH   5   9
ENDBRANCH   4   5
BRANCH   3  17
HETATM   17  C           1     -21.423  -6.291  -3.893  0.00  0.00     0.275 C 
BRANCH  17  18
HETATM   18  C           1     -20.686  -7.612  -3.710  0.00  0.00     0.046 C 
BRANCH  18  19
HETATM   19  C           1     -21.377  -8.433  -2.630  0.00  0.00    -0.020 C 
HETATM   20  C           1     -21.806  -9.775  -3.209  0.00  0.00     0.009 C 
HETATM   21  C           1     -20.413  -8.665  -1.474  0.00  0.00     0.009 C 
ENDBRANCH  18  19
ENDBRANCH  17  18
BRANCH  17  22
HETATM   22  N           1     -22.256  -6.012  -2.678  0.00  0.00    -0.066 N 
HETATM   23  H           1     -21.940  -5.119  -2.235  0.00  0.00     0.275 HD
HETATM   24  H           1     -22.149  -6.795  -1.994  0.00  0.00     0.275 HD
HETATM   25  H           1     -23.260  -5.927  -2.955  0.00  0.00     0.275 HD
ENDBRANCH  17  22
ENDBRANCH   3  17
TORSDOF 8
ENDMDL
MODEL 3
REMARK VINA RESULT:      -6.2      3.119      7.043
REMARK  8 active torsions:
REMARK  status: ('A' for Active; 'I' for Inactive)
REMARK    1  A    between atoms: C_3  and  C_9 
REMARK    2  A    between atoms: C_3  and  C_21 
REMARK    3  A    between atoms: C_3  and  N_25 
REMARK    4  A    between atoms: C_7  and  C_8 
REMARK    5  A    between atoms: C_8  and  C_23 
REMARK    6  A    between atoms: C_10  and  C_21 
REMARK    7  A    between atoms: N_11  and  C_23 
REMARK    8  A    between atoms: C_23  and  C_24 
REMARK       I    between atoms: C_24  and  N_25 
ROOT
HETATM    1  H           1     -21.176  -5.696  -2.357  0.00  0.00     0.163 HD
HETATM    2  O           1     -22.758  -6.133  -4.663  0.00  0.00    -0.271 OA
HETATM    3  C           1     -21.626  -6.312  -4.280  0.00  0.00     0.249 C 
HETATM    4  N           1     -21.374  -6.494  -2.947  0.00  0.00    -0.344 N 
ENDROOT
BRANCH   4   5
HETATM    5  C           1     -21.390  -7.829  -2.382  0.00  0.00     0.191 C 
BRANCH   5   6
HETATM    6  C           1     -22.208  -7.827  -1.113  0.00  0.00     0.197 C 
HETATM    7  O           1     -22.369  -8.887  -0.471  0.00  0.00    -0.646 OA
HETATM    8  O           1     -22.724  -6.763  -0.704  0.00  0.00    -0.646 OA
ENDBRANCH   5   6
BRANCH   5   9
HETATM    9  C           1     -19.965  -8.264  -2.066  0.00  0.00     0.094 C 
BRANCH   9  10
HETATM   10  C           1     -19.456  -9.141  -3.167  0.00  0.00     0.028 A 
HETATM   11  C           1     -18.127  -9.393  -3.414  0.00  0.00     0.114 A 
HETATM   12  N           1     -18.121 -10.231  -4.495  0.00  0.00    -0.360 N 
HETATM   13  C           1     -19.422 -10.448  -4.853  0.00  0.00     0.180 A 
HETATM   14  H           1     -17.272 -10.634  -4.964  0.00  0.00     0.166 HD
HETATM   15  N           1     -20.251  -9.801  -4.068  0.00  0.00    -0.354 N 
ATOM     16  HN          1     -21.269  -9.792  -4.118  1.00  0.00     0.166 HD
ENDBRANCH   9  10
ENDBRANCH   5   9
ENDBRANCH   4   5
BRANCH   3  17
HETATM   17  C           1     -20.490  -6.336  -5.273  0.00  0.00     0.275 C 
BRANCH  17  18
HETATM   18  C           1     -20.173  -4.915  -5.719  0.00  0.00     0.046 C 
BRANCH  18  19
HETATM   19  C           1     -20.529  -4.752  -7.190  0.00  0.00    -0.020 C 
HETATM   20  C           1     -21.634  -3.714  -7.334  0.00  0.00     0.009 C 
HETATM   21  C           1     -19.299  -4.293  -7.962  0.00  0.00     0.009 C 
ENDBRANCH  18  19
ENDBRANCH  17  18
BRANCH  17  22
HETATM   22  N           1     -20.887  -7.156  -6.466  0.00  0.00    -0.066 N 
HETATM   23  H           1     -21.053  -6.524  -7.283  0.00  0.00     0.275 HD
HETATM   24  H           1     -21.764  -7.682  -6.251  0.00  0.00     0.275 HD
HETATM   25  H           1     -20.123  -7.830  -6.696  0.00  0.00     0.275 HD
ENDBRANCH  17  22
ENDBRANCH   3  17
TORSDOF 8
ENDMDL
MODEL 4
REMARK VINA RESULT:      -6.0      2.057      3.199
REMARK  8 active torsions:
REMARK  status: ('A' for Active; 'I' for Inactive)
REMARK    1  A    between atoms: C_3  and  C_9 
REMARK    2  A    between atoms: C_3  and  C_21 
REMARK    3  A    between atoms: C_3  and  N_25 
REMARK    4  A    between atoms: C_7  and  C_8 
REMARK    5  A    between atoms: C_8  and  C_23 
REMARK    6  A    between atoms: C_10  and  C_21 
REMARK    7  A    between atoms: N_11  and  C_23 
REMARK    8  A    between atoms: C_23  and  C_24 
REMARK       I    between atoms: C_24  and  N_25 
ROOT
HETATM    1  H           1     -23.474  -6.117  -4.322  0.00  0.00     0.163 HD
HETATM    2  O           1     -21.236  -5.405  -2.742  0.00  0.00    -0.271 OA
HETATM    3  C           1     -21.757  -6.394  -3.202  0.00  0.00     0.249 C 
HETATM    4  N           1     -22.482  -6.312  -4.360  0.00  0.00    -0.344 N 
ENDROOT
BRANCH   4   5
HETATM    5  C           1     -21.828  -6.503  -5.640  0.00  0.00     0.191 C 
BRANCH   5   6
HETATM    6  C           1     -20.944  -7.725  -5.574  0.00  0.00     0.197 C 
HETATM    7  O           1     -21.455  -8.865  -5.540  0.00  0.00    -0.646 OA
HETATM    8  O           1     -19.700  -7.596  -5.555  0.00  0.00    -0.646 OA
ENDBRANCH   5   6
BRANCH   5   9
HETATM    9  C           1     -20.980  -5.280  -5.964  0.00  0.00     0.094 C 
BRANCH   9  10
HETATM   10  C           1     -21.394  -4.723  -7.290  0.00  0.00     0.028 A 
HETATM   11  C           1     -20.664  -4.839  -8.449  0.00  0.00     0.114 A 
HETATM   12  N           1     -21.405  -4.194  -9.400  0.00  0.00    -0.360 N 
HETATM   13  C           1     -22.532  -3.721  -8.791  0.00  0.00     0.180 A 
HETATM   14  H           1     -21.153  -4.082 -10.413  0.00  0.00     0.166 HD
HETATM   15  N           1     -22.553  -4.026  -7.515  0.00  0.00    -0.354 N 
ATOM     16  HN          1     -23.277  -3.793  -6.835  1.00  0.00     0.166 HD
ENDBRANCH   9  10
ENDBRANCH   5   9
ENDBRANCH   4   5
BRANCH   3  17
HETATM   17  C           1     -21.605  -7.720  -2.498  0.00  0.00     0.275 C 
BRANCH  17  18
HETATM   18  C           1     -22.053  -7.581  -1.049  0.00  0.00     0.046 C 
BRANCH  18  19
HETATM   19  C           1     -21.757  -8.873  -0.300  0.00  0.00    -0.020 C 
HETATM   20  C           1     -21.295  -8.547   1.114  0.00  0.00     0.009 C 
HETATM   21  C           1     -23.018  -9.724  -0.237  0.00  0.00     0.009 C 
ENDBRANCH  18  19
ENDBRANCH  17  18
BRANCH  17  22
HETATM   22  N           1     -20.167  -8.145  -2.538  0.00  0.00    -0.066 N 
HETATM   23  H           1     -19.759  -8.079  -1.577  0.00  0.00     0.275 HD
HETATM   24  H           1     -19.636  -7.519  -3.184  0.00  0.00     0.275 HD
HETATM   25  H           1     -20.104  -9.131  -2.876  0.00  0.00     0.275 HD
ENDBRANCH  17  22
ENDBRANCH   3  17
TORSDOF 8
ENDMDL
MODEL 5
REMARK VINA RESULT:      -6.0      2.222      6.782
REMARK  8 active torsions:
REMARK  status: ('A' for Active; 'I' for Inactive)
REMARK    1  A    between atoms: C_3  and  C_9 
REMARK    2  A    between atoms: C_3  and  C_21 
REMARK    3  A    between atoms: C_3  and  N_25 
REMARK    4  A    between atoms: C_7  and  C_8 
REMARK    5  A    between atoms: C_8  and  C_23 
REMARK    6  A    between atoms: C_10  and  C_21 
REMARK    7  A    between atoms: N_11  and  C_23 
REMARK    8  A    between atoms: C_23  and  C_24 
REMARK       I    between atoms: C_24  and  N_25 
ROOT
HETATM    1  H           1     -19.704  -6.821  -7.173  0.00  0.00     0.163 HD
HETATM    2  O           1     -20.585  -4.245  -6.398  0.00  0.00    -0.271 OA
HETATM    3  C           1     -20.956  -5.176  -7.072  0.00  0.00     0.249 C 
HETATM    4  N           1     -20.552  -6.448  -6.766  0.00  0.00    -0.344 N 
ENDROOT
BRANCH   4   5
HETATM    5  C           1     -21.340  -7.260  -5.859  0.00  0.00     0.191 C 
BRANCH   5   6
HETATM    6  C           1     -22.117  -6.363  -4.927  0.00  0.00     0.197 C 
HETATM    7  O           1     -23.273  -5.999  -5.229  0.00  0.00    -0.646 OA
HETATM    8  O           1     -21.602  -5.983  -3.852  0.00  0.00    -0.646 OA
ENDBRANCH   5   6
BRANCH   5   9
HETATM    9  C           1     -20.413  -8.156  -5.046  0.00  0.00     0.094 C 
BRANCH   9  10
HETATM   10  C           1     -20.973  -9.543  -5.003  0.00  0.00     0.028 A 
HETATM   11  C           1     -21.662 -10.076  -3.939  0.00  0.00     0.114 A 
HETATM   12  N           1     -21.981 -11.348  -4.326  0.00  0.00    -0.360 N 
HETATM   13  C           1     -21.482 -11.532  -5.584  0.00  0.00     0.180 A 
HETATM   14  H           1     -22.512 -12.054  -3.758  0.00  0.00     0.166 HD
HETATM   15  N           1     -20.867 -10.458  -6.019  0.00  0.00    -0.354 N 
ATOM     16  HN          1     -20.407 -10.331  -6.921  1.00  0.00     0.166 HD
ENDBRANCH   9  10
ENDBRANCH   5   9
ENDBRANCH   4   5
BRANCH   3  17
HETATM   17  C           1     -21.866  -4.936  -8.251  0.00  0.00     0.275 C 
BRANCH  17  18
HETATM   18  C           1     -21.048  -4.422  -9.429  0.00  0.00     0.046 C 
BRANCH  18  19
HETATM   19  C           1     -21.964  -3.694 -10.404  0.00  0.00    -0.020 C 
HETATM   20  C           1     -21.125  -2.867 -11.368  0.00  0.00     0.009 C 
HETATM   21  C           1     -22.781  -4.712 -11.189  0.00  0.00     0.009 C 
ENDBRANCH  18  19
ENDBRANCH  17  18
BRANCH  17  22
HETATM   22  N           1     -22.903  -3.918  -7.882  0.00  0.00    -0.066 N 
HETATM   23  H           1     -23.661  -4.378  -7.326  0.00  0.00     0.275 HD
HETATM   24  H           1     -23.312  -3.505  -8.750  0.00  0.00     0.275 HD
HETATM   25  H           1     -22.462  -3.162  -7.311  0.00  0.00     0.275 HD
ENDBRANCH  17  22
ENDBRANCH   3  17
TORSDOF 8
ENDMDL
MODEL 6
REMARK VINA RESULT:      -5.8      4.100      6.228
REMARK  8 active torsions:
REMARK  status: ('A' for Active; 'I' for Inactive)
REMARK    1  A    between atoms: C_3  and  C_9 
REMARK    2  A    between atoms: C_3  and  C_21 
REMARK    3  A    between atoms: C_3  and  N_25 
REMARK    4  A    between atoms: C_7  and  C_8 
REMARK    5  A    between atoms: C_8  and  C_23 
REMARK    6  A    between atoms: C_10  and  C_21 
REMARK    7  A    between atoms: N_11  and  C_23 
REMARK    8  A    between atoms: C_23  and  C_24 
REMARK       I    between atoms: C_24  and  N_25 
ROOT
HETATM    1  H           1     -22.547  -8.056  -4.097  0.00  0.00     0.163 HD
HETATM    2  O           1     -22.275  -5.882  -2.305  0.00  0.00    -0.271 OA
HETATM    3  C           1     -21.889  -7.020  -2.431  0.00  0.00     0.249 C 
HETATM    4  N           1     -21.765  -7.568  -3.680  0.00  0.00    -0.344 N 
ENDROOT
BRANCH   4   5
HETATM    5  C           1     -20.515  -7.447  -4.404  0.00  0.00     0.191 C 
BRANCH   5   6
HETATM    6  C           1     -20.686  -6.473  -5.543  0.00  0.00     0.197 C 
HETATM    7  O           1     -20.723  -5.245  -5.316  0.00  0.00    -0.646 OA
HETATM    8  O           1     -20.791  -6.895  -6.716  0.00  0.00    -0.646 OA
ENDBRANCH   5   6
BRANCH   5   9
HETATM    9  C           1     -20.116  -8.809  -4.956  0.00  0.00     0.094 C 
BRANCH   9  10
HETATM   10  C           1     -18.819  -9.236  -4.343  0.00  0.00     0.028 A 
HETATM   11  C           1     -17.759  -9.762  -5.043  0.00  0.00     0.114 A 
HETATM   12  N           1     -16.799 -10.006  -4.101  0.00  0.00    -0.360 N 
HETATM   13  C           1     -17.305  -9.626  -2.891  0.00  0.00     0.180 A 
HETATM   14  H           1     -15.846 -10.412  -4.276  0.00  0.00     0.166 HD
HETATM   15  N           1     -18.526  -9.157  -3.006  0.00  0.00    -0.354 N 
ATOM     16  HN          1     -19.127  -8.808  -2.260  1.00  0.00     0.166 HD
ENDBRANCH   9  10
ENDBRANCH   5   9
ENDBRANCH   4   5
BRANCH   3  17
HETATM   17  C           1     -21.542  -7.837  -1.211  0.00  0.00     0.275 C 
BRANCH  17  18
HETATM   18  C           1     -21.948  -9.287  -1.437  0.00  0.00     0.046 C 
BRANCH  18  19
HETATM   19  C           1     -22.449  -9.884  -0.129  0.00  0.00    -0.020 C 
HETATM   20  C           1     -23.722 -10.678  -0.387  0.00  0.00     0.009 C 
HETATM   21  C           1     -21.384 -10.808   0.448  0.00  0.00     0.009 C 
ENDBRANCH  18  19
ENDBRANCH  17  18
BRANCH  17  22
HETATM   22  N           1     -22.276  -7.293  -0.021  0.00  0.00    -0.066 N 
HETATM   23  H           1     -22.390  -8.048   0.693  0.00  0.00     0.275 HD
HETATM   24  H           1     -23.217  -6.951  -0.318  0.00  0.00     0.275 HD
HETATM   25  H           1     -21.732  -6.502   0.393  0.00  0.00     0.275 HD
ENDBRANCH  17  22
ENDBRANCH   3  17
TORSDOF 8
ENDMDL
MODEL 7
REMARK VINA RESULT:      -5.6      4.254      7.090
REMARK  8 active torsions:
REMARK  status: ('A' for Active; 'I' for Inactive)
REMARK    1  A    between atoms: C_3  and  C_9 
REMARK    2  A    between atoms: C_3  and  C_21 
REMARK    3  A    between atoms: C_3  and  N_25 
REMARK    4  A    between atoms: C_7  and  C_8 
REMARK    5  A    between atoms: C_8  and  C_23 
REMARK    6  A    between atoms: C_10  and  C_21 
REMARK    7  A    between atoms: N_11  and  C_23 
REMARK    8  A    between atoms: C_23  and  C_24 
REMARK       I    between atoms: C_24  and  N_25 
ROOT
HETATM    1  H           1     -19.100  -7.482  -4.655  0.00  0.00     0.163 HD
HETATM    2  O           1     -19.702 -10.038  -5.711  0.00  0.00    -0.271 OA
HETATM    3  C           1     -19.565  -9.498  -4.639  0.00  0.00     0.249 C 
HETATM    4  N           1     -19.834  -8.163  -4.505  0.00  0.00    -0.344 N 
ENDROOT
BRANCH   4   5
HETATM    5  C           1     -21.169  -7.724  -4.148  0.00  0.00     0.191 C 
BRANCH   5   6
HETATM    6  C           1     -21.748  -6.907  -5.277  0.00  0.00     0.197 C 
HETATM    7  O           1     -21.249  -6.979  -6.420  0.00  0.00    -0.646 OA
HETATM    8  O           1     -22.727  -6.157  -5.068  0.00  0.00    -0.646 OA
ENDBRANCH   5   6
BRANCH   5   9
HETATM    9  C           1     -21.103  -6.872  -2.887  0.00  0.00     0.094 C 
BRANCH   9  10
HETATM   10  C           1     -21.773  -7.596  -1.761  0.00  0.00     0.028 A 
HETATM   11  C           1     -22.392  -6.984  -0.697  0.00  0.00     0.114 A 
HETATM   12  N           1     -22.860  -8.009   0.078  0.00  0.00    -0.360 N 
HETATM   13  C           1     -22.511  -9.178  -0.534  0.00  0.00     0.180 A 
HETATM   14  H           1     -23.389  -7.913   0.980  0.00  0.00     0.166 HD
HETATM   15  N           1     -21.853  -8.960  -1.649  0.00  0.00    -0.354 N 
ATOM     16  HN          1     -21.479  -9.657  -2.293  1.00  0.00     0.166 HD
ENDBRANCH   9  10
ENDBRANCH   5   9
ENDBRANCH   4   5
BRANCH   3  17
HETATM   17  C           1     -19.099 -10.298  -3.448  0.00  0.00     0.275 C 
BRANCH  17  18
HETATM   18  C           1     -17.832  -9.672  -2.878  0.00  0.00     0.046 C 
BRANCH  18  19
HETATM   19  C           1     -16.621 -10.477  -3.328  0.00  0.00    -0.020 C 
HETATM   20  C           1     -15.861  -9.699  -4.394  0.00  0.00     0.009 C 
HETATM   21  C           1     -15.707 -10.728  -2.135  0.00  0.00     0.009 C 
ENDBRANCH  18  19
ENDBRANCH  17  18
BRANCH  17  22
HETATM   22  N           1     -18.810 -11.707  -3.874  0.00  0.00    -0.066 N 
HETATM   23  H           1     -19.677 -12.133  -4.275  0.00  0.00     0.275 HD
HETATM   24  H           1     -18.499 -12.265  -3.048  0.00  0.00     0.275 HD
HETATM   25  H           1     -18.056 -11.704  -4.598  0.00  0.00     0.275 HD
ENDBRANCH  17  22
ENDBRANCH   3  17
TORSDOF 8
ENDMDL
MODEL 8
REMARK VINA RESULT:      -5.6      4.981      7.354
REMARK  8 active torsions:
REMARK  status: ('A' for Active; 'I' for Inactive)
REMARK    1  A    between atoms: C_3  and  C_9 
REMARK    2  A    between atoms: C_3  and  C_21 
REMARK    3  A    between atoms: C_3  and  N_25 
REMARK    4  A    between atoms: C_7  and  C_8 
REMARK    5  A    between atoms: C_8  and  C_23 
REMARK    6  A    between atoms: C_10  and  C_21 
REMARK    7  A    between atoms: N_11  and  C_23 
REMARK    8  A    between atoms: C_23  and  C_24 
REMARK       I    between atoms: C_24  and  N_25 
ROOT
HETATM    1  H           1     -19.340  -7.105  -3.409  0.00  0.00     0.163 HD
HETATM    2  O           1     -20.026  -8.051  -5.987  0.00  0.00    -0.271 OA
HETATM    3  C           1     -19.777  -8.485  -4.888  0.00  0.00     0.249 C 
HETATM    4  N           1     -20.044  -7.732  -3.776  0.00  0.00    -0.344 N 
ENDROOT
BRANCH   4   5
HETATM    5  C           1     -21.336  -7.834  -3.126  0.00  0.00     0.191 C 
BRANCH   5   6
HETATM    6  C           1     -22.064  -6.517  -3.246  0.00  0.00     0.197 C 
HETATM    7  O           1     -22.371  -6.073  -4.372  0.00  0.00    -0.646 OA
HETATM    8  O           1     -22.359  -5.871  -2.217  0.00  0.00    -0.646 OA
ENDBRANCH   5   6
BRANCH   5   9
HETATM    9  C           1     -21.137  -8.172  -1.654  0.00  0.00     0.094 C 
BRANCH   9  10
HETATM   10  C           1     -22.099  -9.248  -1.256  0.00  0.00     0.028 A 
HETATM   11  C           1     -22.888  -9.214  -0.131  0.00  0.00     0.114 A 
HETATM   12  N           1     -23.598 -10.383  -0.161  0.00  0.00    -0.360 N 
HETATM   13  C           1     -23.216 -11.066  -1.280  0.00  0.00     0.180 A 
HETATM   14  H           1     -24.305 -10.697   0.548  0.00  0.00     0.166 HD
HETATM   15  N           1     -22.311 -10.404  -1.962  0.00  0.00    -0.354 N 
ATOM     16  HN          1     -21.860 -10.690  -2.831  1.00  0.00     0.166 HD
ENDBRANCH   9  10
ENDBRANCH   5   9
ENDBRANCH   4   5
BRANCH   3  17
HETATM   17  C           1     -19.170  -9.859  -4.741  0.00  0.00     0.275 C 
BRANCH  17  18
HETATM   18  C           1     -17.671  -9.731  -4.500  0.00  0.00     0.046 C 
BRANCH  18  19
HETATM   19  C           1     -17.403  -9.634  -3.004  0.00  0.00    -0.020 C 
HETATM   20  C           1     -18.295 -10.622  -2.263  0.00  0.00     0.009 C 
HETATM   21  C           1     -15.943  -9.965  -2.728  0.00  0.00     0.009 C 
ENDBRANCH  18  19
ENDBRANCH  17  18
BRANCH  17  22
HETATM   22  N           1     -19.408 -10.646  -5.995  0.00  0.00    -0.066 N 
HETATM   23  H           1     -19.655 -11.632  -5.746  0.00  0.00     0.275 HD
HETATM   24  H           1     -18.542 -10.643  -6.579  0.00  0.00     0.275 HD
HETATM   25  H           1     -20.193 -10.216  -6.533  0.00  0.00     0.275 HD
ENDBRANCH  17  22
ENDBRANCH   3  17
TORSDOF 8
ENDMDL
MODEL 9
REMARK VINA RESULT:      -5.6      3.600      5.436
REMARK  8 active torsions:
REMARK  status: ('A' for Active; 'I' for Inactive)
REMARK    1  A    between atoms: C_3  and  C_9 
REMARK    2  A    between atoms: C_3  and  C_21 
REMARK    3  A    between atoms: C_3  and  N_25 
REMARK    4  A    between atoms: C_7  and  C_8 
REMARK    5  A    between atoms: C_8  and  C_23 
REMARK    6  A    between atoms: C_10  and  C_21 
REMARK    7  A    between atoms: N_11  and  C_23 
REMARK    8  A    between atoms: C_23  and  C_24 
REMARK       I    between atoms: C_24  and  N_25 
ROOT
HETATM    1  H           1     -19.758 -10.274  -2.836  0.00  0.00     0.163 HD
HETATM    2  O           1     -22.088 -11.880  -2.855  0.00  0.00    -0.271 OA
HETATM    3  C           1     -21.755 -10.751  -2.583  0.00  0.00     0.249 C 
HETATM    4  N           1     -20.688 -10.178  -3.221  0.00  0.00    -0.344 N 
ENDROOT
BRANCH   4   5
HETATM    5  C           1     -20.893  -9.434  -4.449  0.00  0.00     0.191 C 
BRANCH   5   6
HETATM    6  C           1     -20.436 -10.267  -5.622  0.00  0.00     0.197 C 
HETATM    7  O           1     -21.272 -10.895  -6.306  0.00  0.00    -0.646 OA
HETATM    8  O           1     -19.220 -10.327  -5.909  0.00  0.00    -0.646 OA
ENDBRANCH   5   6
BRANCH   5   9
HETATM    9  C           1     -20.087  -8.143  -4.399  0.00  0.00     0.094 C 
BRANCH   9  10
HETATM   10  C           1     -20.761  -7.103  -5.239  0.00  0.00     0.028 A 
HETATM   11  C           1     -21.865  -6.381  -4.853  0.00  0.00     0.114 A 
HETATM   12  N           1     -22.139  -5.559  -5.911  0.00  0.00    -0.360 N 
HETATM   13  C           1     -21.208  -5.812  -6.878  0.00  0.00     0.180 A 
HETATM   14  H           1     -22.922  -4.862  -5.970  0.00  0.00     0.166 HD
HETATM   15  N           1     -20.361  -6.741  -6.500  0.00  0.00    -0.354 N 
ATOM     16  HN          1     -19.575  -7.114  -7.031  1.00  0.00     0.166 HD
ENDBRANCH   9  10
ENDBRANCH   5   9
ENDBRANCH   4   5
BRANCH   3  17
HETATM   17  C           1     -22.517  -9.973  -1.538  0.00  0.00     0.275 C 
BRANCH  17  18
HETATM   18  C           1     -21.567  -9.547  -0.426  0.00  0.00     0.046 C 
BRANCH  18  19
HETATM   19  C           1     -21.839  -8.097  -0.052  0.00  0.00    -0.020 C 
HETATM   20  C           1     -21.965  -7.260  -1.319  0.00  0.00     0.009 C 
HETATM   21  C           1     -23.136  -8.012   0.741  0.00  0.00     0.009 C 
ENDBRANCH  18  19
ENDBRANCH  17  18
BRANCH  17  22
HETATM   22  N           1     -23.601 -10.836  -0.964  0.00  0.00    -0.066 N 
HETATM   23  H           1     -23.688 -11.710  -1.533  0.00  0.00     0.275 HD
HETATM   24  H           1     -24.507 -10.318  -0.984  0.00  0.00     0.275 HD
HETATM   25  H           1     -23.363 -11.085   0.022  0.00  0.00     0.275 HD
ENDBRANCH  17  22
ENDBRANCH   3  17
TORSDOF 8
ENDMDL
