MODEL 1
REMARK VINA RESULT:      -7.6      0.000      0.000
REMARK  9 active torsions:
REMARK  status: ('A' for Active; 'I' for Inactive)
REMARK    1  A    between atoms: N_2  and  C_14 
REMARK    2  A    between atoms: C_4  and  O_5 
REMARK    3  A    between atoms: C_4  and  C_7 
REMARK    4  A    between atoms: C_7  and  C_24 
REMARK    5  A    between atoms: C_7  and  N_17 
REMARK       I    between atoms: C_13  and  N_17 
REMARK    6  A    between atoms: C_13  and  C_14 
REMARK    7  A    between atoms: C_14  and  C_15 
REMARK    8  A    between atoms: C_15  and  C_16 
REMARK    9  A    between atoms: C_25  and  O_26 
ROOT
HETATM    1  C           1     -21.194  -5.707  -6.952  0.00  0.00     0.278 C 
ENDROOT
BRANCH   1   2
HETATM    2  N           1     -19.916  -6.231  -7.537  0.00  0.00    -0.066 N 
HETATM    3  H           1     -19.468  -5.487  -8.118  0.00  0.00     0.275 HD
HETATM    4  H           1     -20.121  -7.063  -8.134  0.00  0.00     0.275 HD
HETATM    5  H           1     -19.268  -6.508  -6.765  0.00  0.00     0.275 HD
ENDBRANCH   1   2
BRANCH   1   6
HETATM    6  C           1     -21.701  -4.564  -7.795  0.00  0.00     0.249 C 
HETATM    7  O           1     -21.731  -3.445  -7.340  0.00  0.00    -0.271 OA
HETATM    8  N           1     -22.125  -4.794  -9.076  0.00  0.00    -0.343 N 
HETATM    9  H           1     -22.098  -5.731  -9.457  0.00  0.00     0.163 HD
BRANCH   8  10
HETATM   10  C           1     -22.612  -3.695  -9.886  0.00  0.00     0.214 C 
BRANCH  10  11
HETATM   11  C           1     -21.837  -3.646 -11.197  0.00  0.00     0.147 C 
HETATM   12  C           1     -20.444  -4.223 -10.985  0.00  0.00     0.042 C 
BRANCH  11  13
HETATM   13  O           1     -22.512  -4.400 -12.167  0.00  0.00    -0.393 OA
HETATM   14  H           1     -23.086  -4.988 -11.707  0.00  0.00     0.210 HD
ENDBRANCH  11  13
ENDBRANCH  10  11
BRANCH  10  15
HETATM   15  C           1     -24.079  -3.899 -10.180  0.00  0.00     0.199 C 
HETATM   16  O           1     -24.627  -4.987  -9.901  0.00  0.00    -0.646 OA
HETATM   17  O           1     -24.745  -2.979 -10.703  0.00  0.00    -0.646 OA
ENDBRANCH  10  15
ENDBRANCH   8  10
ENDBRANCH   1   6
BRANCH   1  18
HETATM   18  C           1     -20.938  -5.218  -5.532  0.00  0.00     0.081 C 
BRANCH  18  19
HETATM   19  C           1     -21.184  -6.335  -4.566  0.00  0.00    -0.056 A 
HETATM   20  C           1     -21.323  -6.062  -3.206  0.00  0.00     0.010 A 
HETATM   21  C           1     -21.552  -7.103  -2.306  0.00  0.00     0.037 A 
HETATM   22  C           1     -21.641  -8.416  -2.766  0.00  0.00     0.065 A 
HETATM   23  C           1     -21.500  -8.689  -4.127  0.00  0.00     0.037 A 
HETATM   24  C           1     -21.272  -7.649  -5.027  0.00  0.00     0.010 A 
BRANCH  22  25
HETATM   25  O           1     -21.862  -9.427  -1.892  0.00  0.00    -0.361 OA
HETATM   26  H           1     -22.796  -9.395  -1.624  0.00  0.00     0.217 HD
ENDBRANCH  22  25
ENDBRANCH  18  19
ENDBRANCH   1  18
TORSDOF 9
ENDMDL
MODEL 2
REMARK VINA RESULT:      -7.3      2.072      7.666
REMARK  9 active torsions:
REMARK  status: ('A' for Active; 'I' for Inactive)
REMARK    1  A    between atoms: N_2  and  C_14 
REMARK    2  A    between atoms: C_4  and  O_5 
REMARK    3  A    between atoms: C_4  and  C_7 
REMARK    4  A    between atoms: C_7  and  C_24 
REMARK    5  A    between atoms: C_7  and  N_17 
REMARK       I    between atoms: C_13  and  N_17 
REMARK    6  A    between atoms: C_13  and  C_14 
REMARK    7  A    between atoms: C_14  and  C_15 
REMARK    8  A    between atoms: C_15  and  C_16 
REMARK    9  A    between atoms: C_25  and  O_26 
ROOT
HETATM    1  C           1     -22.214  -5.232  -6.678  0.00  0.00     0.278 C 
ENDROOT
BRANCH   1   2
HETATM    2  N           1     -23.615  -4.931  -6.233  0.00  0.00    -0.066 N 
HETATM    3  H           1     -23.589  -4.418  -5.323  0.00  0.00     0.275 HD
HETATM    4  H           1     -24.142  -5.825  -6.114  0.00  0.00     0.275 HD
HETATM    5  H           1     -24.089  -4.340  -6.953  0.00  0.00     0.275 HD
ENDBRANCH   1   2
BRANCH   1   6
HETATM    6  C           1     -21.425  -5.784  -5.516  0.00  0.00     0.249 C 
HETATM    7  O           1     -20.222  -5.670  -5.495  0.00  0.00    -0.271 OA
HETATM    8  N           1     -22.072  -6.412  -4.487  0.00  0.00    -0.343 N 
HETATM    9  H           1     -23.080  -6.506  -4.505  0.00  0.00     0.163 HD
BRANCH   8  10
HETATM   10  C           1     -21.314  -6.942  -3.371  0.00  0.00     0.214 C 
BRANCH  10  11
HETATM   11  C           1     -22.170  -6.908  -2.111  0.00  0.00     0.147 C 
HETATM   12  C           1     -21.427  -7.593  -0.972  0.00  0.00     0.042 C 
BRANCH  11  13
HETATM   13  O           1     -22.433  -5.576  -1.762  0.00  0.00    -0.393 OA
HETATM   14  H           1     -21.807  -5.337  -1.100  0.00  0.00     0.210 HD
ENDBRANCH  11  13
ENDBRANCH  10  11
BRANCH  10  15
HETATM   15  C           1     -20.915  -8.368  -3.667  0.00  0.00     0.199 C 
HETATM   16  O           1     -19.709  -8.693  -3.664  0.00  0.00    -0.646 OA
HETATM   17  O           1     -21.793  -9.223  -3.916  0.00  0.00    -0.646 OA
ENDBRANCH  10  15
ENDBRANCH   8  10
ENDBRANCH   1   6
BRANCH   1  18
HETATM   18  C           1     -21.555  -3.953  -7.178  0.00  0.00     0.081 C 
BRANCH  18  19
HETATM   19  C           1     -21.587  -3.926  -8.675  0.00  0.00    -0.056 A 
HETATM   20  C           1     -22.783  -3.665  -9.342  0.00  0.00     0.010 A 
HETATM   21  C           1     -22.813  -3.641 -10.736  0.00  0.00     0.037 A 
HETATM   22  C           1     -21.647  -3.876 -11.463  0.00  0.00     0.065 A 
HETATM   23  C           1     -20.450  -4.138 -10.795  0.00  0.00     0.037 A 
HETATM   24  C           1     -20.420  -4.163  -9.401  0.00  0.00     0.010 A 
BRANCH  22  25
HETATM   25  O           1     -21.675  -3.853 -12.817  0.00  0.00    -0.361 OA
HETATM   26  H           1     -20.813  -4.162 -13.142  0.00  0.00     0.217 HD
ENDBRANCH  22  25
ENDBRANCH  18  19
ENDBRANCH   1  18
TORSDOF 9
ENDMDL
MODEL 3
REMARK VINA RESULT:      -7.3     12.857     15.672
REMARK  9 active torsions:
REMARK  status: ('A' for Active; 'I' for Inactive)
REMARK    1  A    between atoms: N_2  and  C_14 
REMARK    2  A    between atoms: C_4  and  O_5 
REMARK    3  A    between atoms: C_4  and  C_7 
REMARK    4  A    between atoms: C_7  and  C_24 
REMARK    5  A    between atoms: C_7  and  N_17 
REMARK       I    between atoms: C_13  and  N_17 
REMARK    6  A    between atoms: C_13  and  C_14 
REMARK    7  A    between atoms: C_14  and  C_15 
REMARK    8  A    between atoms: C_15  and  C_16 
REMARK    9  A    between atoms: C_25  and  O_26 
ROOT
HETATM    1  C           1     -35.907  -0.619 -11.209  0.00  0.00     0.278 C 
ENDROOT
BRANCH   1   2
HETATM    2  N           1     -36.226   0.496 -10.257  0.00  0.00    -0.066 N 
HETATM    3  H           1     -36.151   0.148  -9.275  0.00  0.00     0.275 HD
HETATM    4  H           1     -37.198   0.837 -10.433  0.00  0.00     0.275 HD
HETATM    5  H           1     -35.551   1.280 -10.402  0.00  0.00     0.275 HD
ENDBRANCH   1   2
BRANCH   1   6
HETATM    6  C           1     -36.718  -0.452 -12.470  0.00  0.00     0.249 C 
HETATM    7  O           1     -37.917  -0.318 -12.403  0.00  0.00    -0.271 OA
HETATM    8  N           1     -36.095  -0.450 -13.689  0.00  0.00    -0.343 N 
HETATM    9  H           1     -35.090  -0.561 -13.744  0.00  0.00     0.163 HD
BRANCH   8  10
HETATM   10  C           1     -36.874  -0.289 -14.900  0.00  0.00     0.214 C 
BRANCH  10  11
HETATM   11  C           1     -37.045   1.194 -15.203  0.00  0.00     0.147 C 
HETATM   12  C           1     -35.745   1.751 -15.767  0.00  0.00     0.042 C 
BRANCH  11  13
HETATM   13  O           1     -38.072   1.363 -16.142  0.00  0.00    -0.393 OA
HETATM   14  H           1     -37.675   1.312 -16.994  0.00  0.00     0.210 HD
ENDBRANCH  11  13
ENDBRANCH  10  11
BRANCH  10  15
HETATM   15  C           1     -36.159  -0.956 -16.050  0.00  0.00     0.199 C 
HETATM   16  O           1     -36.627  -0.880 -17.206  0.00  0.00    -0.646 OA
HETATM   17  O           1     -35.097  -1.584 -15.845  0.00  0.00    -0.646 OA
ENDBRANCH  10  15
ENDBRANCH   8  10
ENDBRANCH   1   6
BRANCH   1  18
HETATM   18  C           1     -36.247  -1.953 -10.558  0.00  0.00     0.081 C 
BRANCH  18  19
HETATM   19  C           1     -35.175  -2.951 -10.873  0.00  0.00    -0.056 A 
HETATM   20  C           1     -35.484  -4.309 -10.933  0.00  0.00     0.010 A 
HETATM   21  C           1     -34.487  -5.239 -11.226  0.00  0.00     0.037 A 
HETATM   22  C           1     -33.180  -4.810 -11.460  0.00  0.00     0.065 A 
HETATM   23  C           1     -32.872  -3.450 -11.399  0.00  0.00     0.037 A 
HETATM   24  C           1     -33.869  -2.521 -11.105  0.00  0.00     0.010 A 
BRANCH  22  25
HETATM   25  O           1     -32.211  -5.712 -11.744  0.00  0.00    -0.361 OA
HETATM   26  H           1     -31.490  -5.246 -12.200  0.00  0.00     0.217 HD
ENDBRANCH  22  25
ENDBRANCH  18  19
ENDBRANCH   1  18
TORSDOF 9
ENDMDL
MODEL 4
REMARK VINA RESULT:      -7.3      2.059      7.679
REMARK  9 active torsions:
REMARK  status: ('A' for Active; 'I' for Inactive)
REMARK    1  A    between atoms: N_2  and  C_14 
REMARK    2  A    between atoms: C_4  and  O_5 
REMARK    3  A    between atoms: C_4  and  C_7 
REMARK    4  A    between atoms: C_7  and  C_24 
REMARK    5  A    between atoms: C_7  and  N_17 
REMARK       I    between atoms: C_13  and  N_17 
REMARK    6  A    between atoms: C_13  and  C_14 
REMARK    7  A    between atoms: C_14  and  C_15 
REMARK    8  A    between atoms: C_15  and  C_16 
REMARK    9  A    between atoms: C_25  and  O_26 
ROOT
HETATM    1  C           1     -22.170  -5.242  -6.664  0.00  0.00     0.278 C 
ENDROOT
BRANCH   1   2
HETATM    2  N           1     -23.588  -4.976  -6.251  0.00  0.00    -0.066 N 
HETATM    3  H           1     -23.608  -4.663  -5.255  0.00  0.00     0.275 HD
HETATM    4  H           1     -24.151  -5.850  -6.353  0.00  0.00     0.275 HD
HETATM    5  H           1     -23.992  -4.228  -6.859  0.00  0.00     0.275 HD
ENDBRANCH   1   2
BRANCH   1   6
HETATM    6  C           1     -21.389  -5.751  -5.477  0.00  0.00     0.249 C 
HETATM    7  O           1     -20.227  -5.447  -5.344  0.00  0.00    -0.271 OA
HETATM    8  N           1     -21.997  -6.557  -4.552  0.00  0.00    -0.343 N 
HETATM    9  H           1     -22.970  -6.811  -4.664  0.00  0.00     0.163 HD
BRANCH   8  10
HETATM   10  C           1     -21.246  -7.046  -3.413  0.00  0.00     0.214 C 
BRANCH  10  11
HETATM   11  C           1     -22.130  -7.021  -2.172  0.00  0.00     0.147 C 
HETATM   12  C           1     -21.378  -7.637  -1.000  0.00  0.00     0.042 C 
BRANCH  11  13
HETATM   13  O           1     -22.467  -5.695  -1.866  0.00  0.00    -0.393 OA
HETATM   14  H           1     -23.191  -5.461  -2.420  0.00  0.00     0.210 HD
ENDBRANCH  11  13
ENDBRANCH  10  11
BRANCH  10  15
HETATM   15  C           1     -20.794  -8.461  -3.679  0.00  0.00     0.199 C 
HETATM   16  O           1     -21.637  -9.351  -3.920  0.00  0.00    -0.646 OA
HETATM   17  O           1     -19.576  -8.743  -3.656  0.00  0.00    -0.646 OA
ENDBRANCH  10  15
ENDBRANCH   8  10
ENDBRANCH   1   6
BRANCH   1  18
HETATM   18  C           1     -21.539  -3.953  -7.173  0.00  0.00     0.081 C 
BRANCH  18  19
HETATM   19  C           1     -21.580  -3.934  -8.670  0.00  0.00    -0.056 A 
HETATM   20  C           1     -20.422  -4.193  -9.402  0.00  0.00     0.010 A 
HETATM   21  C           1     -20.459  -4.175 -10.795  0.00  0.00     0.037 A 
HETATM   22  C           1     -21.655  -3.898 -11.458  0.00  0.00     0.065 A 
HETATM   23  C           1     -22.813  -3.637 -10.725  0.00  0.00     0.037 A 
HETATM   24  C           1     -22.776  -3.655  -9.331  0.00  0.00     0.010 A 
BRANCH  22  25
HETATM   25  O           1     -21.691  -3.879 -12.811  0.00  0.00    -0.361 OA
HETATM   26  H           1     -20.838  -3.542 -13.132  0.00  0.00     0.217 HD
ENDBRANCH  22  25
ENDBRANCH  18  19
ENDBRANCH   1  18
TORSDOF 9
ENDMDL
MODEL 5
REMARK VINA RESULT:      -7.1     12.741     14.675
REMARK  9 active torsions:
REMARK  status: ('A' for Active; 'I' for Inactive)
REMARK    1  A    between atoms: N_2  and  C_14 
REMARK    2  A    between atoms: C_4  and  O_5 
REMARK    3  A    between atoms: C_4  and  C_7 
REMARK    4  A    between atoms: C_7  and  C_24 
REMARK    5  A    between atoms: C_7  and  N_17 
REMARK       I    between atoms: C_13  and  N_17 
REMARK    6  A    between atoms: C_13  and  C_14 
REMARK    7  A    between atoms: C_14  and  C_15 
REMARK    8  A    between atoms: C_15  and  C_16 
REMARK    9  A    between atoms: C_25  and  O_26 
ROOT
HETATM    1  C           1     -32.927  -4.491 -16.677  0.00  0.00     0.278 C 
ENDROOT
BRANCH   1   2
HETATM    2  N           1     -33.222  -3.306 -17.549  0.00  0.00    -0.066 N 
HETATM    3  H           1     -32.447  -3.180 -18.239  0.00  0.00     0.275 HD
HETATM    4  H           1     -33.304  -2.449 -16.957  0.00  0.00     0.275 HD
HETATM    5  H           1     -34.120  -3.464 -18.059  0.00  0.00     0.275 HD
ENDBRANCH   1   2
BRANCH   1   6
HETATM    6  C           1     -33.821  -4.455 -15.462  0.00  0.00     0.249 C 
HETATM    7  O           1     -34.973  -4.808 -15.550  0.00  0.00    -0.271 OA
HETATM    8  N           1     -33.325  -4.026 -14.261  0.00  0.00    -0.343 N 
HETATM    9  H           1     -32.359  -3.732 -14.188  0.00  0.00     0.163 HD
BRANCH   8  10
HETATM   10  C           1     -34.184  -3.992 -13.093  0.00  0.00     0.214 C 
BRANCH  10  11
HETATM   11  C           1     -33.409  -4.483 -11.877  0.00  0.00     0.147 C 
HETATM   12  C           1     -34.116  -5.692 -11.278  0.00  0.00     0.042 C 
BRANCH  11  13
HETATM   13  O           1     -32.112  -4.848 -12.267  0.00  0.00    -0.393 OA
HETATM   14  H           1     -31.889  -5.625 -11.783  0.00  0.00     0.210 HD
ENDBRANCH  11  13
ENDBRANCH  10  11
BRANCH  10  15
HETATM   15  C           1     -34.649  -2.576 -12.852  0.00  0.00     0.199 C 
HETATM   16  O           1     -34.642  -2.104 -11.696  0.00  0.00    -0.646 OA
HETATM   17  O           1     -35.042  -1.876 -13.812  0.00  0.00    -0.646 OA
ENDBRANCH  10  15
ENDBRANCH   8  10
ENDBRANCH   1   6
BRANCH   1  18
HETATM   18  C           1     -31.469  -4.448 -16.239  0.00  0.00     0.081 C 
BRANCH  18  19
HETATM   19  C           1     -30.655  -5.343 -17.120  0.00  0.00    -0.056 A 
HETATM   20  C           1     -31.049  -6.664 -17.326  0.00  0.00     0.010 A 
HETATM   21  C           1     -30.291  -7.498 -18.147  0.00  0.00     0.037 A 
HETATM   22  C           1     -29.138  -7.011 -18.762  0.00  0.00     0.065 A 
HETATM   23  C           1     -28.743  -5.689 -18.555  0.00  0.00     0.037 A 
HETATM   24  C           1     -29.501  -4.855 -17.734  0.00  0.00     0.010 A 
BRANCH  22  25
HETATM   25  O           1     -28.400  -7.821 -19.559  0.00  0.00    -0.361 OA
HETATM   26  H           1     -27.718  -7.279 -19.990  0.00  0.00     0.217 HD
ENDBRANCH  22  25
ENDBRANCH  18  19
ENDBRANCH   1  18
TORSDOF 9
ENDMDL
MODEL 6
REMARK VINA RESULT:      -6.7     13.705     16.278
REMARK  9 active torsions:
REMARK  status: ('A' for Active; 'I' for Inactive)
REMARK    1  A    between atoms: N_2  and  C_14 
REMARK    2  A    between atoms: C_4  and  O_5 
REMARK    3  A    between atoms: C_4  and  C_7 
REMARK    4  A    between atoms: C_7  and  C_24 
REMARK    5  A    between atoms: C_7  and  N_17 
REMARK       I    between atoms: C_13  and  N_17 
REMARK    6  A    between atoms: C_13  and  C_14 
REMARK    7  A    between atoms: C_14  and  C_15 
REMARK    8  A    between atoms: C_15  and  C_16 
REMARK    9  A    between atoms: C_25  and  O_26 
ROOT
HETATM    1  C           1     -36.122  -0.956 -10.914  0.00  0.00     0.278 C 
ENDROOT
BRANCH   1   2
HETATM    2  N           1     -36.089  -0.700  -9.436  0.00  0.00    -0.066 N 
HETATM    3  H           1     -36.924  -1.139  -8.987  0.00  0.00     0.275 HD
HETATM    4  H           1     -36.100   0.330  -9.260  0.00  0.00     0.275 HD
HETATM    5  H           1     -35.218  -1.112  -9.032  0.00  0.00     0.275 HD
ENDBRANCH   1   2
BRANCH   1   6
HETATM    6  C           1     -34.942  -1.812 -11.303  0.00  0.00     0.249 C 
HETATM    7  O           1     -33.821  -1.451 -11.035  0.00  0.00    -0.271 OA
HETATM    8  N           1     -35.144  -2.997 -11.957  0.00  0.00    -0.343 N 
HETATM    9  H           1     -36.083  -3.299 -12.180  0.00  0.00     0.163 HD
BRANCH   8  10
HETATM   10  C           1     -34.009  -3.819 -12.331  0.00  0.00     0.214 C 
BRANCH  10  11
HETATM   11  C           1     -34.248  -5.253 -11.874  0.00  0.00     0.147 C 
HETATM   12  C           1     -34.951  -5.246 -10.523  0.00  0.00     0.042 C 
BRANCH  11  13
HETATM   13  O           1     -35.050  -5.915 -12.814  0.00  0.00    -0.393 OA
HETATM   14  H           1     -34.675  -6.769 -12.943  0.00  0.00     0.210 HD
ENDBRANCH  11  13
ENDBRANCH  10  11
BRANCH  10  15
HETATM   15  C           1     -33.842  -3.793 -13.831  0.00  0.00     0.199 C 
HETATM   16  O           1     -32.884  -4.391 -14.364  0.00  0.00    -0.646 OA
HETATM   17  O           1     -34.663  -3.170 -14.540  0.00  0.00    -0.646 OA
ENDBRANCH  10  15
ENDBRANCH   8  10
ENDBRANCH   1   6
BRANCH   1  18
HETATM   18  C           1     -36.057   0.371 -11.660  0.00  0.00     0.081 C 
BRANCH  18  19
HETATM   19  C           1     -36.231   0.128 -13.127  0.00  0.00    -0.056 A 
HETATM   20  C           1     -35.145   0.265 -13.990  0.00  0.00     0.010 A 
HETATM   21  C           1     -35.307   0.039 -15.357  0.00  0.00     0.037 A 
HETATM   22  C           1     -36.556  -0.323 -15.860  0.00  0.00     0.065 A 
HETATM   23  C           1     -37.644  -0.459 -14.997  0.00  0.00     0.037 A 
HETATM   24  C           1     -37.481  -0.233 -13.630  0.00  0.00     0.010 A 
BRANCH  22  25
HETATM   25  O           1     -36.715  -0.541 -17.188  0.00  0.00    -0.361 OA
HETATM   26  H           1     -36.657   0.316 -17.643  0.00  0.00     0.217 HD
ENDBRANCH  22  25
ENDBRANCH  18  19
ENDBRANCH   1  18
TORSDOF 9
ENDMDL
MODEL 7
REMARK VINA RESULT:      -6.5     11.930     14.492
REMARK  9 active torsions:
REMARK  status: ('A' for Active; 'I' for Inactive)
REMARK    1  A    between atoms: N_2  and  C_14 
REMARK    2  A    between atoms: C_4  and  O_5 
REMARK    3  A    between atoms: C_4  and  C_7 
REMARK    4  A    between atoms: C_7  and  C_24 
REMARK    5  A    between atoms: C_7  and  N_17 
REMARK       I    between atoms: C_13  and  N_17 
REMARK    6  A    between atoms: C_13  and  C_14 
REMARK    7  A    between atoms: C_14  and  C_15 
REMARK    8  A    between atoms: C_15  and  C_16 
REMARK    9  A    between atoms: C_25  and  O_26 
ROOT
HETATM    1  C           1     -26.281  -7.523 -20.486  0.00  0.00     0.278 C 
ENDROOT
BRANCH   1   2
HETATM    2  N           1     -27.176  -8.598 -21.030  0.00  0.00    -0.066 N 
HETATM    3  H           1     -27.079  -8.638 -22.070  0.00  0.00     0.275 HD
HETATM    4  H           1     -28.168  -8.385 -20.780  0.00  0.00     0.275 HD
HETATM    5  H           1     -26.902  -9.518 -20.619  0.00  0.00     0.275 HD
ENDBRANCH   1   2
BRANCH   1   6
HETATM    6  C           1     -27.122  -6.430 -19.875  0.00  0.00     0.249 C 
HETATM    7  O           1     -27.379  -5.437 -20.514  0.00  0.00    -0.271 OA
HETATM    8  N           1     -27.595  -6.564 -18.597  0.00  0.00    -0.343 N 
HETATM    9  H           1     -27.380  -7.396 -18.063  0.00  0.00     0.163 HD
BRANCH   8  10
HETATM   10  C           1     -28.403  -5.514 -18.010  0.00  0.00     0.214 C 
BRANCH  10  11
HETATM   11  C           1     -29.678  -6.115 -17.433  0.00  0.00     0.147 C 
HETATM   12  C           1     -29.823  -7.554 -17.911  0.00  0.00     0.042 C 
BRANCH  11  13
HETATM   13  O           1     -29.613  -6.092 -16.033  0.00  0.00    -0.393 OA
HETATM   14  H           1     -30.490  -6.221 -15.716  0.00  0.00     0.210 HD
ENDBRANCH  11  13
ENDBRANCH  10  11
BRANCH  10  15
HETATM   15  C           1     -27.624  -4.838 -16.907  0.00  0.00     0.199 C 
HETATM   16  O           1     -27.994  -3.727 -16.471  0.00  0.00    -0.646 OA
HETATM   17  O           1     -26.608  -5.391 -16.431  0.00  0.00    -0.646 OA
ENDBRANCH  10  15
ENDBRANCH   8  10
ENDBRANCH   1   6
BRANCH   1  18
HETATM   18  C           1     -25.439  -6.945 -21.616  0.00  0.00     0.081 C 
BRANCH  18  19
HETATM   19  C           1     -24.107  -7.631 -21.649  0.00  0.00    -0.056 A 
HETATM   20  C           1     -23.396  -7.828 -20.466  0.00  0.00     0.010 A 
HETATM   21  C           1     -22.156  -8.466 -20.497  0.00  0.00     0.037 A 
HETATM   22  C           1     -21.629  -8.908 -21.710  0.00  0.00     0.065 A 
HETATM   23  C           1     -22.341  -8.710 -22.893  0.00  0.00     0.037 A 
HETATM   24  C           1     -23.580  -8.072 -22.863  0.00  0.00     0.010 A 
BRANCH  22  25
HETATM   25  O           1     -20.425  -9.528 -21.740  0.00  0.00    -0.361 OA
HETATM   26  H           1     -19.899  -9.201 -20.990  0.00  0.00     0.217 HD
ENDBRANCH  22  25
ENDBRANCH  18  19
ENDBRANCH   1  18
TORSDOF 9
ENDMDL
MODEL 8
REMARK VINA RESULT:      -6.5      2.276      8.038
REMARK  9 active torsions:
REMARK  status: ('A' for Active; 'I' for Inactive)
REMARK    1  A    between atoms: N_2  and  C_14 
REMARK    2  A    between atoms: C_4  and  O_5 
REMARK    3  A    between atoms: C_4  and  C_7 
REMARK    4  A    between atoms: C_7  and  C_24 
REMARK    5  A    between atoms: C_7  and  N_17 
REMARK       I    between atoms: C_13  and  N_17 
REMARK    6  A    between atoms: C_13  and  C_14 
REMARK    7  A    between atoms: C_14  and  C_15 
REMARK    8  A    between atoms: C_15  and  C_16 
REMARK    9  A    between atoms: C_25  and  O_26 
ROOT
HETATM    1  C           1     -21.644  -6.604  -5.392  0.00  0.00     0.278 C 
ENDROOT
BRANCH   1   2
HETATM    2  N           1     -23.030  -6.308  -4.899  0.00  0.00    -0.066 N 
HETATM    3  H           1     -23.396  -7.134  -4.373  0.00  0.00     0.275 HD
HETATM    4  H           1     -23.654  -6.108  -5.712  0.00  0.00     0.275 HD
HETATM    5  H           1     -23.003  -5.476  -4.267  0.00  0.00     0.275 HD
ENDBRANCH   1   2
BRANCH   1   6
HETATM    6  C           1     -20.917  -7.447  -4.373  0.00  0.00     0.249 C 
HETATM    7  O           1     -19.823  -7.892  -4.628  0.00  0.00    -0.271 OA
HETATM    8  N           1     -21.497  -7.707  -3.161  0.00  0.00    -0.343 N 
HETATM    9  H           1     -22.413  -7.333  -2.948  0.00  0.00     0.163 HD
BRANCH   8  10
HETATM   10  C           1     -20.799  -8.517  -2.182  0.00  0.00     0.214 C 
BRANCH  10  11
HETATM   11  C           1     -21.196  -8.077  -0.779  0.00  0.00     0.147 C 
HETATM   12  C           1     -22.325  -7.058  -0.867  0.00  0.00     0.042 C 
BRANCH  11  13
HETATM   13  O           1     -21.629  -9.190  -0.046  0.00  0.00    -0.393 OA
HETATM   14  H           1     -22.539  -9.317  -0.251  0.00  0.00     0.210 HD
ENDBRANCH  11  13
ENDBRANCH  10  11
BRANCH  10  15
HETATM   15  C           1     -21.168  -9.968  -2.376  0.00  0.00     0.199 C 
HETATM   16  O           1     -20.319 -10.861  -2.175  0.00  0.00    -0.646 OA
HETATM   17  O           1     -22.326 -10.274  -2.738  0.00  0.00    -0.646 OA
ENDBRANCH  10  15
ENDBRANCH   8  10
ENDBRANCH   1   6
BRANCH   1  18
HETATM   18  C           1     -20.890  -5.297  -5.601  0.00  0.00     0.081 C 
BRANCH  18  19
HETATM   19  C           1     -21.026  -4.864  -7.028  0.00  0.00    -0.056 A 
HETATM   20  C           1     -19.951  -5.008  -7.904  0.00  0.00     0.010 A 
HETATM   21  C           1     -20.076  -4.605  -9.233  0.00  0.00     0.037 A 
HETATM   22  C           1     -21.277  -4.058  -9.686  0.00  0.00     0.065 A 
HETATM   23  C           1     -22.352  -3.914  -8.809  0.00  0.00     0.037 A 
HETATM   24  C           1     -22.227  -4.317  -7.479  0.00  0.00     0.010 A 
BRANCH  22  25
HETATM   25  O           1     -21.400  -3.666 -10.977  0.00  0.00    -0.361 OA
HETATM   26  H           1     -21.427  -4.463 -11.533  0.00  0.00     0.217 HD
ENDBRANCH  22  25
ENDBRANCH  18  19
ENDBRANCH   1  18
TORSDOF 9
ENDMDL
MODEL 9
REMARK VINA RESULT:      -6.5      1.819      7.422
REMARK  9 active torsions:
REMARK  status: ('A' for Active; 'I' for Inactive)
REMARK    1  A    between atoms: N_2  and  C_14 
REMARK    2  A    between atoms: C_4  and  O_5 
REMARK    3  A    between atoms: C_4  and  C_7 
REMARK    4  A    between atoms: C_7  and  C_24 
REMARK    5  A    between atoms: C_7  and  N_17 
REMARK       I    between atoms: C_13  and  N_17 
REMARK    6  A    between atoms: C_13  and  C_14 
REMARK    7  A    between atoms: C_14  and  C_15 
REMARK    8  A    between atoms: C_15  and  C_16 
REMARK    9  A    between atoms: C_25  and  O_26 
ROOT
HETATM    1  C           1     -20.681  -5.135  -6.582  0.00  0.00     0.278 C 
ENDROOT
BRANCH   1   2
HETATM    2  N           1     -20.309  -5.999  -7.751  0.00  0.00    -0.066 N 
HETATM    3  H           1     -19.559  -5.529  -8.307  0.00  0.00     0.275 HD
HETATM    4  H           1     -21.148  -6.148  -8.356  0.00  0.00     0.275 HD
HETATM    5  H           1     -19.961  -6.921  -7.406  0.00  0.00     0.275 HD
ENDBRANCH   1   2
BRANCH   1   6
HETATM    6  C           1     -21.461  -5.952  -5.582  0.00  0.00     0.249 C 
HETATM    7  O           1     -22.664  -5.852  -5.528  0.00  0.00    -0.271 OA
HETATM    8  N           1     -20.806  -6.807  -4.737  0.00  0.00    -0.343 N 
HETATM    9  H           1     -19.799  -6.891  -4.783  0.00  0.00     0.163 HD
BRANCH   8  10
HETATM   10  C           1     -21.557  -7.592  -3.776  0.00  0.00     0.214 C 
BRANCH  10  11
HETATM   11  C           1     -20.932  -8.976  -3.651  0.00  0.00     0.147 C 
HETATM   12  C           1     -22.005 -10.038  -3.853  0.00  0.00     0.042 C 
BRANCH  11  13
HETATM   13  O           1     -19.936  -9.128  -4.626  0.00  0.00    -0.393 OA
HETATM   14  H           1     -19.142  -8.773  -4.265  0.00  0.00     0.210 HD
ENDBRANCH  11  13
ENDBRANCH  10  11
BRANCH  10  15
HETATM   15  C           1     -21.525  -6.905  -2.433  0.00  0.00     0.199 C 
HETATM   16  O           1     -22.225  -5.889  -2.234  0.00  0.00    -0.646 OA
HETATM   17  O           1     -20.797  -7.352  -1.519  0.00  0.00    -0.646 OA
ENDBRANCH  10  15
ENDBRANCH   8  10
ENDBRANCH   1   6
BRANCH   1  18
HETATM   18  C           1     -21.535  -3.970  -7.064  0.00  0.00     0.081 C 
BRANCH  18  19
HETATM   19  C           1     -21.597  -3.979  -8.560  0.00  0.00    -0.056 A 
HETATM   20  C           1     -20.445  -3.732  -9.307  0.00  0.00     0.010 A 
HETATM   21  C           1     -20.503  -3.741 -10.700  0.00  0.00     0.037 A 
HETATM   22  C           1     -21.711  -3.998 -11.347  0.00  0.00     0.065 A 
HETATM   23  C           1     -22.864  -4.245 -10.599  0.00  0.00     0.037 A 
HETATM   24  C           1     -22.806  -4.236  -9.206  0.00  0.00     0.010 A 
BRANCH  22  25
HETATM   25  O           1     -21.768  -4.006 -12.700  0.00  0.00    -0.361 OA
HETATM   26  H           1     -21.689  -3.088 -13.010  0.00  0.00     0.217 HD
ENDBRANCH  22  25
ENDBRANCH  18  19
ENDBRANCH   1  18
TORSDOF 9
ENDMDL
