MODEL 1
REMARK VINA RESULT:      -7.4      0.000      0.000
REMARK  10 active torsions:
REMARK  status: ('A' for Active; 'I' for Inactive)
REMARK    1  A    between atoms: C_1  and  C_2 
REMARK    2  A    between atoms: C_2  and  C_5 
REMARK    3  A    between atoms: C_2  and  N_22 
REMARK    4  A    between atoms: C_5  and  C_6 
REMARK    5  A    between atoms: C_6  and  C_30 
REMARK       I    between atoms: N_7  and  C_8 
REMARK       I    between atoms: C_8  and  N_9 
REMARK    6  A    between atoms: N_15  and  C_20 
REMARK    7  A    between atoms: C_18  and  C_19 
REMARK    8  A    between atoms: C_19  and  C_20 
REMARK    9  A    between atoms: C_20  and  C_21 
REMARK       I    between atoms: C_21  and  N_22 
REMARK   10  A    between atoms: N_25  and  C_30 
ROOT
HETATM    1  H           1     -27.842  -6.548 -18.624  0.00  0.00     0.163 HD
HETATM    2  C           1     -25.800  -6.837 -18.802  0.00  0.00     0.249 C 
HETATM    3  N           1     -26.941  -6.399 -18.185  0.00  0.00    -0.345 N 
HETATM    4  O           1     -24.725  -6.660 -18.280  0.00  0.00    -0.271 OA
ENDROOT
BRANCH   3   5
HETATM    5  C           1     -26.859  -5.722 -16.906  0.00  0.00     0.185 C 
BRANCH   5   6
HETATM    6  C           1     -27.094  -6.717 -15.795  0.00  0.00     0.196 C 
HETATM    7  O           1     -28.249  -6.903 -15.355  0.00  0.00    -0.646 OA
HETATM    8  O           1     -26.131  -7.355 -15.315  0.00  0.00    -0.646 OA
ENDBRANCH   5   6
BRANCH   5   9
HETATM    9  C           1     -27.919  -4.630 -16.840  0.00  0.00     0.038 C 
BRANCH   9  10
HETATM   10  C           1     -28.909  -4.813 -17.983  0.00  0.00     0.023 C 
BRANCH  10  11
HETATM   11  C           1     -30.133  -3.940 -17.739  0.00  0.00     0.138 C 
BRANCH  11  12
HETATM   12  N           1     -31.167  -4.725 -17.051  0.00  0.00    -0.227 N 
HETATM   13  C           1     -32.350  -4.280 -16.968  0.00  0.00     0.665 C 
HETATM   14  N           1     -32.641  -3.158 -17.478  0.00  0.00    -0.235 N 
HETATM   15  N           1     -33.265  -4.975 -16.359  0.00  0.00    -0.235 N 
HETATM   16  H           1     -31.902  -2.598 -17.969  0.00  0.00     0.174 HD
HETATM   17  H           1     -33.622  -2.789 -17.409  0.00  0.00     0.174 HD
HETATM   18  H           1     -33.024  -5.900 -15.938  0.00  0.00     0.174 HD
HETATM   19  H           1     -34.240  -4.608 -16.290  0.00  0.00     0.174 HD
HETATM   20  H           1     -30.926  -5.655 -16.628  0.00  0.00     0.177 HD
ENDBRANCH  11  12
ENDBRANCH  10  11
ENDBRANCH   9  10
ENDBRANCH   5   9
ENDBRANCH   3   5
BRANCH   2  21
HETATM   21  C           1     -25.884  -7.542 -20.134  0.00  0.00     0.280 C 
BRANCH  21  22
HETATM   22  N           1     -27.305  -7.533 -20.615  0.00  0.00    -0.066 N 
HETATM   23  H           1     -27.549  -6.578 -20.964  0.00  0.00     0.275 HD
HETATM   24  H           1     -27.941  -7.788 -19.826  0.00  0.00     0.275 HD
HETATM   25  H           1     -27.416  -8.227 -21.388  0.00  0.00     0.275 HD
ENDBRANCH  21  22
BRANCH  21  26
HETATM   26  C           1     -25.003  -6.823 -21.147  0.00  0.00     0.101 C 
BRANCH  26  27
HETATM   27  C           1     -23.887  -7.728 -21.568  0.00  0.00     0.028 A 
HETATM   28  N           1     -22.990  -8.313 -20.711  0.00  0.00    -0.355 N 
HETATM   29  C           1     -22.189  -9.019 -21.476  0.00  0.00     0.180 A 
ATOM     30  HN          1     -22.954  -8.220 -19.696  1.00  0.00     0.166 HD
HETATM   31  N           1     -22.534  -8.913 -22.793  0.00  0.00    -0.360 N 
HETATM   32  H           1     -22.052  -9.380 -23.601  0.00  0.00     0.166 HD
HETATM   33  C           1     -23.622  -8.088 -22.868  0.00  0.00     0.114 A 
ENDBRANCH  26  27
ENDBRANCH  21  26
ENDBRANCH   2  21
TORSDOF 10
ENDMDL
MODEL 2
REMARK VINA RESULT:      -7.2      1.582      2.052
REMARK  10 active torsions:
REMARK  status: ('A' for Active; 'I' for Inactive)
REMARK    1  A    between atoms: C_1  and  C_2 
REMARK    2  A    between atoms: C_2  and  C_5 
REMARK    3  A    between atoms: C_2  and  N_22 
REMARK    4  A    between atoms: C_5  and  C_6 
REMARK    5  A    between atoms: C_6  and  C_30 
REMARK       I    between atoms: N_7  and  C_8 
REMARK       I    between atoms: C_8  and  N_9 
REMARK    6  A    between atoms: N_15  and  C_20 
REMARK    7  A    between atoms: C_18  and  C_19 
REMARK    8  A    between atoms: C_19  and  C_20 
REMARK    9  A    between atoms: C_20  and  C_21 
REMARK       I    between atoms: C_21  and  N_22 
REMARK   10  A    between atoms: N_25  and  C_30 
ROOT
HETATM    1  H           1     -27.624  -6.795 -19.725  0.00  0.00     0.163 HD
HETATM    2  C           1     -26.171  -6.380 -18.312  0.00  0.00     0.249 C 
HETATM    3  N           1     -27.454  -6.498 -18.772  0.00  0.00    -0.345 N 
HETATM    4  O           1     -25.967  -6.026 -17.175  0.00  0.00    -0.271 OA
ENDROOT
BRANCH   3   5
HETATM    5  C           1     -28.570  -6.198 -17.896  0.00  0.00     0.185 C 
BRANCH   5   6
HETATM    6  C           1     -29.542  -7.352 -17.907  0.00  0.00     0.196 C 
HETATM    7  O           1     -29.441  -8.263 -17.057  0.00  0.00    -0.646 OA
HETATM    8  O           1     -30.449  -7.397 -18.767  0.00  0.00    -0.646 OA
ENDBRANCH   5   6
BRANCH   5   9
HETATM    9  C           1     -29.273  -4.938 -18.382  0.00  0.00     0.038 C 
BRANCH   9  10
HETATM   10  C           1     -29.796  -4.153 -17.185  0.00  0.00     0.023 C 
BRANCH  10  11
HETATM   11  C           1     -31.232  -3.722 -17.447  0.00  0.00     0.138 C 
BRANCH  11  12
HETATM   12  N           1     -32.134  -4.433 -16.531  0.00  0.00    -0.227 N 
HETATM   13  C           1     -33.364  -4.133 -16.491  0.00  0.00     0.665 C 
HETATM   14  N           1     -33.816  -3.218 -17.240  0.00  0.00    -0.235 N 
HETATM   15  N           1     -34.161  -4.762 -15.680  0.00  0.00    -0.235 N 
HETATM   16  H           1     -33.171  -2.710 -17.895  0.00  0.00     0.174 HD
HETATM   17  H           1     -34.835  -2.968 -17.207  0.00  0.00     0.174 HD
HETATM   18  H           1     -33.788  -5.516 -15.060  0.00  0.00     0.174 HD
HETATM   19  H           1     -35.175  -4.514 -15.647  0.00  0.00     0.174 HD
HETATM   20  H           1     -31.759  -5.191 -15.909  0.00  0.00     0.177 HD
ENDBRANCH  11  12
ENDBRANCH  10  11
ENDBRANCH   9  10
ENDBRANCH   5   9
ENDBRANCH   3   5
BRANCH   2  21
HETATM   21  C           1     -25.009  -6.692 -19.224  0.00  0.00     0.280 C 
BRANCH  21  22
HETATM   22  N           1     -23.909  -7.332 -18.429  0.00  0.00    -0.066 N 
HETATM   23  H           1     -23.006  -6.844 -18.630  0.00  0.00     0.275 HD
HETATM   24  H           1     -23.828  -8.339 -18.696  0.00  0.00     0.275 HD
HETATM   25  H           1     -24.127  -7.258 -17.410  0.00  0.00     0.275 HD
ENDBRANCH  21  22
BRANCH  21  26
HETATM   26  C           1     -25.465  -7.647 -20.319  0.00  0.00     0.101 C 
BRANCH  26  27
HETATM   27  C           1     -24.311  -7.958 -21.222  0.00  0.00     0.028 A 
HETATM   28  N           1     -23.363  -8.916 -20.974  0.00  0.00    -0.355 N 
HETATM   29  C           1     -22.543  -8.866 -21.998  0.00  0.00     0.180 A 
ATOM     30  HN          1     -23.306  -9.537 -20.166  1.00  0.00     0.166 HD
HETATM   31  N           1     -22.925  -7.913 -22.899  0.00  0.00    -0.360 N 
HETATM   32  H           1     -22.438  -7.678 -23.799  0.00  0.00     0.166 HD
HETATM   33  C           1     -24.059  -7.322 -22.414  0.00  0.00     0.114 A 
ENDBRANCH  26  27
ENDBRANCH  21  26
ENDBRANCH   2  21
TORSDOF 10
ENDMDL
MODEL 3
REMARK VINA RESULT:      -7.0      1.728      2.018
REMARK  10 active torsions:
REMARK  status: ('A' for Active; 'I' for Inactive)
REMARK    1  A    between atoms: C_1  and  C_2 
REMARK    2  A    between atoms: C_2  and  C_5 
REMARK    3  A    between atoms: C_2  and  N_22 
REMARK    4  A    between atoms: C_5  and  C_6 
REMARK    5  A    between atoms: C_6  and  C_30 
REMARK       I    between atoms: N_7  and  C_8 
REMARK       I    between atoms: C_8  and  N_9 
REMARK    6  A    between atoms: N_15  and  C_20 
REMARK    7  A    between atoms: C_18  and  C_19 
REMARK    8  A    between atoms: C_19  and  C_20 
REMARK    9  A    between atoms: C_20  and  C_21 
REMARK       I    between atoms: C_21  and  N_22 
REMARK   10  A    between atoms: N_25  and  C_30 
ROOT
HETATM    1  H           1     -26.128  -6.565 -17.330  0.00  0.00     0.163 HD
HETATM    2  C           1     -26.501  -6.473 -19.363  0.00  0.00     0.249 C 
HETATM    3  N           1     -26.818  -6.344 -18.038  0.00  0.00    -0.345 N 
HETATM    4  O           1     -27.322  -6.211 -20.209  0.00  0.00    -0.271 OA
ENDROOT
BRANCH   3   5
HETATM    5  C           1     -28.139  -5.892 -17.649  0.00  0.00     0.185 C 
BRANCH   5   6
HETATM    6  C           1     -28.017  -4.636 -16.822  0.00  0.00     0.196 C 
HETATM    7  O           1     -27.400  -4.660 -15.735  0.00  0.00    -0.646 OA
HETATM    8  O           1     -28.533  -3.571 -17.224  0.00  0.00    -0.646 OA
ENDBRANCH   5   6
BRANCH   5   9
HETATM    9  C           1     -28.826  -6.975 -16.827  0.00  0.00     0.038 C 
BRANCH   9  10
HETATM   10  C           1     -30.196  -7.272 -17.422  0.00  0.00     0.023 C 
BRANCH  10  11
HETATM   11  C           1     -30.860  -5.968 -17.843  0.00  0.00     0.138 C 
BRANCH  11  12
HETATM   12  N           1     -32.006  -5.694 -16.964  0.00  0.00    -0.227 N 
HETATM   13  C           1     -32.391  -4.502 -16.777  0.00  0.00     0.665 C 
HETATM   14  N           1     -31.788  -3.546 -17.348  0.00  0.00    -0.235 N 
HETATM   15  N           1     -33.404  -4.259 -15.999  0.00  0.00    -0.235 N 
HETATM   16  H           1     -30.970  -3.742 -17.976  0.00  0.00     0.174 HD
HETATM   17  H           1     -32.106  -2.557 -17.193  0.00  0.00     0.174 HD
HETATM   18  H           1     -33.901  -5.049 -15.528  0.00  0.00     0.174 HD
HETATM   19  H           1     -33.721  -3.276 -15.845  0.00  0.00     0.174 HD
HETATM   20  H           1     -32.506  -6.486 -16.491  0.00  0.00     0.177 HD
ENDBRANCH  11  12
ENDBRANCH  10  11
ENDBRANCH   9  10
ENDBRANCH   5   9
ENDBRANCH   3   5
BRANCH   2  21
HETATM   21  C           1     -25.125  -6.944 -19.769  0.00  0.00     0.280 C 
BRANCH  21  22
HETATM   22  N           1     -24.382  -7.418 -18.555  0.00  0.00    -0.066 N 
HETATM   23  H           1     -23.548  -6.808 -18.397  0.00  0.00     0.275 HD
HETATM   24  H           1     -24.069  -8.405 -18.703  0.00  0.00     0.275 HD
HETATM   25  H           1     -25.010  -7.373 -17.722  0.00  0.00     0.275 HD
ENDBRANCH  21  22
BRANCH  21  26
HETATM   26  C           1     -25.252  -8.089 -20.765  0.00  0.00     0.101 C 
BRANCH  26  27
HETATM   27  C           1     -23.937  -8.305 -21.447  0.00  0.00     0.028 A 
HETATM   28  N           1     -22.923  -9.087 -20.955  0.00  0.00    -0.355 N 
HETATM   29  C           1     -21.962  -9.008 -21.847  0.00  0.00     0.180 A 
ATOM     30  HN          1     -22.916  -9.616 -20.084  1.00  0.00     0.166 HD
HETATM   31  N           1     -22.316  -8.208 -22.896  0.00  0.00    -0.360 N 
HETATM   32  H           1     -21.725  -7.985 -23.735  0.00  0.00     0.166 HD
HETATM   33  C           1     -23.582  -7.750 -22.653  0.00  0.00     0.114 A 
ENDBRANCH  26  27
ENDBRANCH  21  26
ENDBRANCH   2  21
TORSDOF 10
ENDMDL
MODEL 4
REMARK VINA RESULT:      -6.9      2.059      8.167
REMARK  10 active torsions:
REMARK  status: ('A' for Active; 'I' for Inactive)
REMARK    1  A    between atoms: C_1  and  C_2 
REMARK    2  A    between atoms: C_2  and  C_5 
REMARK    3  A    between atoms: C_2  and  N_22 
REMARK    4  A    between atoms: C_5  and  C_6 
REMARK    5  A    between atoms: C_6  and  C_30 
REMARK       I    between atoms: N_7  and  C_8 
REMARK       I    between atoms: C_8  and  N_9 
REMARK    6  A    between atoms: N_15  and  C_20 
REMARK    7  A    between atoms: C_18  and  C_19 
REMARK    8  A    between atoms: C_19  and  C_20 
REMARK    9  A    between atoms: C_20  and  C_21 
REMARK       I    between atoms: C_21  and  N_22 
REMARK   10  A    between atoms: N_25  and  C_30 
ROOT
HETATM    1  H           1     -26.928  -7.728 -18.450  0.00  0.00     0.163 HD
HETATM    2  C           1     -28.222  -6.115 -18.521  0.00  0.00     0.249 C 
HETATM    3  N           1     -27.333  -7.014 -19.044  0.00  0.00    -0.345 N 
HETATM    4  O           1     -28.706  -5.263 -19.228  0.00  0.00    -0.271 OA
ENDROOT
BRANCH   3   5
HETATM    5  C           1     -26.972  -6.946 -20.447  0.00  0.00     0.185 C 
BRANCH   5   6
HETATM    6  C           1     -27.213  -8.288 -21.093  0.00  0.00     0.196 C 
HETATM    7  O           1     -28.288  -8.894 -20.896  0.00  0.00    -0.646 OA
HETATM    8  O           1     -26.336  -8.794 -21.827  0.00  0.00    -0.646 OA
ENDBRANCH   5   6
BRANCH   5   9
HETATM    9  C           1     -25.500  -6.578 -20.575  0.00  0.00     0.038 C 
BRANCH   9  10
HETATM   10  C           1     -24.780  -6.901 -19.273  0.00  0.00     0.023 C 
BRANCH  10  11
HETATM   11  C           1     -23.514  -7.692 -19.574  0.00  0.00     0.138 C 
BRANCH  11  12
HETATM   12  N           1     -23.629  -8.314 -20.901  0.00  0.00    -0.227 N 
HETATM   13  C           1     -22.597  -8.766 -21.480  0.00  0.00     0.665 C 
HETATM   14  N           1     -21.466  -8.682 -20.916  0.00  0.00    -0.235 N 
HETATM   15  N           1     -22.698  -9.316 -22.654  0.00  0.00    -0.235 N 
HETATM   16  H           1     -21.385  -8.237 -19.968  0.00  0.00     0.174 HD
HETATM   17  H           1     -20.611  -9.056 -21.396  0.00  0.00     0.174 HD
HETATM   18  H           1     -23.631  -9.386 -23.119  0.00  0.00     0.174 HD
HETATM   19  H           1     -21.847  -9.689 -23.131  0.00  0.00     0.174 HD
HETATM   20  H           1     -24.565  -8.384 -21.369  0.00  0.00     0.177 HD
ENDBRANCH  11  12
ENDBRANCH  10  11
ENDBRANCH   9  10
ENDBRANCH   5   9
ENDBRANCH   3   5
BRANCH   2  21
HETATM   21  C           1     -28.598  -6.185 -17.061  0.00  0.00     0.280 C 
BRANCH  21  22
HETATM   22  N           1     -27.474  -6.806 -16.285  0.00  0.00    -0.066 N 
HETATM   23  H           1     -27.098  -7.626 -16.813  0.00  0.00     0.275 HD
HETATM   24  H           1     -27.827  -7.122 -15.354  0.00  0.00     0.275 HD
HETATM   25  H           1     -26.715  -6.101 -16.148  0.00  0.00     0.275 HD
ENDBRANCH  21  22
BRANCH  21  26
HETATM   26  C           1     -28.862  -4.781 -16.535  0.00  0.00     0.101 C 
BRANCH  26  27
HETATM   27  C           1     -30.292  -4.415 -16.786  0.00  0.00     0.028 A 
HETATM   28  N           1     -31.372  -5.117 -16.314  0.00  0.00    -0.355 N 
HETATM   29  C           1     -32.426  -4.469 -16.753  0.00  0.00     0.180 A 
ATOM     30  HN          1     -31.358  -5.962 -15.743  1.00  0.00     0.166 HD
HETATM   31  N           1     -32.070  -3.375 -17.490  0.00  0.00    -0.360 N 
HETATM   32  H           1     -32.725  -2.695 -17.949  0.00  0.00     0.166 HD
HETATM   33  C           1     -30.703  -3.327 -17.519  0.00  0.00     0.114 A 
ENDBRANCH  26  27
ENDBRANCH  21  26
ENDBRANCH   2  21
TORSDOF 10
ENDMDL
MODEL 5
REMARK VINA RESULT:      -6.8     12.883     15.169
REMARK  10 active torsions:
REMARK  status: ('A' for Active; 'I' for Inactive)
REMARK    1  A    between atoms: C_1  and  C_2 
REMARK    2  A    between atoms: C_2  and  C_5 
REMARK    3  A    between atoms: C_2  and  N_22 
REMARK    4  A    between atoms: C_5  and  C_6 
REMARK    5  A    between atoms: C_6  and  C_30 
REMARK       I    between atoms: N_7  and  C_8 
REMARK       I    between atoms: C_8  and  N_9 
REMARK    6  A    between atoms: N_15  and  C_20 
REMARK    7  A    between atoms: C_18  and  C_19 
REMARK    8  A    between atoms: C_19  and  C_20 
REMARK    9  A    between atoms: C_20  and  C_21 
REMARK       I    between atoms: C_21  and  N_22 
REMARK   10  A    between atoms: N_25  and  C_30 
ROOT
HETATM    1  H           1     -22.362  -6.065  -4.844  0.00  0.00     0.163 HD
HETATM    2  C           1     -21.115  -5.859  -6.482  0.00  0.00     0.249 C 
HETATM    3  N           1     -21.508  -6.387  -5.283  0.00  0.00    -0.345 N 
HETATM    4  O           1     -20.096  -6.243  -7.006  0.00  0.00    -0.271 OA
ENDROOT
BRANCH   3   5
HETATM    5  C           1     -20.702  -7.407  -4.640  0.00  0.00     0.185 C 
BRANCH   5   6
HETATM    6  C           1     -21.306  -8.765  -4.905  0.00  0.00     0.196 C 
HETATM    7  O           1     -21.970  -9.339  -4.015  0.00  0.00    -0.646 OA
HETATM    8  O           1     -21.141  -9.316  -6.015  0.00  0.00    -0.646 OA
ENDBRANCH   5   6
BRANCH   5   9
HETATM    9  C           1     -20.663  -7.154  -3.139  0.00  0.00     0.038 C 
BRANCH   9  10
HETATM   10  C           1     -21.826  -6.252  -2.745  0.00  0.00     0.023 C 
BRANCH  10  11
HETATM   11  C           1     -22.301  -6.617  -1.346  0.00  0.00     0.138 C 
BRANCH  11  12
HETATM   12  N           1     -22.062  -8.046  -1.104  0.00  0.00    -0.227 N 
HETATM   13  C           1     -22.688  -8.647  -0.180  0.00  0.00     0.665 C 
HETATM   14  N           1     -23.520  -8.014   0.535  0.00  0.00    -0.235 N 
HETATM   15  N           1     -22.477  -9.911   0.034  0.00  0.00    -0.235 N 
HETATM   16  H           1     -23.691  -6.992   0.361  0.00  0.00     0.174 HD
HETATM   17  H           1     -24.039  -8.510   1.300  0.00  0.00     0.174 HD
HETATM   18  H           1     -21.790 -10.433  -0.556  0.00  0.00     0.174 HD
HETATM   19  H           1     -22.993 -10.406   0.796  0.00  0.00     0.174 HD
HETATM   20  H           1     -21.373  -8.571  -1.696  0.00  0.00     0.177 HD
ENDBRANCH  11  12
ENDBRANCH  10  11
ENDBRANCH   9  10
ENDBRANCH   5   9
ENDBRANCH   3   5
BRANCH   2  21
HETATM   21  C           1     -21.953  -4.797  -7.151  0.00  0.00     0.280 C 
BRANCH  21  22
HETATM   22  N           1     -21.434  -3.441  -6.775  0.00  0.00    -0.066 N 
HETATM   23  H           1     -21.790  -2.731  -7.454  0.00  0.00     0.275 HD
HETATM   24  H           1     -20.389  -3.450  -6.795  0.00  0.00     0.275 HD
HETATM   25  H           1     -21.761  -3.198  -5.813  0.00  0.00     0.275 HD
ENDBRANCH  21  22
BRANCH  21  26
HETATM   26  C           1     -21.877  -4.966  -8.663  0.00  0.00     0.101 C 
BRANCH  26  27
HETATM   27  C           1     -23.111  -4.396  -9.291  0.00  0.00     0.028 A 
HETATM   28  N           1     -24.074  -3.690  -8.618  0.00  0.00    -0.355 N 
HETATM   29  C           1     -24.970  -3.375  -9.524  0.00  0.00     0.180 A 
ATOM     30  HN          1     -24.090  -3.458  -7.625  1.00  0.00     0.166 HD
HETATM   31  N           1     -24.624  -3.849 -10.757  0.00  0.00    -0.360 N 
HETATM   32  H           1     -25.171  -3.731 -11.645  0.00  0.00     0.166 HD
HETATM   33  C           1     -23.431  -4.507 -10.623  0.00  0.00     0.114 A 
ENDBRANCH  26  27
ENDBRANCH  21  26
ENDBRANCH   2  21
TORSDOF 10
ENDMDL
MODEL 6
REMARK VINA RESULT:      -6.8      1.438      7.983
REMARK  10 active torsions:
REMARK  status: ('A' for Active; 'I' for Inactive)
REMARK    1  A    between atoms: C_1  and  C_2 
REMARK    2  A    between atoms: C_2  and  C_5 
REMARK    3  A    between atoms: C_2  and  N_22 
REMARK    4  A    between atoms: C_5  and  C_6 
REMARK    5  A    between atoms: C_6  and  C_30 
REMARK       I    between atoms: N_7  and  C_8 
REMARK       I    between atoms: C_8  and  N_9 
REMARK    6  A    between atoms: N_15  and  C_20 
REMARK    7  A    between atoms: C_18  and  C_19 
REMARK    8  A    between atoms: C_19  and  C_20 
REMARK    9  A    between atoms: C_20  and  C_21 
REMARK       I    between atoms: C_21  and  N_22 
REMARK   10  A    between atoms: N_25  and  C_30 
ROOT
HETATM    1  H           1     -26.502  -4.791 -17.867  0.00  0.00     0.163 HD
HETATM    2  C           1     -28.034  -5.806 -16.915  0.00  0.00     0.249 C 
HETATM    3  N           1     -26.807  -5.688 -17.510  0.00  0.00    -0.345 N 
HETATM    4  O           1     -28.399  -6.875 -16.489  0.00  0.00    -0.271 OA
ENDROOT
BRANCH   3   5
HETATM    5  C           1     -25.944  -6.848 -17.629  0.00  0.00     0.185 C 
BRANCH   5   6
HETATM    6  C           1     -25.074  -6.955 -16.400  0.00  0.00     0.196 C 
HETATM    7  O           1     -24.914  -5.961 -15.658  0.00  0.00    -0.646 OA
HETATM    8  O           1     -24.514  -8.038 -16.124  0.00  0.00    -0.646 OA
ENDBRANCH   5   6
BRANCH   5   9
HETATM    9  C           1     -25.064  -6.702 -18.862  0.00  0.00     0.038 C 
BRANCH   9  10
HETATM   10  C           1     -25.914  -6.861 -20.116  0.00  0.00     0.023 C 
BRANCH  10  11
HETATM   11  C           1     -25.313  -7.941 -21.005  0.00  0.00     0.138 C 
BRANCH  11  12
HETATM   12  N           1     -23.953  -8.254 -20.544  0.00  0.00    -0.227 N 
HETATM   13  C           1     -23.049  -8.541 -21.385  0.00  0.00     0.665 C 
HETATM   14  N           1     -23.319  -8.559 -22.622  0.00  0.00    -0.235 N 
HETATM   15  N           1     -21.846  -8.818 -20.978  0.00  0.00    -0.235 N 
HETATM   16  H           1     -24.291  -8.335 -22.950  0.00  0.00     0.174 HD
HETATM   17  H           1     -22.571  -8.797 -23.319  0.00  0.00     0.174 HD
HETATM   18  H           1     -21.624  -8.804 -19.957  0.00  0.00     0.174 HD
HETATM   19  H           1     -21.101  -9.055 -21.671  0.00  0.00     0.174 HD
HETATM   20  H           1     -23.729  -8.240 -19.519  0.00  0.00     0.177 HD
ENDBRANCH  11  12
ENDBRANCH  10  11
ENDBRANCH   9  10
ENDBRANCH   5   9
ENDBRANCH   3   5
BRANCH   2  21
HETATM   21  C           1     -28.932  -4.599 -16.792  0.00  0.00     0.280 C 
BRANCH  21  22
HETATM   22  N           1     -28.095  -3.354 -16.761  0.00  0.00    -0.066 N 
HETATM   23  H           1     -27.744  -3.146 -17.723  0.00  0.00     0.275 HD
HETATM   24  H           1     -27.284  -3.497 -16.117  0.00  0.00     0.275 HD
HETATM   25  H           1     -28.673  -2.554 -16.419  0.00  0.00     0.275 HD
ENDBRANCH  21  22
BRANCH  21  26
HETATM   26  C           1     -29.877  -4.544 -17.984  0.00  0.00     0.101 C 
BRANCH  26  27
HETATM   27  C           1     -31.278  -4.327 -17.502  0.00  0.00     0.028 A 
HETATM   28  N           1     -31.990  -3.168 -17.670  0.00  0.00    -0.355 N 
HETATM   29  C           1     -33.156  -3.393 -17.109  0.00  0.00     0.180 A 
ATOM     30  HN          1     -31.681  -2.313 -18.132  1.00  0.00     0.166 HD
HETATM   31  N           1     -33.225  -4.653 -16.586  0.00  0.00    -0.360 N 
HETATM   32  H           1     -34.048  -5.074 -16.088  0.00  0.00     0.166 HD
HETATM   33  C           1     -32.027  -5.265 -16.831  0.00  0.00     0.114 A 
ENDBRANCH  26  27
ENDBRANCH  21  26
ENDBRANCH   2  21
TORSDOF 10
ENDMDL
MODEL 7
REMARK VINA RESULT:      -6.6      2.756      7.486
REMARK  10 active torsions:
REMARK  status: ('A' for Active; 'I' for Inactive)
REMARK    1  A    between atoms: C_1  and  C_2 
REMARK    2  A    between atoms: C_2  and  C_5 
REMARK    3  A    between atoms: C_2  and  N_22 
REMARK    4  A    between atoms: C_5  and  C_6 
REMARK    5  A    between atoms: C_6  and  C_30 
REMARK       I    between atoms: N_7  and  C_8 
REMARK       I    between atoms: C_8  and  N_9 
REMARK    6  A    between atoms: N_15  and  C_20 
REMARK    7  A    between atoms: C_18  and  C_19 
REMARK    8  A    between atoms: C_19  and  C_20 
REMARK    9  A    between atoms: C_20  and  C_21 
REMARK       I    between atoms: C_21  and  N_22 
REMARK   10  A    between atoms: N_25  and  C_30 
ROOT
HETATM    1  H           1     -27.387  -8.039 -18.820  0.00  0.00     0.163 HD
HETATM    2  C           1     -28.338  -6.202 -18.790  0.00  0.00     0.249 C 
HETATM    3  N           1     -27.514  -7.162 -19.311  0.00  0.00    -0.345 N 
HETATM    4  O           1     -28.491  -5.156 -19.373  0.00  0.00    -0.271 OA
ENDROOT
BRANCH   3   5
HETATM    5  C           1     -26.824  -6.924 -20.563  0.00  0.00     0.185 C 
BRANCH   5   6
HETATM    6  C           1     -26.713  -8.220 -21.329  0.00  0.00     0.196 C 
HETATM    7  O           1     -27.678  -9.014 -21.360  0.00  0.00    -0.646 OA
HETATM    8  O           1     -25.654  -8.499 -21.933  0.00  0.00    -0.646 OA
ENDBRANCH   5   6
BRANCH   5   9
HETATM    9  C           1     -25.430  -6.381 -20.280  0.00  0.00     0.038 C 
BRANCH   9  10
HETATM   10  C           1     -24.503  -7.530 -19.903  0.00  0.00     0.023 C 
BRANCH  10  11
HETATM   11  C           1     -23.659  -7.129 -18.702  0.00  0.00     0.138 C 
BRANCH  11  12
HETATM   12  N           1     -24.538  -6.794 -17.573  0.00  0.00    -0.227 N 
HETATM   13  C           1     -24.420  -7.410 -16.473  0.00  0.00     0.665 C 
HETATM   14  N           1     -23.543  -8.315 -16.346  0.00  0.00    -0.235 N 
HETATM   15  N           1     -25.198  -7.115 -15.474  0.00  0.00    -0.235 N 
HETATM   16  H           1     -22.914  -8.553 -17.152  0.00  0.00     0.174 HD
HETATM   17  H           1     -23.444  -8.826 -15.434  0.00  0.00     0.174 HD
HETATM   18  H           1     -25.922  -6.369 -15.580  0.00  0.00     0.174 HD
HETATM   19  H           1     -25.100  -7.623 -14.567  0.00  0.00     0.174 HD
HETATM   20  H           1     -25.266  -6.045 -17.678  0.00  0.00     0.177 HD
ENDBRANCH  11  12
ENDBRANCH  10  11
ENDBRANCH   9  10
ENDBRANCH   5   9
ENDBRANCH   3   5
BRANCH   2  21
HETATM   21  C           1     -29.057  -6.449 -17.485  0.00  0.00     0.280 C 
BRANCH  21  22
HETATM   22  N           1     -28.283  -7.442 -16.669  0.00  0.00    -0.066 N 
HETATM   23  H           1     -28.186  -8.334 -17.206  0.00  0.00     0.275 HD
HETATM   24  H           1     -28.790  -7.627 -15.774  0.00  0.00     0.275 HD
HETATM   25  H           1     -27.335  -7.056 -16.459  0.00  0.00     0.275 HD
ENDBRANCH  21  22
BRANCH  21  26
HETATM   26  C           1     -29.176  -5.142 -16.714  0.00  0.00     0.101 C 
BRANCH  26  27
HETATM   27  C           1     -30.557  -4.588 -16.880  0.00  0.00     0.028 A 
HETATM   28  N           1     -31.691  -5.150 -16.354  0.00  0.00    -0.355 N 
HETATM   29  C           1     -32.674  -4.363 -16.728  0.00  0.00     0.180 A 
ATOM     30  HN          1     -31.758  -5.998 -15.792  1.00  0.00     0.166 HD
HETATM   31  N           1     -32.219  -3.314 -17.474  0.00  0.00    -0.360 N 
HETATM   32  H           1     -32.803  -2.547 -17.890  0.00  0.00     0.166 HD
HETATM   33  C           1     -30.861  -3.445 -17.580  0.00  0.00     0.114 A 
ENDBRANCH  26  27
ENDBRANCH  21  26
ENDBRANCH   2  21
TORSDOF 10
ENDMDL
MODEL 8
REMARK VINA RESULT:      -6.4     13.251     15.624
REMARK  10 active torsions:
REMARK  status: ('A' for Active; 'I' for Inactive)
REMARK    1  A    between atoms: C_1  and  C_2 
REMARK    2  A    between atoms: C_2  and  C_5 
REMARK    3  A    between atoms: C_2  and  N_22 
REMARK    4  A    between atoms: C_5  and  C_6 
REMARK    5  A    between atoms: C_6  and  C_30 
REMARK       I    between atoms: N_7  and  C_8 
REMARK       I    between atoms: C_8  and  N_9 
REMARK    6  A    between atoms: N_15  and  C_20 
REMARK    7  A    between atoms: C_18  and  C_19 
REMARK    8  A    between atoms: C_19  and  C_20 
REMARK    9  A    between atoms: C_20  and  C_21 
REMARK       I    between atoms: C_21  and  N_22 
REMARK   10  A    between atoms: N_25  and  C_30 
ROOT
HETATM    1  H           1     -20.053  -6.426  -4.989  0.00  0.00     0.163 HD
HETATM    2  C           1     -21.883  -5.739  -5.668  0.00  0.00     0.249 C 
HETATM    3  N           1     -21.058  -6.518  -4.903  0.00  0.00    -0.345 N 
HETATM    4  O           1     -23.082  -5.847  -5.568  0.00  0.00    -0.271 OA
ENDROOT
BRANCH   3   5
HETATM    5  C           1     -21.623  -7.476  -3.973  0.00  0.00     0.185 C 
BRANCH   5   6
HETATM    6  C           1     -21.579  -6.905  -2.576  0.00  0.00     0.196 C 
HETATM    7  O           1     -20.752  -7.342  -1.747  0.00  0.00    -0.646 OA
HETATM    8  O           1     -22.370  -5.994  -2.249  0.00  0.00    -0.646 OA
ENDBRANCH   5   6
BRANCH   5   9
HETATM    9  C           1     -20.817  -8.767  -4.018  0.00  0.00     0.038 C 
BRANCH   9  10
HETATM   10  C           1     -21.764  -9.955  -4.120  0.00  0.00     0.023 C 
BRANCH  10  11
HETATM   11  C           1     -21.615 -10.831  -2.884  0.00  0.00     0.138 C 
BRANCH  11  12
HETATM   12  N           1     -22.779 -10.644  -2.006  0.00  0.00    -0.227 N 
HETATM   13  C           1     -22.622 -10.197  -0.831  0.00  0.00     0.665 C 
HETATM   14  N           1     -21.461  -9.913  -0.413  0.00  0.00    -0.235 N 
HETATM   15  N           1     -23.652 -10.032  -0.055  0.00  0.00    -0.235 N 
HETATM   16  H           1     -20.630 -10.046  -1.040  0.00  0.00     0.174 HD
HETATM   17  H           1     -21.331  -9.543   0.561  0.00  0.00     0.174 HD
HETATM   18  H           1     -24.609 -10.268  -0.400  0.00  0.00     0.174 HD
HETATM   19  H           1     -23.522  -9.664   0.914  0.00  0.00     0.174 HD
HETATM   20  H           1     -23.741 -10.880  -2.353  0.00  0.00     0.177 HD
ENDBRANCH  11  12
ENDBRANCH  10  11
ENDBRANCH   9  10
ENDBRANCH   5   9
ENDBRANCH   3   5
BRANCH   2  21
HETATM   21  C           1     -21.295  -4.742  -6.638  0.00  0.00     0.280 C 
BRANCH  21  22
HETATM   22  N           1     -19.851  -4.511  -6.303  0.00  0.00    -0.066 N 
HETATM   23  H           1     -19.783  -3.909  -5.452  0.00  0.00     0.275 HD
HETATM   24  H           1     -19.380  -4.036  -7.106  0.00  0.00     0.275 HD
HETATM   25  H           1     -19.385  -5.429  -6.120  0.00  0.00     0.275 HD
ENDBRANCH  21  22
BRANCH  21  26
HETATM   26  C           1     -21.406  -5.285  -8.056  0.00  0.00     0.101 C 
BRANCH  26  27
HETATM   27  C           1     -22.460  -4.527  -8.800  0.00  0.00     0.028 A 
HETATM   28  N           1     -23.638  -4.086  -8.252  0.00  0.00    -0.355 N 
HETATM   29  C           1     -24.267  -3.474  -9.229  0.00  0.00     0.180 A 
ATOM     30  HN          1     -23.956  -4.206  -7.291  1.00  0.00     0.166 HD
HETATM   31  N           1     -23.543  -3.503 -10.387  0.00  0.00    -0.360 N 
HETATM   32  H           1     -23.826  -3.085 -11.308  0.00  0.00     0.166 HD
HETATM   33  C           1     -22.380  -4.174 -10.127  0.00  0.00     0.114 A 
ENDBRANCH  26  27
ENDBRANCH  21  26
ENDBRANCH   2  21
TORSDOF 10
ENDMDL
MODEL 9
REMARK VINA RESULT:      -6.3     13.127     15.181
REMARK  10 active torsions:
REMARK  status: ('A' for Active; 'I' for Inactive)
REMARK    1  A    between atoms: C_1  and  C_2 
REMARK    2  A    between atoms: C_2  and  C_5 
REMARK    3  A    between atoms: C_2  and  N_22 
REMARK    4  A    between atoms: C_5  and  C_6 
REMARK    5  A    between atoms: C_6  and  C_30 
REMARK       I    between atoms: N_7  and  C_8 
REMARK       I    between atoms: C_8  and  N_9 
REMARK    6  A    between atoms: N_15  and  C_20 
REMARK    7  A    between atoms: C_18  and  C_19 
REMARK    8  A    between atoms: C_19  and  C_20 
REMARK    9  A    between atoms: C_20  and  C_21 
REMARK       I    between atoms: C_21  and  N_22 
REMARK   10  A    between atoms: N_25  and  C_30 
ROOT
HETATM    1  H           1     -22.361  -6.517  -4.890  0.00  0.00     0.163 HD
HETATM    2  C           1     -21.039  -6.283  -6.466  0.00  0.00     0.249 C 
HETATM    3  N           1     -21.463  -6.793  -5.268  0.00  0.00    -0.345 N 
HETATM    4  O           1     -19.968  -6.611  -6.917  0.00  0.00    -0.271 OA
ENDROOT
BRANCH   3   5
HETATM    5  C           1     -20.625  -7.728  -4.541  0.00  0.00     0.185 C 
BRANCH   5   6
HETATM    6  C           1     -21.182  -9.123  -4.692  0.00  0.00     0.196 C 
HETATM    7  O           1     -21.768  -9.669  -3.733  0.00  0.00    -0.646 OA
HETATM    8  O           1     -21.055  -9.731  -5.777  0.00  0.00    -0.646 OA
ENDBRANCH   5   6
BRANCH   5   9
HETATM    9  C           1     -20.601  -7.348  -3.067  0.00  0.00     0.038 C 
BRANCH   9  10
HETATM   10  C           1     -21.749  -6.392  -2.769  0.00  0.00     0.023 C 
BRANCH  10  11
HETATM   11  C           1     -22.325  -6.703  -1.394  0.00  0.00     0.138 C 
BRANCH  11  12
HETATM   12  N           1     -22.048  -8.105  -1.051  0.00  0.00    -0.227 N 
HETATM   13  C           1     -22.674  -8.661  -0.101  0.00  0.00     0.665 C 
HETATM   14  N           1     -23.540  -8.009   0.553  0.00  0.00    -0.235 N 
HETATM   15  N           1     -22.429  -9.901   0.203  0.00  0.00    -0.235 N 
HETATM   16  H           1     -23.738  -7.007   0.308  0.00  0.00     0.174 HD
HETATM   17  H           1     -24.060  -8.469   1.341  0.00  0.00     0.174 HD
HETATM   18  H           1     -21.714 -10.439  -0.337  0.00  0.00     0.174 HD
HETATM   19  H           1     -22.946 -10.359   0.986  0.00  0.00     0.174 HD
HETATM   20  H           1     -21.330  -8.646  -1.593  0.00  0.00     0.177 HD
ENDBRANCH  11  12
ENDBRANCH  10  11
ENDBRANCH   9  10
ENDBRANCH   5   9
ENDBRANCH   3   5
BRANCH   2  21
HETATM   21  C           1     -21.910  -5.310  -7.223  0.00  0.00     0.280 C 
BRANCH  21  22
HETATM   22  N           1     -22.984  -4.789  -6.313  0.00  0.00    -0.066 N 
HETATM   23  H           1     -23.178  -3.788  -6.542  0.00  0.00     0.275 HD
HETATM   24  H           1     -22.666  -4.865  -5.321  0.00  0.00     0.275 HD
HETATM   25  H           1     -23.854  -5.352  -6.444  0.00  0.00     0.275 HD
ENDBRANCH  21  22
BRANCH  21  26
HETATM   26  C           1     -21.061  -4.148  -7.721  0.00  0.00     0.101 C 
BRANCH  26  27
HETATM   27  C           1     -21.166  -4.057  -9.212  0.00  0.00     0.028 A 
HETATM   28  N           1     -20.146  -4.342 -10.084  0.00  0.00    -0.355 N 
HETATM   29  C           1     -20.648  -4.139 -11.281  0.00  0.00     0.180 A 
ATOM     30  HN          1     -19.201  -4.647  -9.853  1.00  0.00     0.166 HD
HETATM   31  N           1     -21.951  -3.735 -11.216  0.00  0.00    -0.360 N 
HETATM   32  H           1     -22.573  -3.509 -12.031  0.00  0.00     0.166 HD
HETATM   33  C           1     -22.297  -3.678  -9.894  0.00  0.00     0.114 A 
ENDBRANCH  26  27
ENDBRANCH  21  26
ENDBRANCH   2  21
TORSDOF 10
ENDMDL
