MODEL 1
REMARK VINA RESULT:      -5.4      0.000      0.000
REMARK  5 active torsions:
REMARK  status: ('A' for Active; 'I' for Inactive)
REMARK       I    between atoms: N_1  and  C_2 
REMARK    1  A    between atoms: C_2  and  C_3 
REMARK    2  A    between atoms: C_3  and  C_4 
REMARK    3  A    between atoms: C_3  and  N_6 
REMARK    4  A    between atoms: C_4  and  Se_5 
REMARK    5  A    between atoms: C_16  and  C_18 
ROOT
HETATM    1  N           1     -21.527  -4.427  -9.329  0.00  0.00    -0.336 N 
HETATM    2  C           1     -21.628  -4.615  -7.977  0.00  0.00     0.251 C 
HETATM    3  O           1     -22.558  -4.143  -7.369  0.00  0.00    -0.271 OA
HETATM    4  C           1     -20.480  -4.919 -10.220  0.00  0.00     0.127 C 
HETATM    5  C           1     -20.232  -3.758 -11.166  0.00  0.00     0.022 C 
HETATM    6  C           1     -21.521  -2.945 -11.146  0.00  0.00     0.038 C 
HETATM    7  C           1     -22.443  -3.689 -10.195  0.00  0.00     0.188 C 
ENDROOT
BRANCH   2   8
HETATM    8  C           1     -20.576  -5.413  -7.246  0.00  0.00     0.275 C 
BRANCH   8   9
HETATM    9  C           1     -21.243  -6.534  -6.461  0.00  0.00     0.045 C 
BRANCH   9  10
HETATM   10 Se           1     -21.225  -6.098  -4.562  0.00  0.00     0.000 Se
HETATM   11  H           1     -20.835  -4.693  -4.770  0.00  0.00     0.000 HD
ENDBRANCH   9  10
ENDBRANCH   8   9
BRANCH   8  12
HETATM   12  N           1     -19.834  -4.515  -6.302  0.00  0.00    -0.067 N 
HETATM   13  H           1     -19.969  -3.518  -6.587  0.00  0.00     0.275 HD
HETATM   14  H           1     -20.200  -4.651  -5.332  0.00  0.00     0.275 HD
HETATM   15  H           1     -18.816  -4.749  -6.326  0.00  0.00     0.275 HD
ENDBRANCH   8  12
ENDBRANCH   2   8
BRANCH   7  16
HETATM   16  C           1     -23.346  -4.634 -10.951  0.00  0.00     0.196 C 
HETATM   17  O           1     -24.023  -5.482 -10.330  0.00  0.00    -0.646 OA
HETATM   18  O           1     -23.417  -4.568 -12.197  0.00  0.00    -0.646 OA
ENDBRANCH   7  16
TORSDOF 5
ENDMDL
MODEL 2
REMARK VINA RESULT:      -5.1     13.469     15.019
REMARK  5 active torsions:
REMARK  status: ('A' for Active; 'I' for Inactive)
REMARK       I    between atoms: N_1  and  C_2 
REMARK    1  A    between atoms: C_2  and  C_3 
REMARK    2  A    between atoms: C_3  and  C_4 
REMARK    3  A    between atoms: C_3  and  N_6 
REMARK    4  A    between atoms: C_4  and  Se_5 
REMARK    5  A    between atoms: C_16  and  C_18 
ROOT
HETATM    1  N           1     -35.760  -1.067 -13.252  0.00  0.00    -0.336 N 
HETATM    2  C           1     -34.932  -2.115 -12.950  0.00  0.00     0.251 C 
HETATM    3  O           1     -34.511  -2.824 -13.831  0.00  0.00    -0.271 OA
HETATM    4  C           1     -36.359  -0.112 -12.323  0.00  0.00     0.127 C 
HETATM    5  C           1     -37.770   0.074 -12.853  0.00  0.00     0.022 C 
HETATM    6  C           1     -37.692  -0.293 -14.331  0.00  0.00     0.038 C 
HETATM    7  C           1     -36.238  -0.661 -14.571  0.00  0.00     0.188 C 
ENDROOT
BRANCH   2   8
HETATM    8  C           1     -34.544  -2.381 -11.517  0.00  0.00     0.275 C 
BRANCH   8   9
HETATM    9  C           1     -33.237  -3.162 -11.480  0.00  0.00     0.045 C 
BRANCH   9  10
HETATM   10 Se           1     -33.613  -5.043 -11.134  0.00  0.00     0.000 Se
HETATM   11  H           1     -34.419  -4.780  -9.930  0.00  0.00     0.000 HD
ENDBRANCH   9  10
ENDBRANCH   8   9
BRANCH   8  12
HETATM   12  N           1     -35.622  -3.181 -10.847  0.00  0.00    -0.067 N 
HETATM   13  H           1     -35.698  -2.895  -9.845  0.00  0.00     0.275 HD
HETATM   14  H           1     -36.533  -3.007 -11.329  0.00  0.00     0.275 HD
HETATM   15  H           1     -35.387  -4.198 -10.903  0.00  0.00     0.275 HD
ENDBRANCH   8  12
ENDBRANCH   2   8
BRANCH   7  16
HETATM   16  C           1     -35.459   0.526 -15.082  0.00  0.00     0.196 C 
HETATM   17  O           1     -34.256   0.665 -14.771  0.00  0.00    -0.646 OA
HETATM   18  O           1     -36.017   1.369 -15.817  0.00  0.00    -0.646 OA
ENDBRANCH   7  16
TORSDOF 5
ENDMDL
MODEL 3
REMARK VINA RESULT:      -4.4     10.659     11.937
REMARK  5 active torsions:
REMARK  status: ('A' for Active; 'I' for Inactive)
REMARK       I    between atoms: N_1  and  C_2 
REMARK    1  A    between atoms: C_2  and  C_3 
REMARK    2  A    between atoms: C_3  and  C_4 
REMARK    3  A    between atoms: C_3  and  N_6 
REMARK    4  A    between atoms: C_4  and  Se_5 
REMARK    5  A    between atoms: C_16  and  C_18 
ROOT
HETATM    1  N           1     -27.350  -6.410 -18.171  0.00  0.00    -0.336 N 
HETATM    2  C           1     -26.799  -6.691 -19.392  0.00  0.00     0.251 C 
HETATM    3  O           1     -27.490  -7.124 -20.282  0.00  0.00    -0.271 OA
HETATM    4  C           1     -26.672  -5.885 -16.989  0.00  0.00     0.127 C 
HETATM    5  C           1     -27.287  -6.664 -15.840  0.00  0.00     0.022 C 
HETATM    6  C           1     -28.648  -7.121 -16.353  0.00  0.00     0.038 C 
HETATM    7  C           1     -28.744  -6.571 -17.766  0.00  0.00     0.188 C 
ENDROOT
BRANCH   2   8
HETATM    8  C           1     -25.326  -6.458 -19.627  0.00  0.00     0.275 C 
BRANCH   8   9
HETATM    9  C           1     -25.060  -6.351 -21.122  0.00  0.00     0.045 C 
BRANCH   9  10
HETATM   10 Se           1     -24.201  -7.985 -21.748  0.00  0.00     0.000 Se
HETATM   11  H           1     -24.385  -8.706 -20.477  0.00  0.00     0.000 HD
ENDBRANCH   9  10
ENDBRANCH   8   9
BRANCH   8  12
HETATM   12  N           1     -24.542  -7.604 -19.061  0.00  0.00    -0.067 N 
HETATM   13  H           1     -24.144  -7.331 -18.134  0.00  0.00     0.275 HD
HETATM   14  H           1     -25.171  -8.430 -18.940  0.00  0.00     0.275 HD
HETATM   15  H           1     -23.765  -7.851 -19.715  0.00  0.00     0.275 HD
ENDBRANCH   8  12
ENDBRANCH   2   8
BRANCH   7  16
HETATM   16  C           1     -29.464  -5.245 -17.780  0.00  0.00     0.196 C 
HETATM   17  O           1     -30.156  -4.900 -16.798  0.00  0.00    -0.646 OA
HETATM   18  O           1     -29.367  -4.492 -18.772  0.00  0.00    -0.646 OA
ENDBRANCH   7  16
TORSDOF 5
ENDMDL
MODEL 4
REMARK VINA RESULT:      -4.4     14.574     16.047
REMARK  5 active torsions:
REMARK  status: ('A' for Active; 'I' for Inactive)
REMARK       I    between atoms: N_1  and  C_2 
REMARK    1  A    between atoms: C_2  and  C_3 
REMARK    2  A    between atoms: C_3  and  C_4 
REMARK    3  A    between atoms: C_3  and  N_6 
REMARK    4  A    between atoms: C_4  and  Se_5 
REMARK    5  A    between atoms: C_16  and  C_18 
ROOT
HETATM    1  N           1     -35.900  -1.039 -12.243  0.00  0.00    -0.336 N 
HETATM    2  C           1     -36.386  -0.701 -13.478  0.00  0.00     0.251 C 
HETATM    3  O           1     -37.577  -0.676 -13.672  0.00  0.00    -0.271 OA
HETATM    4  C           1     -34.502  -1.121 -11.830  0.00  0.00     0.127 C 
HETATM    5  C           1     -34.452  -2.361 -10.956  0.00  0.00     0.022 C 
HETATM    6  C           1     -35.878  -2.549 -10.450  0.00  0.00     0.038 C 
HETATM    7  C           1     -36.666  -1.399 -11.054  0.00  0.00     0.188 C 
ENDROOT
BRANCH   2   8
HETATM    8  C           1     -35.433  -0.356 -14.595  0.00  0.00     0.275 C 
BRANCH   8   9
HETATM    9  C           1     -35.081   1.124 -14.526  0.00  0.00     0.045 C 
BRANCH   9  10
HETATM   10 Se           1     -36.031   2.083 -15.932  0.00  0.00     0.000 Se
HETATM   11  H           1     -37.364   1.840 -15.358  0.00  0.00     0.000 HD
ENDBRANCH   9  10
ENDBRANCH   8   9
BRANCH   8  12
HETATM   12  N           1     -36.081  -0.654 -15.915  0.00  0.00    -0.067 N 
HETATM   13  H           1     -35.861  -1.636 -16.198  0.00  0.00     0.275 HD
HETATM   14  H           1     -37.116  -0.541 -15.827  0.00  0.00     0.275 HD
HETATM   15  H           1     -35.718   0.007 -16.639  0.00  0.00     0.275 HD
ENDBRANCH   8  12
ENDBRANCH   2   8
BRANCH   7  16
HETATM   16  C           1     -36.745  -0.238 -10.094  0.00  0.00     0.196 C 
HETATM   17  O           1     -36.184  -0.309  -8.979  0.00  0.00    -0.646 OA
HETATM   18  O           1     -37.370   0.796 -10.414  0.00  0.00    -0.646 OA
ENDBRANCH   7  16
TORSDOF 5
ENDMDL
MODEL 5
REMARK VINA RESULT:      -4.3      8.659     10.346
REMARK  5 active torsions:
REMARK  status: ('A' for Active; 'I' for Inactive)
REMARK       I    between atoms: N_1  and  C_2 
REMARK    1  A    between atoms: C_2  and  C_3 
REMARK    2  A    between atoms: C_3  and  C_4 
REMARK    3  A    between atoms: C_3  and  N_6 
REMARK    4  A    between atoms: C_4  and  Se_5 
REMARK    5  A    between atoms: C_16  and  C_18 
ROOT
HETATM    1  N           1     -21.418  -9.711  -0.809  0.00  0.00    -0.336 N 
HETATM    2  C           1     -21.243 -10.684   0.138  0.00  0.00     0.251 C 
HETATM    3  O           1     -20.805 -10.398   1.226  0.00  0.00    -0.271 OA
HETATM    4  C           1     -21.931  -9.872  -2.166  0.00  0.00     0.127 C 
HETATM    5  C           1     -21.050  -8.960  -3.000  0.00  0.00     0.022 C 
HETATM    6  C           1     -20.518  -7.918  -2.022  0.00  0.00     0.038 C 
HETATM    7  C           1     -21.131  -8.285  -0.681  0.00  0.00     0.188 C 
ENDROOT
BRANCH   2   8
HETATM    8  C           1     -21.598 -12.116  -0.178  0.00  0.00     0.275 C 
BRANCH   8   9
HETATM    9  C           1     -22.956 -12.448   0.425  0.00  0.00     0.045 C 
BRANCH   9  10
HETATM   10 Se           1     -22.749 -13.860   1.754  0.00  0.00     0.000 Se
HETATM   11  H           1     -23.394 -13.096   2.835  0.00  0.00     0.000 HD
ENDBRANCH   9  10
ENDBRANCH   8   9
BRANCH   8  12
HETATM   12  N           1     -20.558 -13.029   0.400  0.00  0.00    -0.067 N 
HETATM   13  H           1     -20.460 -13.876  -0.206  0.00  0.00     0.275 HD
HETATM   14  H           1     -19.642 -12.527   0.447  0.00  0.00     0.275 HD
HETATM   15  H           1     -20.846 -13.320   1.361  0.00  0.00     0.275 HD
ENDBRANCH   8  12
ENDBRANCH   2   8
BRANCH   7  16
HETATM   16  C           1     -22.397  -7.502  -0.437  0.00  0.00     0.196 C 
HETATM   17  O           1     -23.205  -7.878   0.440  0.00  0.00    -0.646 OA
HETATM   18  O           1     -22.638  -6.477  -1.110  0.00  0.00    -0.646 OA
ENDBRANCH   7  16
TORSDOF 5
ENDMDL
MODEL 6
REMARK VINA RESULT:      -4.3     10.220     11.643
REMARK  5 active torsions:
REMARK  status: ('A' for Active; 'I' for Inactive)
REMARK       I    between atoms: N_1  and  C_2 
REMARK    1  A    between atoms: C_2  and  C_3 
REMARK    2  A    between atoms: C_3  and  C_4 
REMARK    3  A    between atoms: C_3  and  N_6 
REMARK    4  A    between atoms: C_4  and  Se_5 
REMARK    5  A    between atoms: C_16  and  C_18 
ROOT
HETATM    1  N           1     -28.437  -5.654 -16.950  0.00  0.00    -0.336 N 
HETATM    2  C           1     -29.252  -4.580 -17.190  0.00  0.00     0.251 C 
HETATM    3  O           1     -28.771  -3.497 -17.420  0.00  0.00    -0.271 OA
HETATM    4  C           1     -28.839  -7.027 -16.657  0.00  0.00     0.127 C 
HETATM    5  C           1     -27.869  -7.468 -15.576  0.00  0.00     0.022 C 
HETATM    6  C           1     -26.646  -6.575 -15.751  0.00  0.00     0.038 C 
HETATM    7  C           1     -26.977  -5.676 -16.930  0.00  0.00     0.188 C 
ENDROOT
BRANCH   2   8
HETATM    8  C           1     -30.751  -4.751 -17.169  0.00  0.00     0.275 C 
BRANCH   8   9
HETATM    9  C           1     -31.414  -3.490 -17.707  0.00  0.00     0.045 C 
BRANCH   9  10
HETATM   10 Se           1     -33.288  -3.464 -17.173  0.00  0.00     0.000 Se
HETATM   11  H           1     -33.756  -2.847 -18.425  0.00  0.00     0.000 HD
ENDBRANCH   9  10
ENDBRANCH   8   9
BRANCH   8  12
HETATM   12  N           1     -31.207  -4.994 -15.761  0.00  0.00    -0.067 N 
HETATM   13  H           1     -31.695  -4.143 -15.400  0.00  0.00     0.275 HD
HETATM   14  H           1     -31.864  -5.806 -15.743  0.00  0.00     0.275 HD
HETATM   15  H           1     -30.379  -5.203 -15.158  0.00  0.00     0.275 HD
ENDBRANCH   8  12
ENDBRANCH   2   8
BRANCH   7  16
HETATM   16  C           1     -26.431  -6.250 -18.214  0.00  0.00     0.196 C 
HETATM   17  O           1     -25.242  -6.629 -18.273  0.00  0.00    -0.646 OA
HETATM   18  O           1     -27.169  -6.348 -19.219  0.00  0.00    -0.646 OA
ENDBRANCH   7  16
TORSDOF 5
ENDMDL
MODEL 7
REMARK VINA RESULT:      -4.3      8.177     10.319
REMARK  5 active torsions:
REMARK  status: ('A' for Active; 'I' for Inactive)
REMARK       I    between atoms: N_1  and  C_2 
REMARK    1  A    between atoms: C_2  and  C_3 
REMARK    2  A    between atoms: C_3  and  C_4 
REMARK    3  A    between atoms: C_3  and  N_6 
REMARK    4  A    between atoms: C_4  and  Se_5 
REMARK    5  A    between atoms: C_16  and  C_18 
ROOT
HETATM    1  N           1     -22.416  -9.488  -0.860  0.00  0.00    -0.336 N 
HETATM    2  C           1     -22.150  -8.145  -0.854  0.00  0.00     0.251 C 
HETATM    3  O           1     -22.085  -7.547   0.193  0.00  0.00    -0.271 OA
HETATM    4  C           1     -22.530 -10.366  -2.021  0.00  0.00     0.127 C 
HETATM    5  C           1     -23.702 -11.270  -1.679  0.00  0.00     0.022 C 
HETATM    6  C           1     -23.783 -11.257  -0.157  0.00  0.00     0.038 C 
HETATM    7  C           1     -22.648 -10.354   0.293  0.00  0.00     0.188 C 
ENDROOT
BRANCH   2   8
HETATM    8  C           1     -21.937  -7.412  -2.156  0.00  0.00     0.275 C 
BRANCH   8   9
HETATM    9  C           1     -20.472  -7.510  -2.560  0.00  0.00     0.045 C 
BRANCH   9  10
HETATM   10 Se           1     -20.345  -8.197  -4.379  0.00  0.00     0.000 Se
HETATM   11  H           1     -21.085  -9.436  -4.087  0.00  0.00     0.000 HD
ENDBRANCH   9  10
ENDBRANCH   8   9
BRANCH   8  12
HETATM   12  N           1     -22.313  -5.970  -1.985  0.00  0.00    -0.067 N 
HETATM   13  H           1     -21.572  -5.364  -2.405  0.00  0.00     0.275 HD
HETATM   14  H           1     -23.224  -5.790  -2.464  0.00  0.00     0.275 HD
HETATM   15  H           1     -22.405  -5.753  -0.967  0.00  0.00     0.275 HD
ENDBRANCH   8  12
ENDBRANCH   2   8
BRANCH   7  16
HETATM   16  C           1     -21.414 -11.160   0.615  0.00  0.00     0.196 C 
HETATM   17  O           1     -21.497 -12.399   0.760  0.00  0.00    -0.646 OA
HETATM   18  O           1     -20.309 -10.590   0.737  0.00  0.00    -0.646 OA
ENDBRANCH   7  16
TORSDOF 5
ENDMDL
MODEL 8
REMARK VINA RESULT:      -4.2     10.160     11.188
REMARK  5 active torsions:
REMARK  status: ('A' for Active; 'I' for Inactive)
REMARK       I    between atoms: N_1  and  C_2 
REMARK    1  A    between atoms: C_2  and  C_3 
REMARK    2  A    between atoms: C_3  and  C_4 
REMARK    3  A    between atoms: C_3  and  N_6 
REMARK    4  A    between atoms: C_4  and  Se_5 
REMARK    5  A    between atoms: C_16  and  C_18 
ROOT
HETATM    1  N           1     -28.570  -5.359 -17.064  0.00  0.00    -0.336 N 
HETATM    2  C           1     -27.659  -5.862 -17.954  0.00  0.00     0.251 C 
HETATM    3  O           1     -27.974  -6.038 -19.106  0.00  0.00    -0.271 OA
HETATM    4  C           1     -28.367  -5.083 -15.644  0.00  0.00     0.127 C 
HETATM    5  C           1     -29.660  -5.544 -14.995  0.00  0.00     0.022 C 
HETATM    6  C           1     -30.705  -5.484 -16.104  0.00  0.00     0.038 C 
HETATM    7  C           1     -29.956  -4.983 -17.327  0.00  0.00     0.188 C 
ENDROOT
BRANCH   2   8
HETATM    8  C           1     -26.261  -6.195 -17.495  0.00  0.00     0.275 C 
BRANCH   8   9
HETATM    9  C           1     -25.455  -6.734 -18.669  0.00  0.00     0.045 C 
BRANCH   9  10
HETATM   10 Se           1     -23.719  -7.353 -18.036  0.00  0.00     0.000 Se
HETATM   11  H           1     -24.221  -8.659 -17.580  0.00  0.00     0.000 HD
ENDBRANCH   9  10
ENDBRANCH   8   9
BRANCH   8  12
HETATM   12  N           1     -26.323  -7.233 -16.414  0.00  0.00    -0.067 N 
HETATM   13  H           1     -26.830  -6.845 -15.586  0.00  0.00     0.275 HD
HETATM   14  H           1     -26.830  -8.075 -16.769  0.00  0.00     0.275 HD
HETATM   15  H           1     -25.353  -7.503 -16.134  0.00  0.00     0.275 HD
ENDBRANCH   8  12
ENDBRANCH   2   8
BRANCH   7  16
HETATM   16  C           1     -30.090  -3.486 -17.463  0.00  0.00     0.196 C 
HETATM   17  O           1     -29.067  -2.767 -17.490  0.00  0.00    -0.646 OA
HETATM   18  O           1     -31.223  -2.965 -17.550  0.00  0.00    -0.646 OA
ENDBRANCH   7  16
TORSDOF 5
ENDMDL
MODEL 9
REMARK VINA RESULT:      -4.1      8.132      9.583
REMARK  5 active torsions:
REMARK  status: ('A' for Active; 'I' for Inactive)
REMARK       I    between atoms: N_1  and  C_2 
REMARK    1  A    between atoms: C_2  and  C_3 
REMARK    2  A    between atoms: C_3  and  C_4 
REMARK    3  A    between atoms: C_3  and  N_6 
REMARK    4  A    between atoms: C_4  and  Se_5 
REMARK    5  A    between atoms: C_16  and  C_18 
ROOT
HETATM    1  N           1     -21.119  -9.174  -1.240  0.00  0.00    -0.336 N 
HETATM    2  C           1     -19.989  -9.711  -1.797  0.00  0.00     0.251 C 
HETATM    3  O           1     -19.536 -10.744  -1.367  0.00  0.00    -0.271 OA
HETATM    4  C           1     -21.803  -7.943  -1.626  0.00  0.00     0.127 C 
HETATM    5  C           1     -22.200  -7.317  -0.301  0.00  0.00     0.022 C 
HETATM    6  C           1     -22.260  -8.477   0.685  0.00  0.00     0.038 C 
HETATM    7  C           1     -21.903  -9.708  -0.129  0.00  0.00     0.188 C 
ENDROOT
BRANCH   2   8
HETATM    8  C           1     -19.311  -9.011  -2.948  0.00  0.00     0.275 C 
BRANCH   8   9
HETATM    9  C           1     -19.905  -9.499  -4.262  0.00  0.00     0.045 C 
BRANCH   9  10
HETATM   10 Se           1     -20.690  -7.995  -5.220  0.00  0.00     0.000 Se
HETATM   11  H           1     -19.663  -7.033  -4.785  0.00  0.00     0.000 HD
ENDBRANCH   9  10
ENDBRANCH   8   9
BRANCH   8  12
HETATM   12  N           1     -17.842  -9.313  -2.921  0.00  0.00    -0.067 N 
HETATM   13  H           1     -17.332  -8.623  -3.519  0.00  0.00     0.275 HD
HETATM   14  H           1     -17.491  -9.248  -1.939  0.00  0.00     0.275 HD
HETATM   15  H           1     -17.678 -10.278  -3.287  0.00  0.00     0.275 HD
ENDBRANCH   8  12
ENDBRANCH   2   8
BRANCH   7  16
HETATM   16  C           1     -23.146 -10.400  -0.633  0.00  0.00     0.196 C 
HETATM   17  O           1     -24.200 -10.358   0.038  0.00  0.00    -0.646 OA
HETATM   18  O           1     -23.122 -11.014  -1.721  0.00  0.00    -0.646 OA
ENDBRANCH   7  16
TORSDOF 5
ENDMDL
