MODEL 1
REMARK VINA RESULT:      -8.9      0.000      0.000
REMARK  8 active torsions:
REMARK  status: ('A' for Active; 'I' for Inactive)
REMARK       I    between atoms: C_1  and  N_2 
REMARK    1  A    between atoms: C_1  and  C_17 
REMARK    2  A    between atoms: N_2  and  C_20 
REMARK    3  A    between atoms: C_3  and  C_31 
REMARK    4  A    between atoms: C_8  and  C_20 
REMARK    5  A    between atoms: N_10  and  C_17 
REMARK    6  A    between atoms: C_17  and  C_31 
REMARK    7  A    between atoms: C_18  and  C_19 
REMARK    8  A    between atoms: C_19  and  C_20 
ROOT
HETATM    1  C           1     -20.218  -5.796  -6.377  0.00  0.00     0.249 C 
HETATM    2  N           1     -19.752  -7.083  -6.387  0.00  0.00    -0.344 N 
HETATM    3  H           1     -19.319  -7.458  -7.222  0.00  0.00     0.163 HD
HETATM    4  O           1     -19.490  -4.892  -6.040  0.00  0.00    -0.271 OA
ENDROOT
BRANCH   2   5
HETATM    5  C           1     -19.878  -7.908  -5.202  0.00  0.00     0.190 C 
BRANCH   5   6
HETATM    6  C           1     -18.757  -8.918  -5.172  0.00  0.00     0.197 C 
HETATM    7  O           1     -18.230  -9.235  -4.083  0.00  0.00    -0.646 OA
HETATM    8  O           1     -18.355  -9.438  -6.235  0.00  0.00    -0.646 OA
ENDBRANCH   5   6
BRANCH   5   9
HETATM    9  C           1     -21.216  -8.635  -5.230  0.00  0.00     0.077 C 
BRANCH   9  10
HETATM   10  C           1     -21.520  -9.176  -3.869  0.00  0.00    -0.028 A 
HETATM   11  C           1     -21.792  -8.409  -2.702  0.00  0.00    -0.002 A 
HETATM   12  C           1     -21.865  -7.030  -2.432  0.00  0.00     0.014 A 
HETATM   13  C           1     -22.019  -9.310  -1.662  0.00  0.00     0.042 A 
HETATM   14  C           1     -22.163  -6.601  -1.133  0.00  0.00     0.001 A 
HETATM   15  C           1     -22.386  -7.523  -0.113  0.00  0.00     0.002 A 
HETATM   16  C           1     -22.319  -8.898  -0.357  0.00  0.00     0.030 A 
HETATM   17  N           1     -21.888 -10.576  -2.187  0.00  0.00    -0.365 N 
HETATM   18  H           1     -22.004 -11.467  -1.643  0.00  0.00     0.165 HD
HETATM   19  C           1     -21.587 -10.507  -3.521  0.00  0.00     0.096 A 
ENDBRANCH   9  10
ENDBRANCH   5   9
ENDBRANCH   2   5
BRANCH   1  20
HETATM   20  C           1     -21.641  -5.505  -6.788  0.00  0.00     0.278 C 
BRANCH  20  21
HETATM   21  N           1     -22.534  -5.590  -5.586  0.00  0.00    -0.066 N 
HETATM   22  H           1     -22.531  -4.673  -5.085  0.00  0.00     0.275 HD
HETATM   23  H           1     -23.507  -5.816  -5.890  0.00  0.00     0.275 HD
HETATM   24  H           1     -22.186  -6.338  -4.945  0.00  0.00     0.275 HD
ENDBRANCH  20  21
BRANCH  20  25
HETATM   25  C           1     -21.723  -4.106  -7.383  0.00  0.00     0.081 C 
BRANCH  25  26
HETATM   26  C           1     -21.729  -4.198  -8.878  0.00  0.00    -0.056 A 
HETATM   27  C           1     -22.928  -4.402  -9.559  0.00  0.00     0.007 A 
HETATM   28  C           1     -22.934  -4.488 -10.951  0.00  0.00     0.001 A 
HETATM   29  C           1     -21.740  -4.367 -11.662  0.00  0.00     0.000 A 
HETATM   30  C           1     -20.540  -4.163 -10.981  0.00  0.00     0.001 A 
HETATM   31  C           1     -20.535  -4.077  -9.588  0.00  0.00     0.007 A 
ENDBRANCH  25  26
ENDBRANCH  20  25
ENDBRANCH   1  20
TORSDOF 8
ENDMDL
MODEL 2
REMARK VINA RESULT:      -8.8      1.391      1.991
REMARK  8 active torsions:
REMARK  status: ('A' for Active; 'I' for Inactive)
REMARK       I    between atoms: C_1  and  N_2 
REMARK    1  A    between atoms: C_1  and  C_17 
REMARK    2  A    between atoms: N_2  and  C_20 
REMARK    3  A    between atoms: C_3  and  C_31 
REMARK    4  A    between atoms: C_8  and  C_20 
REMARK    5  A    between atoms: N_10  and  C_17 
REMARK    6  A    between atoms: C_17  and  C_31 
REMARK    7  A    between atoms: C_18  and  C_19 
REMARK    8  A    between atoms: C_19  and  C_20 
ROOT
HETATM    1  C           1     -20.162  -6.344  -6.720  0.00  0.00     0.249 C 
HETATM    2  N           1     -20.766  -7.437  -6.160  0.00  0.00    -0.344 N 
HETATM    3  H           1     -21.490  -7.930  -6.667  0.00  0.00     0.163 HD
HETATM    4  O           1     -19.171  -6.482  -7.398  0.00  0.00    -0.271 OA
ENDROOT
BRANCH   2   5
HETATM    5  C           1     -20.368  -7.888  -4.841  0.00  0.00     0.190 C 
BRANCH   5   6
HETATM    6  C           1     -19.264  -8.908  -4.971  0.00  0.00     0.197 C 
HETATM    7  O           1     -18.478  -9.104  -4.018  0.00  0.00    -0.646 OA
HETATM    8  O           1     -19.134  -9.558  -6.030  0.00  0.00    -0.646 OA
ENDBRANCH   5   6
BRANCH   5   9
HETATM    9  C           1     -21.564  -8.520  -4.139  0.00  0.00     0.077 C 
BRANCH   9  10
HETATM   10  C           1     -21.746  -7.888  -2.795  0.00  0.00    -0.028 A 
HETATM   11  C           1     -21.510  -8.509  -1.538  0.00  0.00    -0.002 A 
HETATM   12  C           1     -21.074  -9.788  -1.144  0.00  0.00     0.014 A 
HETATM   13  C           1     -21.804  -7.567  -0.552  0.00  0.00     0.042 A 
HETATM   14  C           1     -20.948 -10.079   0.220  0.00  0.00     0.001 A 
HETATM   15  C           1     -21.248  -9.118   1.183  0.00  0.00     0.002 A 
HETATM   16  C           1     -21.683  -7.841   0.816  0.00  0.00     0.030 A 
HETATM   17  N           1     -22.203  -6.418  -1.197  0.00  0.00    -0.365 N 
HETATM   18  H           1     -22.491  -5.529  -0.718  0.00  0.00     0.165 HD
HETATM   19  C           1     -22.171  -6.601  -2.554  0.00  0.00     0.096 A 
ENDBRANCH   9  10
ENDBRANCH   5   9
ENDBRANCH   2   5
BRANCH   1  20
HETATM   20  C           1     -20.733  -4.966  -6.492  0.00  0.00     0.278 C 
BRANCH  20  21
HETATM   21  N           1     -20.242  -4.434  -5.178  0.00  0.00    -0.066 N 
HETATM   22  H           1     -20.240  -5.204  -4.470  0.00  0.00     0.275 HD
HETATM   23  H           1     -19.272  -4.065  -5.292  0.00  0.00     0.275 HD
HETATM   24  H           1     -20.873  -3.666  -4.855  0.00  0.00     0.275 HD
ENDBRANCH  20  21
BRANCH  20  25
HETATM   25  C           1     -20.287  -4.038  -7.613  0.00  0.00     0.081 C 
BRANCH  25  26
HETATM   26  C           1     -21.220  -4.174  -8.776  0.00  0.00    -0.056 A 
HETATM   27  C           1     -22.597  -4.223  -8.563  0.00  0.00     0.007 A 
HETATM   28  C           1     -23.467  -4.350  -9.647  0.00  0.00     0.001 A 
HETATM   29  C           1     -22.958  -4.426 -10.943  0.00  0.00     0.000 A 
HETATM   30  C           1     -21.580  -4.376 -11.157  0.00  0.00     0.001 A 
HETATM   31  C           1     -20.711  -4.250 -10.073  0.00  0.00     0.007 A 
ENDBRANCH  25  26
ENDBRANCH  20  25
ENDBRANCH   1  20
TORSDOF 8
ENDMDL
MODEL 3
REMARK VINA RESULT:      -8.6      1.931      8.047
REMARK  8 active torsions:
REMARK  status: ('A' for Active; 'I' for Inactive)
REMARK       I    between atoms: C_1  and  N_2 
REMARK    1  A    between atoms: C_1  and  C_17 
REMARK    2  A    between atoms: N_2  and  C_20 
REMARK    3  A    between atoms: C_3  and  C_31 
REMARK    4  A    between atoms: C_8  and  C_20 
REMARK    5  A    between atoms: N_10  and  C_17 
REMARK    6  A    between atoms: C_17  and  C_31 
REMARK    7  A    between atoms: C_18  and  C_19 
REMARK    8  A    between atoms: C_19  and  C_20 
ROOT
HETATM    1  C           1     -21.564  -6.694  -3.198  0.00  0.00     0.249 C 
HETATM    2  N           1     -22.437  -6.669  -4.252  0.00  0.00    -0.344 N 
HETATM    3  H           1     -23.432  -6.586  -4.084  0.00  0.00     0.163 HD
HETATM    4  O           1     -21.099  -5.663  -2.774  0.00  0.00    -0.271 OA
ENDROOT
BRANCH   2   5
HETATM    5  C           1     -21.937  -6.761  -5.610  0.00  0.00     0.190 C 
BRANCH   5   6
HETATM    6  C           1     -20.912  -7.866  -5.693  0.00  0.00     0.197 C 
HETATM    7  O           1     -19.693  -7.589  -5.708  0.00  0.00    -0.646 OA
HETATM    8  O           1     -21.281  -9.059  -5.747  0.00  0.00    -0.646 OA
ENDBRANCH   5   6
BRANCH   5   9
HETATM    9  C           1     -21.292  -5.439  -6.004  0.00  0.00     0.077 C 
BRANCH   9  10
HETATM   10  C           1     -22.044  -4.837  -7.149  0.00  0.00    -0.028 A 
HETATM   11  C           1     -21.528  -4.580  -8.449  0.00  0.00    -0.002 A 
HETATM   12  C           1     -20.275  -4.772  -9.061  0.00  0.00     0.014 A 
HETATM   13  C           1     -22.562  -4.018  -9.198  0.00  0.00     0.042 A 
HETATM   14  C           1     -20.101  -4.396 -10.399  0.00  0.00     0.001 A 
HETATM   15  C           1     -21.151  -3.837 -11.123  0.00  0.00     0.002 A 
HETATM   16  C           1     -22.405  -3.637 -10.536  0.00  0.00     0.030 A 
HETATM   17  N           1     -23.662  -3.940  -8.374  0.00  0.00    -0.365 N 
HETATM   18  H           1     -24.599  -3.558  -8.657  0.00  0.00     0.165 HD
HETATM   19  C           1     -23.360  -4.433  -7.133  0.00  0.00     0.096 A 
ENDBRANCH   9  10
ENDBRANCH   5   9
ENDBRANCH   2   5
BRANCH   1  20
HETATM   20  C           1     -21.183  -8.010  -2.565  0.00  0.00     0.278 C 
BRANCH  20  21
HETATM   21  N           1     -19.693  -8.074  -2.406  0.00  0.00    -0.066 N 
HETATM   22  H           1     -19.362  -9.044  -2.610  0.00  0.00     0.275 HD
HETATM   23  H           1     -19.243  -7.406  -3.071  0.00  0.00     0.275 HD
HETATM   24  H           1     -19.436  -7.817  -1.426  0.00  0.00     0.275 HD
ENDBRANCH  20  21
BRANCH  20  25
HETATM   25  C           1     -21.845  -8.127  -1.199  0.00  0.00     0.081 C 
BRANCH  25  26
HETATM   26  C           1     -22.588  -9.424  -1.112  0.00  0.00    -0.056 A 
HETATM   27  C           1     -23.382  -9.701   0.000  0.00  0.00     0.007 A 
HETATM   28  C           1     -24.073 -10.909   0.081  0.00  0.00     0.001 A 
HETATM   29  C           1     -23.972 -11.840  -0.953  0.00  0.00     0.000 A 
HETATM   30  C           1     -23.179 -11.564  -2.067  0.00  0.00     0.001 A 
HETATM   31  C           1     -22.487 -10.355  -2.146  0.00  0.00     0.007 A 
ENDBRANCH  25  26
ENDBRANCH  20  25
ENDBRANCH   1  20
TORSDOF 8
ENDMDL
MODEL 4
REMARK VINA RESULT:      -8.4      2.620      4.331
REMARK  8 active torsions:
REMARK  status: ('A' for Active; 'I' for Inactive)
REMARK       I    between atoms: C_1  and  N_2 
REMARK    1  A    between atoms: C_1  and  C_17 
REMARK    2  A    between atoms: N_2  and  C_20 
REMARK    3  A    between atoms: C_3  and  C_31 
REMARK    4  A    between atoms: C_8  and  C_20 
REMARK    5  A    between atoms: N_10  and  C_17 
REMARK    6  A    between atoms: C_17  and  C_31 
REMARK    7  A    between atoms: C_18  and  C_19 
REMARK    8  A    between atoms: C_19  and  C_20 
ROOT
HETATM    1  C           1     -21.667  -6.263  -4.319  0.00  0.00     0.249 C 
HETATM    2  N           1     -21.396  -6.472  -2.994  0.00  0.00    -0.344 N 
HETATM    3  H           1     -21.211  -5.684  -2.386  0.00  0.00     0.163 HD
HETATM    4  O           1     -22.808  -6.102  -4.685  0.00  0.00    -0.271 OA
ENDROOT
BRANCH   2   5
HETATM    5  C           1     -21.373  -7.820  -2.462  0.00  0.00     0.190 C 
BRANCH   5   6
HETATM    6  C           1     -22.151  -7.864  -1.171  0.00  0.00     0.197 C 
HETATM    7  O           1     -22.210  -8.925  -0.511  0.00  0.00    -0.646 OA
HETATM    8  O           1     -22.738  -6.841  -0.759  0.00  0.00    -0.646 OA
ENDBRANCH   5   6
BRANCH   5   9
HETATM    9  C           1     -19.931  -8.238  -2.201  0.00  0.00     0.077 C 
BRANCH   9  10
HETATM   10  C           1     -19.474  -9.162  -3.285  0.00  0.00    -0.028 A 
HETATM   11  C           1     -18.139  -9.603  -3.505  0.00  0.00    -0.002 A 
HETATM   12  C           1     -16.910  -9.360  -2.863  0.00  0.00     0.014 A 
HETATM   13  C           1     -18.163 -10.448  -4.614  0.00  0.00     0.042 A 
HETATM   14  C           1     -15.750  -9.972  -3.353  0.00  0.00     0.001 A 
HETATM   15  C           1     -15.802 -10.812  -4.463  0.00  0.00     0.002 A 
HETATM   16  C           1     -17.012 -11.068  -5.116  0.00  0.00     0.030 A 
HETATM   17  N           1     -19.468 -10.513  -5.046  0.00  0.00    -0.365 N 
HETATM   18  H           1     -19.802 -11.075  -5.868  0.00  0.00     0.165 HD
HETATM   19  C           1     -20.270  -9.739  -4.250  0.00  0.00     0.096 A 
ENDBRANCH   9  10
ENDBRANCH   5   9
ENDBRANCH   2   5
BRANCH   1  20
HETATM   20  C           1     -20.542  -6.235  -5.325  0.00  0.00     0.278 C 
BRANCH  20  21
HETATM   21  N           1     -20.952  -6.991  -6.554  0.00  0.00    -0.066 N 
HETATM   22  H           1     -20.127  -7.506  -6.937  0.00  0.00     0.275 HD
HETATM   23  H           1     -21.704  -7.673  -6.309  0.00  0.00     0.275 HD
HETATM   24  H           1     -21.309  -6.321  -7.272  0.00  0.00     0.275 HD
ENDBRANCH  20  21
BRANCH  20  25
HETATM   25  C           1     -20.230  -4.792  -5.698  0.00  0.00     0.081 C 
BRANCH  25  26
HETATM   26  C           1     -20.671  -4.532  -7.104  0.00  0.00    -0.056 A 
HETATM   27  C           1     -21.970  -4.092  -7.359  0.00  0.00     0.007 A 
HETATM   28  C           1     -22.381  -3.850  -8.669  0.00  0.00     0.001 A 
HETATM   29  C           1     -21.491  -4.047  -9.726  0.00  0.00     0.000 A 
HETATM   30  C           1     -20.192  -4.486  -9.472  0.00  0.00     0.001 A 
HETATM   31  C           1     -19.782  -4.728  -8.161  0.00  0.00     0.007 A 
ENDBRANCH  25  26
ENDBRANCH  20  25
ENDBRANCH   1  20
TORSDOF 8
ENDMDL
MODEL 5
REMARK VINA RESULT:      -8.1      4.376      6.984
REMARK  8 active torsions:
REMARK  status: ('A' for Active; 'I' for Inactive)
REMARK       I    between atoms: C_1  and  N_2 
REMARK    1  A    between atoms: C_1  and  C_17 
REMARK    2  A    between atoms: N_2  and  C_20 
REMARK    3  A    between atoms: C_3  and  C_31 
REMARK    4  A    between atoms: C_8  and  C_20 
REMARK    5  A    between atoms: N_10  and  C_17 
REMARK    6  A    between atoms: C_17  and  C_31 
REMARK    7  A    between atoms: C_18  and  C_19 
REMARK    8  A    between atoms: C_19  and  C_20 
ROOT
HETATM    1  C           1     -20.941 -11.496  -5.579  0.00  0.00     0.249 C 
HETATM    2  N           1     -19.672 -11.215  -5.152  0.00  0.00    -0.344 N 
HETATM    3  H           1     -18.988 -11.957  -5.074  0.00  0.00     0.163 HD
HETATM    4  O           1     -21.206 -11.452  -6.758  0.00  0.00    -0.271 OA
ENDROOT
BRANCH   2   5
HETATM    5  C           1     -19.307  -9.854  -4.810  0.00  0.00     0.190 C 
BRANCH   5   6
HETATM    6  C           1     -17.965  -9.526  -5.417  0.00  0.00     0.197 C 
HETATM    7  O           1     -17.898  -9.080  -6.583  0.00  0.00    -0.646 OA
HETATM    8  O           1     -16.920  -9.699  -4.754  0.00  0.00    -0.646 OA
ENDBRANCH   5   6
BRANCH   5   9
HETATM    9  C           1     -19.228  -9.715  -3.296  0.00  0.00     0.077 C 
BRANCH   9  10
HETATM   10  C           1     -20.269  -8.747  -2.827  0.00  0.00    -0.028 A 
HETATM   11  C           1     -20.821  -8.678  -1.518  0.00  0.00    -0.002 A 
HETATM   12  C           1     -20.617  -9.404  -0.329  0.00  0.00     0.014 A 
HETATM   13  C           1     -21.751  -7.638  -1.518  0.00  0.00     0.042 A 
HETATM   14  C           1     -21.350  -9.065   0.815  0.00  0.00     0.001 A 
HETATM   15  C           1     -22.272  -8.021   0.785  0.00  0.00     0.002 A 
HETATM   16  C           1     -22.491  -7.286  -0.383  0.00  0.00     0.030 A 
HETATM   17  N           1     -21.757  -7.102  -2.786  0.00  0.00    -0.365 N 
HETATM   18  H           1     -22.359  -6.299  -3.096  0.00  0.00     0.165 HD
HETATM   19  C           1     -20.864  -7.765  -3.586  0.00  0.00     0.096 A 
ENDBRANCH   9  10
ENDBRANCH   5   9
ENDBRANCH   2   5
BRANCH   1  20
HETATM   20  C           1     -22.011 -11.863  -4.579  0.00  0.00     0.278 C 
BRANCH  20  21
HETATM   21  N           1     -22.979 -12.818  -5.212  0.00  0.00    -0.066 N 
HETATM   22  H           1     -23.955 -12.478  -5.055  0.00  0.00     0.275 HD
HETATM   23  H           1     -22.792 -12.874  -6.238  0.00  0.00     0.275 HD
HETATM   24  H           1     -22.866 -13.764  -4.784  0.00  0.00     0.275 HD
ENDBRANCH  20  21
BRANCH  20  25
HETATM   25  C           1     -21.368 -12.522  -3.367  0.00  0.00     0.081 C 
BRANCH  25  26
HETATM   26  C           1     -22.186 -12.232  -2.147  0.00  0.00    -0.056 A 
HETATM   27  C           1     -23.214 -11.292  -2.204  0.00  0.00     0.007 A 
HETATM   28  C           1     -23.976 -11.022  -1.067  0.00  0.00     0.001 A 
HETATM   29  C           1     -23.711 -11.694   0.126  0.00  0.00     0.000 A 
HETATM   30  C           1     -22.683 -12.635   0.183  0.00  0.00     0.001 A 
HETATM   31  C           1     -21.921 -12.905  -0.954  0.00  0.00     0.007 A 
ENDBRANCH  25  26
ENDBRANCH  20  25
ENDBRANCH   1  20
TORSDOF 8
ENDMDL
MODEL 6
REMARK VINA RESULT:      -8.0      4.163      6.965
REMARK  8 active torsions:
REMARK  status: ('A' for Active; 'I' for Inactive)
REMARK       I    between atoms: C_1  and  N_2 
REMARK    1  A    between atoms: C_1  and  C_17 
REMARK    2  A    between atoms: N_2  and  C_20 
REMARK    3  A    between atoms: C_3  and  C_31 
REMARK    4  A    between atoms: C_8  and  C_20 
REMARK    5  A    between atoms: N_10  and  C_17 
REMARK    6  A    between atoms: C_17  and  C_31 
REMARK    7  A    between atoms: C_18  and  C_19 
REMARK    8  A    between atoms: C_19  and  C_20 
ROOT
HETATM    1  C           1     -21.170 -11.425  -5.533  0.00  0.00     0.249 C 
HETATM    2  N           1     -20.044 -11.015  -4.872  0.00  0.00    -0.344 N 
HETATM    3  H           1     -19.263 -11.650  -4.762  0.00  0.00     0.163 HD
HETATM    4  O           1     -21.263 -11.264  -6.727  0.00  0.00    -0.271 OA
ENDROOT
BRANCH   2   5
HETATM    5  C           1     -19.969  -9.673  -4.330  0.00  0.00     0.190 C 
BRANCH   5   6
HETATM    6  C           1     -19.489  -8.725  -5.401  0.00  0.00     0.197 C 
HETATM    7  O           1     -18.491  -9.019  -6.095  0.00  0.00    -0.646 OA
HETATM    8  O           1     -20.088  -7.646  -5.595  0.00  0.00    -0.646 OA
ENDBRANCH   5   6
BRANCH   5   9
HETATM    9  C           1     -18.996  -9.653  -3.159  0.00  0.00     0.077 C 
BRANCH   9  10
HETATM   10  C           1     -19.759  -9.711  -1.873  0.00  0.00    -0.028 A 
HETATM   11  C           1     -20.718  -8.761  -1.423  0.00  0.00    -0.002 A 
HETATM   12  C           1     -21.236  -7.565  -1.954  0.00  0.00     0.014 A 
HETATM   13  C           1     -21.181  -9.201  -0.182  0.00  0.00     0.042 A 
HETATM   14  C           1     -22.198  -6.853  -1.228  0.00  0.00     0.001 A 
HETATM   15  C           1     -22.642  -7.316   0.009  0.00  0.00     0.002 A 
HETATM   16  C           1     -22.142  -8.501   0.557  0.00  0.00     0.030 A 
HETATM   17  N           1     -20.521 -10.376   0.102  0.00  0.00    -0.365 N 
HETATM   18  H           1     -20.659 -10.947   0.972  0.00  0.00     0.165 HD
HETATM   19  C           1     -19.660 -10.693  -0.914  0.00  0.00     0.096 A 
ENDBRANCH   9  10
ENDBRANCH   5   9
ENDBRANCH   2   5
BRANCH   1  20
HETATM   20  C           1     -22.297 -12.078  -4.770  0.00  0.00     0.278 C 
BRANCH  20  21
HETATM   21  N           1     -23.054 -12.995  -5.685  0.00  0.00    -0.066 N 
HETATM   22  H           1     -22.865 -13.987  -5.417  0.00  0.00     0.275 HD
HETATM   23  H           1     -24.077 -12.801  -5.605  0.00  0.00     0.275 HD
HETATM   24  H           1     -22.744 -12.836  -6.671  0.00  0.00     0.275 HD
ENDBRANCH  20  21
BRANCH  20  25
HETATM   25  C           1     -21.727 -12.879  -3.608  0.00  0.00     0.081 C 
BRANCH  25  26
HETATM   26  C           1     -22.458 -12.525  -2.350  0.00  0.00    -0.056 A 
HETATM   27  C           1     -23.299 -11.413  -2.321  0.00  0.00     0.007 A 
HETATM   28  C           1     -23.979 -11.083  -1.149  0.00  0.00     0.001 A 
HETATM   29  C           1     -23.819 -11.867  -0.006  0.00  0.00     0.000 A 
HETATM   30  C           1     -22.979 -12.980  -0.035  0.00  0.00     0.001 A 
HETATM   31  C           1     -22.298 -13.309  -1.207  0.00  0.00     0.007 A 
ENDBRANCH  25  26
ENDBRANCH  20  25
ENDBRANCH   1  20
TORSDOF 8
ENDMDL
MODEL 7
REMARK VINA RESULT:      -7.9      4.032      7.252
REMARK  8 active torsions:
REMARK  status: ('A' for Active; 'I' for Inactive)
REMARK       I    between atoms: C_1  and  N_2 
REMARK    1  A    between atoms: C_1  and  C_17 
REMARK    2  A    between atoms: N_2  and  C_20 
REMARK    3  A    between atoms: C_3  and  C_31 
REMARK    4  A    between atoms: C_8  and  C_20 
REMARK    5  A    between atoms: N_10  and  C_17 
REMARK    6  A    between atoms: C_17  and  C_31 
REMARK    7  A    between atoms: C_18  and  C_19 
REMARK    8  A    between atoms: C_19  and  C_20 
ROOT
HETATM    1  C           1     -20.028  -9.331  -4.891  0.00  0.00     0.249 C 
HETATM    2  N           1     -20.112  -8.098  -4.303  0.00  0.00    -0.344 N 
HETATM    3  H           1     -19.426  -7.387  -4.521  0.00  0.00     0.163 HD
HETATM    4  O           1     -20.591  -9.540  -5.939  0.00  0.00    -0.271 OA
ENDROOT
BRANCH   2   5
HETATM    5  C           1     -21.183  -7.811  -3.368  0.00  0.00     0.190 C 
BRANCH   5   6
HETATM    6  C           1     -21.673  -6.401  -3.584  0.00  0.00     0.197 C 
HETATM    7  O           1     -22.118  -6.057  -4.700  0.00  0.00    -0.646 OA
HETATM    8  O           1     -21.635  -5.575  -2.646  0.00  0.00    -0.646 OA
ENDBRANCH   5   6
BRANCH   5   9
HETATM    9  C           1     -20.665  -7.958  -1.944  0.00  0.00     0.077 C 
BRANCH   9  10
HETATM   10  C           1     -21.754  -8.491  -1.068  0.00  0.00    -0.028 A 
HETATM   11  C           1     -22.384  -9.761  -1.191  0.00  0.00    -0.002 A 
HETATM   12  C           1     -22.233 -10.847  -2.073  0.00  0.00     0.014 A 
HETATM   13  C           1     -23.337  -9.847  -0.176  0.00  0.00     0.042 A 
HETATM   14  C           1     -23.040 -11.980  -1.908  0.00  0.00     0.001 A 
HETATM   15  C           1     -23.984 -12.038  -0.885  0.00  0.00     0.002 A 
HETATM   16  C           1     -24.151 -10.972   0.003  0.00  0.00     0.030 A 
HETATM   17  N           1     -23.281  -8.668   0.533  0.00  0.00    -0.365 N 
HETATM   18  H           1     -23.883  -8.435   1.362  0.00  0.00     0.165 HD
HETATM   19  C           1     -22.327  -7.841   0.002  0.00  0.00     0.096 A 
ENDBRANCH   9  10
ENDBRANCH   5   9
ENDBRANCH   2   5
BRANCH   1  20
HETATM   20  C           1     -19.234 -10.431  -4.228  0.00  0.00     0.278 C 
BRANCH  20  21
HETATM   21  N           1     -18.828 -11.442  -5.259  0.00  0.00    -0.066 N 
HETATM   22  H           1     -18.703 -10.968  -6.182  0.00  0.00     0.275 HD
HETATM   23  H           1     -17.929 -11.890  -4.973  0.00  0.00     0.275 HD
HETATM   24  H           1     -19.571 -12.173  -5.341  0.00  0.00     0.275 HD
ENDBRANCH  20  21
BRANCH  20  25
HETATM   25  C           1     -17.990  -9.839  -3.581  0.00  0.00     0.081 C 
BRANCH  25  26
HETATM   26  C           1     -17.638 -10.629  -2.358  0.00  0.00    -0.056 A 
HETATM   27  C           1     -16.301 -10.835  -2.021  0.00  0.00     0.007 A 
HETATM   28  C           1     -15.974 -11.572  -0.883  0.00  0.00     0.001 A 
HETATM   29  C           1     -16.985 -12.100  -0.080  0.00  0.00     0.000 A 
HETATM   30  C           1     -18.323 -11.894  -0.417  0.00  0.00     0.001 A 
HETATM   31  C           1     -18.649 -11.158  -1.556  0.00  0.00     0.007 A 
ENDBRANCH  25  26
ENDBRANCH  20  25
ENDBRANCH   1  20
TORSDOF 8
ENDMDL
MODEL 8
REMARK VINA RESULT:      -7.9      3.938      7.576
REMARK  8 active torsions:
REMARK  status: ('A' for Active; 'I' for Inactive)
REMARK       I    between atoms: C_1  and  N_2 
REMARK    1  A    between atoms: C_1  and  C_17 
REMARK    2  A    between atoms: N_2  and  C_20 
REMARK    3  A    between atoms: C_3  and  C_31 
REMARK    4  A    between atoms: C_8  and  C_20 
REMARK    5  A    between atoms: N_10  and  C_17 
REMARK    6  A    between atoms: C_17  and  C_31 
REMARK    7  A    between atoms: C_18  and  C_19 
REMARK    8  A    between atoms: C_19  and  C_20 
ROOT
HETATM    1  C           1     -20.566 -12.517  -2.305  0.00  0.00     0.249 C 
HETATM    2  N           1     -19.307 -12.180  -1.887  0.00  0.00    -0.344 N 
HETATM    3  H           1     -19.042 -12.317  -0.919  0.00  0.00     0.163 HD
HETATM    4  O           1     -20.787 -13.630  -2.720  0.00  0.00    -0.271 OA
ENDROOT
BRANCH   2   5
HETATM    5  C           1     -18.354 -11.625  -2.828  0.00  0.00     0.190 C 
BRANCH   5   6
HETATM    6  C           1     -17.025 -12.318  -2.664  0.00  0.00     0.197 C 
HETATM    7  O           1     -15.965 -11.707  -2.921  0.00  0.00    -0.646 OA
HETATM    8  O           1     -16.982 -13.504  -2.270  0.00  0.00    -0.646 OA
ENDBRANCH   5   6
BRANCH   5   9
HETATM    9  C           1     -18.187 -10.135  -2.562  0.00  0.00     0.077 C 
BRANCH   9  10
HETATM   10  C           1     -18.891  -9.354  -3.626  0.00  0.00    -0.028 A 
HETATM   11  C           1     -19.929  -8.403  -3.422  0.00  0.00    -0.002 A 
HETATM   12  C           1     -20.593  -7.907  -2.284  0.00  0.00     0.014 A 
HETATM   13  C           1     -20.296  -7.918  -4.677  0.00  0.00     0.042 A 
HETATM   14  C           1     -21.598  -6.946  -2.441  0.00  0.00     0.001 A 
HETATM   15  C           1     -21.944  -6.480  -3.708  0.00  0.00     0.002 A 
HETATM   16  C           1     -21.298  -6.956  -4.853  0.00  0.00     0.030 A 
HETATM   17  N           1     -19.504  -8.558  -5.605  0.00  0.00    -0.365 N 
HETATM   18  H           1     -19.548  -8.401  -6.642  0.00  0.00     0.165 HD
HETATM   19  C           1     -18.651  -9.428  -4.980  0.00  0.00     0.096 A 
ENDBRANCH   9  10
ENDBRANCH   5   9
ENDBRANCH   2   5
BRANCH   1  20
HETATM   20  C           1     -21.679 -11.498  -2.250  0.00  0.00     0.278 C 
BRANCH  20  21
HETATM   21  N           1     -22.640 -11.748  -3.374  0.00  0.00    -0.066 N 
HETATM   22  H           1     -22.264 -11.326  -4.253  0.00  0.00     0.275 HD
HETATM   23  H           1     -22.762 -12.776  -3.506  0.00  0.00     0.275 HD
HETATM   24  H           1     -23.563 -11.313  -3.146  0.00  0.00     0.275 HD
ENDBRANCH  20  21
BRANCH  20  25
HETATM   25  C           1     -22.410 -11.616  -0.920  0.00  0.00     0.081 C 
BRANCH  25  26
HETATM   26  C           1     -22.263 -10.340  -0.152  0.00  0.00    -0.056 A 
HETATM   27  C           1     -21.094 -10.088   0.565  0.00  0.00     0.007 A 
HETATM   28  C           1     -20.957  -8.899   1.281  0.00  0.00     0.001 A 
HETATM   29  C           1     -21.989  -7.960   1.277  0.00  0.00     0.000 A 
HETATM   30  C           1     -23.158  -8.211   0.559  0.00  0.00     0.001 A 
HETATM   31  C           1     -23.295  -9.401  -0.156  0.00  0.00     0.007 A 
ENDBRANCH  25  26
ENDBRANCH  20  25
ENDBRANCH   1  20
TORSDOF 8
ENDMDL
MODEL 9
REMARK VINA RESULT:      -7.9      2.172      3.376
REMARK  8 active torsions:
REMARK  status: ('A' for Active; 'I' for Inactive)
REMARK       I    between atoms: C_1  and  N_2 
REMARK    1  A    between atoms: C_1  and  C_17 
REMARK    2  A    between atoms: N_2  and  C_20 
REMARK    3  A    between atoms: C_3  and  C_31 
REMARK    4  A    between atoms: C_8  and  C_20 
REMARK    5  A    between atoms: N_10  and  C_17 
REMARK    6  A    between atoms: C_17  and  C_31 
REMARK    7  A    between atoms: C_18  and  C_19 
REMARK    8  A    between atoms: C_19  and  C_20 
ROOT
HETATM    1  C           1     -21.551  -6.207  -4.364  0.00  0.00     0.249 C 
HETATM    2  N           1     -21.228  -6.221  -3.034  0.00  0.00    -0.344 N 
HETATM    3  H           1     -21.149  -5.351  -2.523  0.00  0.00     0.163 HD
HETATM    4  O           1     -22.709  -6.254  -4.704  0.00  0.00    -0.271 OA
ENDROOT
BRANCH   2   5
HETATM    5  C           1     -20.997  -7.483  -2.357  0.00  0.00     0.190 C 
BRANCH   5   6
HETATM    6  C           1     -20.755  -8.564  -3.381  0.00  0.00     0.197 C 
HETATM    7  O           1     -21.722  -9.168  -3.894  0.00  0.00    -0.646 OA
HETATM    8  O           1     -19.587  -8.858  -3.716  0.00  0.00    -0.646 OA
ENDBRANCH   5   6
BRANCH   5   9
HETATM    9  C           1     -22.219  -7.839  -1.520  0.00  0.00     0.077 C 
BRANCH   9  10
HETATM   10  C           1     -21.878  -8.961  -0.590  0.00  0.00    -0.028 A 
HETATM   11  C           1     -22.510 -10.235  -0.545  0.00  0.00    -0.002 A 
HETATM   12  C           1     -23.559 -10.834  -1.267  0.00  0.00     0.014 A 
HETATM   13  C           1     -21.884 -10.968   0.463  0.00  0.00     0.042 A 
HETATM   14  C           1     -23.944 -12.144  -0.956  0.00  0.00     0.001 A 
HETATM   15  C           1     -23.300 -12.853   0.056  0.00  0.00     0.002 A 
HETATM   16  C           1     -22.256 -12.279   0.786  0.00  0.00     0.030 A 
HETATM   17  N           1     -20.908 -10.161   1.004  0.00  0.00    -0.365 N 
HETATM   18  H           1     -20.265 -10.438   1.788  0.00  0.00     0.165 HD
HETATM   19  C           1     -20.896  -8.945   0.375  0.00  0.00     0.096 A 
ENDBRANCH   9  10
ENDBRANCH   5   9
ENDBRANCH   2   5
BRANCH   1  20
HETATM   20  C           1     -20.461  -6.133  -5.405  0.00  0.00     0.278 C 
BRANCH  20  21
HETATM   21  N           1     -20.882  -6.898  -6.624  0.00  0.00    -0.066 N 
HETATM   22  H           1     -21.221  -7.845  -6.340  0.00  0.00     0.275 HD
HETATM   23  H           1     -21.652  -6.385  -7.109  0.00  0.00     0.275 HD
HETATM   24  H           1     -20.068  -7.000  -7.271  0.00  0.00     0.275 HD
ENDBRANCH  20  21
BRANCH  20  25
HETATM   25  C           1     -20.214  -4.678  -5.780  0.00  0.00     0.081 C 
BRANCH  25  26
HETATM   26  C           1     -20.701  -4.431  -7.174  0.00  0.00    -0.056 A 
HETATM   27  C           1     -19.827  -4.566  -8.252  0.00  0.00     0.007 A 
HETATM   28  C           1     -20.281  -4.335  -9.551  0.00  0.00     0.001 A 
HETATM   29  C           1     -21.610  -3.971  -9.770  0.00  0.00     0.000 A 
HETATM   30  C           1     -22.484  -3.836  -8.692  0.00  0.00     0.001 A 
HETATM   31  C           1     -22.030  -4.067  -7.393  0.00  0.00     0.007 A 
ENDBRANCH  25  26
ENDBRANCH  20  25
ENDBRANCH   1  20
TORSDOF 8
ENDMDL
