MODEL 1
REMARK VINA RESULT:      -6.6      0.000      0.000
REMARK  9 active torsions:
REMARK  status: ('A' for Active; 'I' for Inactive)
REMARK    1  A    between atoms: C_3  and  C_21 
REMARK    2  A    between atoms: C_3  and  C_4 
REMARK    3  A    between atoms: C_3  and  N_19 
REMARK    4  A    between atoms: C_5  and  C_22 
REMARK    5  A    between atoms: C_5  and  C_24 
REMARK    6  A    between atoms: C_7  and  C_8 
REMARK    7  A    between atoms: C_7  and  C_21 
REMARK       I    between atoms: C_8  and  N_9 
REMARK       I    between atoms: C_10  and  N_19 
REMARK    8  A    between atoms: C_10  and  C_22 
REMARK    9  A    between atoms: N_13  and  C_22 
ROOT
HETATM    1  H           1     -27.641  -6.924 -20.046  0.00  0.00     0.163 HD
HETATM    2  C           1     -26.302  -6.403 -18.557  0.00  0.00     0.249 C 
HETATM    3  O           1     -26.187  -6.068 -17.402  0.00  0.00    -0.271 OA
HETATM    4  N           1     -27.544  -6.643 -19.079  0.00  0.00    -0.345 N 
ENDROOT
BRANCH   4   5
HETATM    5  C           1     -28.722  -6.495 -18.246  0.00  0.00     0.186 C 
BRANCH   5   6
HETATM    6  C           1     -29.355  -5.133 -18.503  0.00  0.00     0.045 C 
BRANCH   6   7
HETATM    7  C           1     -29.695  -4.471 -17.173  0.00  0.00     0.105 C 
BRANCH   7   8
HETATM    8  C           1     -31.169  -4.149 -17.134  0.00  0.00     0.215 C 
HETATM    9  O           1     -31.565  -3.082 -17.539  0.00  0.00    -0.274 OA
HETATM   10  N           1     -32.056  -5.066 -16.639  0.00  0.00    -0.370 N 
HETATM   11  H           1     -31.724  -5.960 -16.300  0.00  0.00     0.159 HD
HETATM   12  H           1     -33.045  -4.850 -16.613  0.00  0.00     0.159 HD
ENDBRANCH   7   8
ENDBRANCH   6   7
ENDBRANCH   5   6
BRANCH   5  13
HETATM   13  C           1     -29.714  -7.581 -18.581  0.00  0.00     0.196 C 
HETATM   14  O           1     -30.881  -7.520 -18.136  0.00  0.00    -0.646 OA
HETATM   15  O           1     -29.370  -8.542 -19.302  0.00  0.00    -0.646 OA
ENDBRANCH   5  13
ENDBRANCH   4   5
BRANCH   2  16
HETATM   16  C           1     -25.076  -6.556 -19.423  0.00  0.00     0.284 C 
BRANCH  16  17
HETATM   17  C           1     -25.481  -6.507 -20.890  0.00  0.00     0.155 C 
BRANCH  17  18
HETATM   18  C           1     -25.444  -7.899 -21.471  0.00  0.00     0.175 C 
HETATM   19  O           1     -24.423  -8.298 -22.074  0.00  0.00    -0.648 OA
HETATM   20  O           1     -26.432  -8.655 -21.348  0.00  0.00    -0.648 OA
ENDBRANCH  17  18
ENDBRANCH  16  17
BRANCH  16  21
HETATM   21  N           1     -24.419  -7.872 -19.130  0.00  0.00    -0.066 N 
HETATM   22  H           1     -23.413  -7.829 -19.411  0.00  0.00     0.275 HD
HETATM   23  H           1     -24.487  -8.075 -18.108  0.00  0.00     0.275 HD
HETATM   24  H           1     -24.899  -8.628 -19.669  0.00  0.00     0.275 HD
ENDBRANCH  16  21
ENDBRANCH   2  16
TORSDOF 9
ENDMDL
MODEL 2
REMARK VINA RESULT:      -6.0      1.738      6.222
REMARK  9 active torsions:
REMARK  status: ('A' for Active; 'I' for Inactive)
REMARK    1  A    between atoms: C_3  and  C_21 
REMARK    2  A    between atoms: C_3  and  C_4 
REMARK    3  A    between atoms: C_3  and  N_19 
REMARK    4  A    between atoms: C_5  and  C_22 
REMARK    5  A    between atoms: C_5  and  C_24 
REMARK    6  A    between atoms: C_7  and  C_8 
REMARK    7  A    between atoms: C_7  and  C_21 
REMARK       I    between atoms: C_8  and  N_9 
REMARK       I    between atoms: C_10  and  N_19 
REMARK    8  A    between atoms: C_10  and  C_22 
REMARK    9  A    between atoms: N_13  and  C_22 
ROOT
HETATM    1  H           1     -27.284  -5.438 -18.440  0.00  0.00     0.163 HD
HETATM    2  C           1     -28.514  -6.607 -17.256  0.00  0.00     0.249 C 
HETATM    3  O           1     -28.566  -7.574 -16.534  0.00  0.00    -0.271 OA
HETATM    4  N           1     -27.327  -6.248 -17.836  0.00  0.00    -0.345 N 
ENDROOT
BRANCH   4   5
HETATM    5  C           1     -26.132  -7.029 -17.583  0.00  0.00     0.186 C 
BRANCH   5   6
HETATM    6  C           1     -25.099  -6.739 -18.665  0.00  0.00     0.045 C 
BRANCH   6   7
HETATM    7  C           1     -25.769  -6.785 -20.033  0.00  0.00     0.105 C 
BRANCH   7   8
HETATM    8  C           1     -25.188  -7.921 -20.840  0.00  0.00     0.215 C 
HETATM    9  O           1     -25.856  -8.465 -21.686  0.00  0.00    -0.274 OA
HETATM   10  N           1     -23.903  -8.333 -20.612  0.00  0.00    -0.370 N 
HETATM   11  H           1     -23.343  -7.877 -19.903  0.00  0.00     0.159 HD
HETATM   12  H           1     -23.512  -9.094 -21.153  0.00  0.00     0.159 HD
ENDBRANCH   7   8
ENDBRANCH   6   7
ENDBRANCH   5   6
BRANCH   5  13
HETATM   13  C           1     -25.566  -6.659 -16.235  0.00  0.00     0.196 C 
HETATM   14  O           1     -25.304  -7.552 -15.400  0.00  0.00    -0.646 OA
HETATM   15  O           1     -25.357  -5.459 -15.951  0.00  0.00    -0.646 OA
ENDBRANCH   5  13
ENDBRANCH   4   5
BRANCH   2  16
HETATM   16  C           1     -29.759  -5.795 -17.519  0.00  0.00     0.284 C 
BRANCH  16  17
HETATM   17  C           1     -29.393  -4.548 -18.313  0.00  0.00     0.155 C 
BRANCH  17  18
HETATM   18  C           1     -29.179  -3.393 -17.365  0.00  0.00     0.175 C 
HETATM   19  O           1     -28.128  -3.326 -16.690  0.00  0.00    -0.648 OA
HETATM   20  O           1     -30.049  -2.502 -17.257  0.00  0.00    -0.648 OA
ENDBRANCH  17  18
ENDBRANCH  16  17
BRANCH  16  21
HETATM   21  N           1     -30.379  -5.393 -16.214  0.00  0.00    -0.066 N 
HETATM   22  H           1     -29.634  -5.058 -15.563  0.00  0.00     0.275 HD
HETATM   23  H           1     -31.069  -4.627 -16.379  0.00  0.00     0.275 HD
HETATM   24  H           1     -30.866  -6.217 -15.793  0.00  0.00     0.275 HD
ENDBRANCH  16  21
ENDBRANCH   2  16
TORSDOF 9
ENDMDL
MODEL 3
REMARK VINA RESULT:      -5.6      2.041      6.146
REMARK  9 active torsions:
REMARK  status: ('A' for Active; 'I' for Inactive)
REMARK    1  A    between atoms: C_3  and  C_21 
REMARK    2  A    between atoms: C_3  and  C_4 
REMARK    3  A    between atoms: C_3  and  N_19 
REMARK    4  A    between atoms: C_5  and  C_22 
REMARK    5  A    between atoms: C_5  and  C_24 
REMARK    6  A    between atoms: C_7  and  C_8 
REMARK    7  A    between atoms: C_7  and  C_21 
REMARK       I    between atoms: C_8  and  N_9 
REMARK       I    between atoms: C_10  and  N_19 
REMARK    8  A    between atoms: C_10  and  C_22 
REMARK    9  A    between atoms: N_13  and  C_22 
ROOT
HETATM    1  H           1     -26.030  -5.052 -16.676  0.00  0.00     0.163 HD
HETATM    2  C           1     -27.669  -5.845 -17.660  0.00  0.00     0.249 C 
HETATM    3  O           1     -28.087  -6.793 -18.281  0.00  0.00    -0.271 OA
HETATM    4  N           1     -26.380  -5.846 -17.196  0.00  0.00    -0.345 N 
ENDROOT
BRANCH   4   5
HETATM    5  C           1     -25.519  -6.984 -17.451  0.00  0.00     0.186 C 
BRANCH   5   6
HETATM    6  C           1     -24.385  -6.564 -18.377  0.00  0.00     0.045 C 
BRANCH   6   7
HETATM    7  C           1     -24.363  -7.473 -19.599  0.00  0.00     0.105 C 
BRANCH   7   8
HETATM    8  C           1     -25.487  -7.091 -20.531  0.00  0.00     0.215 C 
HETATM    9  O           1     -25.482  -6.012 -21.074  0.00  0.00    -0.274 OA
HETATM   10  N           1     -26.513  -7.968 -20.760  0.00  0.00    -0.370 N 
HETATM   11  H           1     -26.518  -8.872 -20.305  0.00  0.00     0.159 HD
HETATM   12  H           1     -27.268  -7.711 -21.385  0.00  0.00     0.159 HD
ENDBRANCH   7   8
ENDBRANCH   6   7
ENDBRANCH   5   6
BRANCH   5  13
HETATM   13  C           1     -24.946  -7.481 -16.147  0.00  0.00     0.196 C 
HETATM   14  O           1     -24.100  -8.402 -16.147  0.00  0.00    -0.646 OA
HETATM   15  O           1     -25.315  -6.973 -15.066  0.00  0.00    -0.646 OA
ENDBRANCH   5  13
ENDBRANCH   4   5
BRANCH   2  16
HETATM   16  C           1     -28.565  -4.661 -17.396  0.00  0.00     0.284 C 
BRANCH  16  17
HETATM   17  C           1     -29.508  -4.983 -16.245  0.00  0.00     0.155 C 
BRANCH  17  18
HETATM   18  C           1     -30.918  -5.107 -16.768  0.00  0.00     0.175 C 
HETATM   19  O           1     -31.680  -4.114 -16.753  0.00  0.00    -0.648 OA
HETATM   20  O           1     -31.325  -6.199 -17.219  0.00  0.00    -0.648 OA
ENDBRANCH  17  18
ENDBRANCH  16  17
BRANCH  16  21
HETATM   21  N           1     -29.366  -4.356 -18.628  0.00  0.00    -0.066 N 
HETATM   22  H           1     -30.340  -4.711 -18.507  0.00  0.00     0.275 HD
HETATM   23  H           1     -29.388  -3.322 -18.780  0.00  0.00     0.275 HD
HETATM   24  H           1     -28.924  -4.821 -19.453  0.00  0.00     0.275 HD
ENDBRANCH  16  21
ENDBRANCH   2  16
TORSDOF 9
ENDMDL
MODEL 4
REMARK VINA RESULT:      -5.5     13.563     15.042
REMARK  9 active torsions:
REMARK  status: ('A' for Active; 'I' for Inactive)
REMARK    1  A    between atoms: C_3  and  C_21 
REMARK    2  A    between atoms: C_3  and  C_4 
REMARK    3  A    between atoms: C_3  and  N_19 
REMARK    4  A    between atoms: C_5  and  C_22 
REMARK    5  A    between atoms: C_5  and  C_24 
REMARK    6  A    between atoms: C_7  and  C_8 
REMARK    7  A    between atoms: C_7  and  C_21 
REMARK       I    between atoms: C_8  and  N_9 
REMARK       I    between atoms: C_10  and  N_19 
REMARK    8  A    between atoms: C_10  and  C_22 
REMARK    9  A    between atoms: N_13  and  C_22 
ROOT
HETATM    1  H           1     -22.384  -6.877  -6.703  0.00  0.00     0.163 HD
HETATM    2  C           1     -21.640  -4.966  -6.982  0.00  0.00     0.249 C 
HETATM    3  O           1     -20.925  -4.106  -6.526  0.00  0.00    -0.271 OA
HETATM    4  N           1     -21.785  -6.157  -6.321  0.00  0.00    -0.345 N 
ENDROOT
BRANCH   4   5
HETATM    5  C           1     -21.081  -6.384  -5.075  0.00  0.00     0.186 C 
BRANCH   5   6
HETATM    6  C           1     -22.089  -6.685  -3.972  0.00  0.00     0.045 C 
BRANCH   6   7
HETATM    7  C           1     -21.628  -6.039  -2.672  0.00  0.00     0.105 C 
BRANCH   7   8
HETATM    8  C           1     -21.833  -7.005  -1.530  0.00  0.00     0.215 C 
HETATM    9  O           1     -22.745  -6.840  -0.756  0.00  0.00    -0.274 OA
HETATM   10  N           1     -20.984  -8.067  -1.373  0.00  0.00    -0.370 N 
HETATM   11  H           1     -20.220  -8.205  -2.021  0.00  0.00     0.159 HD
HETATM   12  H           1     -21.121  -8.716  -0.607  0.00  0.00     0.159 HD
ENDBRANCH   7   8
ENDBRANCH   6   7
ENDBRANCH   5   6
BRANCH   5  13
HETATM   13  C           1     -20.144  -7.555  -5.234  0.00  0.00     0.196 C 
HETATM   14  O           1     -19.446  -7.661  -6.265  0.00  0.00    -0.646 OA
HETATM   15  O           1     -20.064  -8.421  -4.335  0.00  0.00    -0.646 OA
ENDBRANCH   5  13
ENDBRANCH   4   5
BRANCH   2  16
HETATM   16  C           1     -22.374  -4.729  -8.279  0.00  0.00     0.284 C 
BRANCH  16  17
HETATM   17  C           1     -21.500  -3.903  -9.213  0.00  0.00     0.155 C 
BRANCH  17  18
HETATM   18  C           1     -22.111  -3.888 -10.593  0.00  0.00     0.175 C 
HETATM   19  O           1     -21.595  -4.562 -11.512  0.00  0.00    -0.648 OA
HETATM   20  O           1     -23.132  -3.204 -10.818  0.00  0.00    -0.648 OA
ENDBRANCH  17  18
ENDBRANCH  16  17
BRANCH  16  21
HETATM   21  N           1     -23.650  -3.990  -8.004  0.00  0.00    -0.066 N 
HETATM   22  H           1     -23.448  -3.158  -7.406  0.00  0.00     0.275 HD
HETATM   23  H           1     -24.071  -3.676  -8.907  0.00  0.00     0.275 HD
HETATM   24  H           1     -24.318  -4.623  -7.509  0.00  0.00     0.275 HD
ENDBRANCH  16  21
ENDBRANCH   2  16
TORSDOF 9
ENDMDL
MODEL 5
REMARK VINA RESULT:      -5.5     13.272     15.056
REMARK  9 active torsions:
REMARK  status: ('A' for Active; 'I' for Inactive)
REMARK    1  A    between atoms: C_3  and  C_21 
REMARK    2  A    between atoms: C_3  and  C_4 
REMARK    3  A    between atoms: C_3  and  N_19 
REMARK    4  A    between atoms: C_5  and  C_22 
REMARK    5  A    between atoms: C_5  and  C_24 
REMARK    6  A    between atoms: C_7  and  C_8 
REMARK    7  A    between atoms: C_7  and  C_21 
REMARK       I    between atoms: C_8  and  N_9 
REMARK       I    between atoms: C_10  and  N_19 
REMARK    8  A    between atoms: C_10  and  C_22 
REMARK    9  A    between atoms: N_13  and  C_22 
ROOT
HETATM    1  H           1     -22.219  -4.823  -5.543  0.00  0.00     0.163 HD
HETATM    2  C           1     -21.611  -6.790  -5.744  0.00  0.00     0.249 C 
HETATM    3  O           1     -21.105  -7.599  -6.485  0.00  0.00    -0.271 OA
HETATM    4  N           1     -21.796  -5.500  -6.163  0.00  0.00    -0.345 N 
ENDROOT
BRANCH   4   5
HETATM    5  C           1     -21.384  -5.105  -7.497  0.00  0.00     0.186 C 
BRANCH   5   6
HETATM    6  C           1     -22.415  -4.147  -8.081  0.00  0.00     0.045 C 
BRANCH   6   7
HETATM    7  C           1     -22.761  -4.577  -9.501  0.00  0.00     0.105 C 
BRANCH   7   8
HETATM    8  C           1     -24.028  -3.884  -9.941  0.00  0.00     0.215 C 
HETATM    9  O           1     -24.397  -3.970 -11.088  0.00  0.00    -0.274 OA
HETATM   10  N           1     -24.759  -3.158  -9.039  0.00  0.00    -0.370 N 
HETATM   11  H           1     -24.450  -3.086  -8.078  0.00  0.00     0.159 HD
HETATM   12  H           1     -25.608  -2.693  -9.334  0.00  0.00     0.159 HD
ENDBRANCH   7   8
ENDBRANCH   6   7
ENDBRANCH   5   6
BRANCH   5  13
HETATM   13  C           1     -20.043  -4.420  -7.425  0.00  0.00     0.196 C 
HETATM   14  O           1     -19.336  -4.536  -6.401  0.00  0.00    -0.646 OA
HETATM   15  O           1     -19.637  -3.736  -8.390  0.00  0.00    -0.646 OA
ENDBRANCH   5  13
ENDBRANCH   4   5
BRANCH   2  16
HETATM   16  C           1     -22.039  -7.202  -4.357  0.00  0.00     0.284 C 
BRANCH  16  17
HETATM   17  C           1     -21.396  -6.279  -3.331  0.00  0.00     0.155 C 
BRANCH  17  18
HETATM   18  C           1     -21.646  -6.816  -1.943  0.00  0.00     0.175 C 
HETATM   19  O           1     -20.873  -7.670  -1.455  0.00  0.00    -0.648 OA
HETATM   20  O           1     -22.624  -6.407  -1.281  0.00  0.00    -0.648 OA
ENDBRANCH  17  18
ENDBRANCH  16  17
BRANCH  16  21
HETATM   21  N           1     -21.607  -8.615  -4.099  0.00  0.00    -0.066 N 
HETATM   22  H           1     -22.300  -9.083  -3.472  0.00  0.00     0.275 HD
HETATM   23  H           1     -21.552  -9.132  -5.005  0.00  0.00     0.275 HD
HETATM   24  H           1     -20.668  -8.613  -3.641  0.00  0.00     0.275 HD
ENDBRANCH  16  21
ENDBRANCH   2  16
TORSDOF 9
ENDMDL
MODEL 6
REMARK VINA RESULT:      -5.3     12.284     13.959
REMARK  9 active torsions:
REMARK  status: ('A' for Active; 'I' for Inactive)
REMARK    1  A    between atoms: C_3  and  C_21 
REMARK    2  A    between atoms: C_3  and  C_4 
REMARK    3  A    between atoms: C_3  and  N_19 
REMARK    4  A    between atoms: C_5  and  C_22 
REMARK    5  A    between atoms: C_5  and  C_24 
REMARK    6  A    between atoms: C_7  and  C_8 
REMARK    7  A    between atoms: C_7  and  C_21 
REMARK       I    between atoms: C_8  and  N_9 
REMARK       I    between atoms: C_10  and  N_19 
REMARK    8  A    between atoms: C_10  and  C_22 
REMARK    9  A    between atoms: N_13  and  C_22 
ROOT
HETATM    1  H           1     -21.074  -5.634  -8.595  0.00  0.00     0.163 HD
HETATM    2  C           1     -22.879  -4.691  -8.229  0.00  0.00     0.249 C 
HETATM    3  O           1     -23.607  -4.243  -7.375  0.00  0.00    -0.271 OA
HETATM    4  N           1     -21.683  -5.259  -7.880  0.00  0.00    -0.345 N 
ENDROOT
BRANCH   4   5
HETATM    5  C           1     -21.290  -5.323  -6.486  0.00  0.00     0.186 C 
BRANCH   5   6
HETATM    6  C           1     -21.260  -6.778  -6.035  0.00  0.00     0.045 C 
BRANCH   6   7
HETATM    7  C           1     -22.296  -6.992  -4.939  0.00  0.00     0.105 C 
BRANCH   7   8
HETATM    8  C           1     -21.632  -6.868  -3.588  0.00  0.00     0.215 C 
HETATM    9  O           1     -20.647  -7.520  -3.337  0.00  0.00    -0.274 OA
HETATM   10  N           1     -22.148  -6.015  -2.650  0.00  0.00    -0.370 N 
HETATM   11  H           1     -22.973  -5.469  -2.860  0.00  0.00     0.159 HD
HETATM   12  H           1     -21.703  -5.932  -1.744  0.00  0.00     0.159 HD
ENDBRANCH   7   8
ENDBRANCH   6   7
ENDBRANCH   5   6
BRANCH   5  13
HETATM   13  C           1     -19.919  -4.716  -6.323  0.00  0.00     0.196 C 
HETATM   14  O           1     -19.502  -4.411  -5.184  0.00  0.00    -0.646 OA
HETATM   15  O           1     -19.198  -4.519  -7.325  0.00  0.00    -0.646 OA
ENDBRANCH   5  13
ENDBRANCH   4   5
BRANCH   2  16
HETATM   16  C           1     -23.289  -4.625  -9.679  0.00  0.00     0.284 C 
BRANCH  16  17
HETATM   17  C           1     -22.591  -3.452 -10.352  0.00  0.00     0.155 C 
BRANCH  17  18
HETATM   18  C           1     -21.540  -3.969 -11.303  0.00  0.00     0.175 C 
HETATM   19  O           1     -20.531  -4.560 -10.859  0.00  0.00    -0.648 OA
HETATM   20  O           1     -21.677  -3.810 -12.535  0.00  0.00    -0.648 OA
ENDBRANCH  17  18
ENDBRANCH  16  17
BRANCH  16  21
HETATM   21  N           1     -24.775  -4.442  -9.771  0.00  0.00    -0.066 N 
HETATM   22  H           1     -24.986  -3.504 -10.179  0.00  0.00     0.275 HD
HETATM   23  H           1     -25.180  -5.187 -10.382  0.00  0.00     0.275 HD
HETATM   24  H           1     -25.193  -4.509  -8.816  0.00  0.00     0.275 HD
ENDBRANCH  16  21
ENDBRANCH   2  16
TORSDOF 9
ENDMDL
MODEL 7
REMARK VINA RESULT:      -5.2     19.510     21.674
REMARK  9 active torsions:
REMARK  status: ('A' for Active; 'I' for Inactive)
REMARK    1  A    between atoms: C_3  and  C_21 
REMARK    2  A    between atoms: C_3  and  C_4 
REMARK    3  A    between atoms: C_3  and  N_19 
REMARK    4  A    between atoms: C_5  and  C_22 
REMARK    5  A    between atoms: C_5  and  C_24 
REMARK    6  A    between atoms: C_7  and  C_8 
REMARK    7  A    between atoms: C_7  and  C_21 
REMARK       I    between atoms: C_8  and  N_9 
REMARK       I    between atoms: C_10  and  N_19 
REMARK    8  A    between atoms: C_10  and  C_22 
REMARK    9  A    between atoms: N_13  and  C_22 
ROOT
HETATM    1  H           1     -12.565   7.263 -19.572  0.00  0.00     0.163 HD
HETATM    2  C           1     -12.238   7.668 -21.575  0.00  0.00     0.249 C 
HETATM    3  O           1     -12.162   7.190 -22.682  0.00  0.00    -0.271 OA
HETATM    4  N           1     -12.501   6.863 -20.499  0.00  0.00    -0.345 N 
ENDROOT
BRANCH   4   5
HETATM    5  C           1     -12.688   5.438 -20.688  0.00  0.00     0.186 C 
BRANCH   5   6
HETATM    6  C           1     -11.959   4.681 -19.585  0.00  0.00     0.045 C 
BRANCH   6   7
HETATM    7  C           1     -10.525   4.405 -20.019  0.00  0.00     0.105 C 
BRANCH   7   8
HETATM    8  C           1      -9.615   5.467 -19.453  0.00  0.00     0.215 C 
HETATM    9  O           1      -8.945   6.146 -20.193  0.00  0.00    -0.274 OA
HETATM   10  N           1      -9.548   5.659 -18.099  0.00  0.00    -0.370 N 
HETATM   11  H           1     -10.109   5.090 -17.478  0.00  0.00     0.159 HD
HETATM   12  H           1      -8.937   6.371 -17.719  0.00  0.00     0.159 HD
ENDBRANCH   7   8
ENDBRANCH   6   7
ENDBRANCH   5   6
BRANCH   5  13
HETATM   13  C           1     -14.160   5.113 -20.634  0.00  0.00     0.196 C 
HETATM   14  O           1     -14.810   5.331 -19.589  0.00  0.00    -0.646 OA
HETATM   15  O           1     -14.730   4.625 -21.634  0.00  0.00    -0.646 OA
ENDBRANCH   5  13
ENDBRANCH   4   5
BRANCH   2  16
HETATM   16  C           1     -12.043   9.151 -21.379  0.00  0.00     0.284 C 
BRANCH  16  17
HETATM   17  C           1     -11.882   9.450 -19.895  0.00  0.00     0.155 C 
BRANCH  17  18
HETATM   18  C           1     -10.435   9.281 -19.501  0.00  0.00     0.175 C 
HETATM   19  O           1     -10.143   8.798 -18.384  0.00  0.00    -0.648 OA
HETATM   20  O           1      -9.528   9.621 -20.290  0.00  0.00    -0.648 OA
ENDBRANCH  17  18
ENDBRANCH  16  17
BRANCH  16  21
HETATM   21  N           1     -13.237   9.887 -21.910  0.00  0.00    -0.066 N 
HETATM   22  H           1     -13.870   9.216 -22.401  0.00  0.00     0.275 HD
HETATM   23  H           1     -13.750  10.335 -21.118  0.00  0.00     0.275 HD
HETATM   24  H           1     -12.921  10.624 -22.581  0.00  0.00     0.275 HD
ENDBRANCH  16  21
ENDBRANCH   2  16
TORSDOF 9
ENDMDL
MODEL 8
REMARK VINA RESULT:      -5.0     15.890     17.367
REMARK  9 active torsions:
REMARK  status: ('A' for Active; 'I' for Inactive)
REMARK    1  A    between atoms: C_3  and  C_21 
REMARK    2  A    between atoms: C_3  and  C_4 
REMARK    3  A    between atoms: C_3  and  N_19 
REMARK    4  A    between atoms: C_5  and  C_22 
REMARK    5  A    between atoms: C_5  and  C_24 
REMARK    6  A    between atoms: C_7  and  C_8 
REMARK    7  A    between atoms: C_7  and  C_21 
REMARK       I    between atoms: C_8  and  N_9 
REMARK       I    between atoms: C_10  and  N_19 
REMARK    8  A    between atoms: C_10  and  C_22 
REMARK    9  A    between atoms: N_13  and  C_22 
ROOT
HETATM    1  H           1     -19.798  -6.958  -3.195  0.00  0.00     0.163 HD
HETATM    2  C           1     -21.221  -6.919  -4.697  0.00  0.00     0.249 C 
HETATM    3  O           1     -22.363  -7.187  -4.986  0.00  0.00    -0.271 OA
HETATM    4  N           1     -20.754  -7.182  -3.437  0.00  0.00    -0.345 N 
ENDROOT
BRANCH   4   5
HETATM    5  C           1     -21.631  -7.782  -2.450  0.00  0.00     0.186 C 
BRANCH   5   6
HETATM    6  C           1     -20.834  -8.757  -1.592  0.00  0.00     0.045 C 
BRANCH   6   7
HETATM    7  C           1     -21.493 -10.130  -1.637  0.00  0.00     0.105 C 
BRANCH   7   8
HETATM    8  C           1     -22.178 -10.402  -0.320  0.00  0.00     0.215 C 
HETATM    9  O           1     -21.583 -10.969   0.565  0.00  0.00    -0.274 OA
HETATM   10  N           1     -23.475 -10.007  -0.130  0.00  0.00    -0.370 N 
HETATM   11  H           1     -23.973  -9.532  -0.872  0.00  0.00     0.159 HD
HETATM   12  H           1     -23.935 -10.189   0.753  0.00  0.00     0.159 HD
ENDBRANCH   7   8
ENDBRANCH   6   7
ENDBRANCH   5   6
BRANCH   5  13
HETATM   13  C           1     -22.214  -6.701  -1.574  0.00  0.00     0.196 C 
HETATM   14  O           1     -22.081  -5.500  -1.893  0.00  0.00    -0.646 OA
HETATM   15  O           1     -22.831  -7.006  -0.530  0.00  0.00    -0.646 OA
ENDBRANCH   5  13
ENDBRANCH   4   5
BRANCH   2  16
HETATM   16  C           1     -20.310  -6.296  -5.725  0.00  0.00     0.284 C 
BRANCH  16  17
HETATM   17  C           1     -20.334  -4.781  -5.574  0.00  0.00     0.155 C 
BRANCH  17  18
HETATM   18  C           1     -20.647  -4.147  -6.907  0.00  0.00     0.175 C 
HETATM   19  O           1     -21.813  -3.768  -7.160  0.00  0.00    -0.648 OA
HETATM   20  O           1     -19.744  -3.997  -7.757  0.00  0.00    -0.648 OA
ENDBRANCH  17  18
ENDBRANCH  16  17
BRANCH  16  21
HETATM   21  N           1     -20.778  -6.669  -7.100  0.00  0.00    -0.066 N 
HETATM   22  H           1     -21.386  -7.517  -7.044  0.00  0.00     0.275 HD
HETATM   23  H           1     -21.323  -5.876  -7.508  0.00  0.00     0.275 HD
HETATM   24  H           1     -19.951  -6.871  -7.706  0.00  0.00     0.275 HD
ENDBRANCH  16  21
ENDBRANCH   2  16
TORSDOF 9
ENDMDL
MODEL 9
REMARK VINA RESULT:      -5.0     14.291     16.141
REMARK  9 active torsions:
REMARK  status: ('A' for Active; 'I' for Inactive)
REMARK    1  A    between atoms: C_3  and  C_21 
REMARK    2  A    between atoms: C_3  and  C_4 
REMARK    3  A    between atoms: C_3  and  N_19 
REMARK    4  A    between atoms: C_5  and  C_22 
REMARK    5  A    between atoms: C_5  and  C_24 
REMARK    6  A    between atoms: C_7  and  C_8 
REMARK    7  A    between atoms: C_7  and  C_21 
REMARK       I    between atoms: C_8  and  N_9 
REMARK       I    between atoms: C_10  and  N_19 
REMARK    8  A    between atoms: C_10  and  C_22 
REMARK    9  A    between atoms: N_13  and  C_22 
ROOT
HETATM    1  H           1     -19.797  -6.491  -4.876  0.00  0.00     0.163 HD
HETATM    2  C           1     -21.416  -5.545  -5.752  0.00  0.00     0.249 C 
HETATM    3  O           1     -22.621  -5.494  -5.809  0.00  0.00    -0.271 OA
HETATM    4  N           1     -20.807  -6.449  -4.924  0.00  0.00    -0.345 N 
ENDROOT
BRANCH   4   5
HETATM    5  C           1     -21.610  -7.345  -4.114  0.00  0.00     0.186 C 
BRANCH   5   6
HETATM    6  C           1     -21.019  -8.748  -4.175  0.00  0.00     0.045 C 
BRANCH   6   7
HETATM    7  C           1     -19.689  -8.708  -4.918  0.00  0.00     0.105 C 
BRANCH   7   8
HETATM    8  C           1     -18.626  -9.380  -4.084  0.00  0.00     0.215 C 
HETATM    9  O           1     -17.788 -10.070  -4.615  0.00  0.00    -0.274 OA
HETATM   10  N           1     -18.613  -9.208  -2.726  0.00  0.00    -0.370 N 
HETATM   11  H           1     -19.315  -8.631  -2.282  0.00  0.00     0.159 HD
HETATM   12  H           1     -17.900  -9.659  -2.166  0.00  0.00     0.159 HD
ENDBRANCH   7   8
ENDBRANCH   6   7
ENDBRANCH   5   6
BRANCH   5  13
HETATM   13  C           1     -21.614  -6.862  -2.685  0.00  0.00     0.196 C 
HETATM   14  O           1     -20.856  -7.393  -1.844  0.00  0.00    -0.646 OA
HETATM   15  O           1     -22.375  -5.932  -2.340  0.00  0.00    -0.646 OA
ENDBRANCH   5  13
ENDBRANCH   4   5
BRANCH   2  16
HETATM   16  C           1     -20.581  -4.612  -6.595  0.00  0.00     0.284 C 
BRANCH  16  17
HETATM   17  C           1     -21.496  -3.701  -7.403  0.00  0.00     0.155 C 
BRANCH  17  18
HETATM   18  C           1     -21.530  -4.165  -8.838  0.00  0.00     0.175 C 
HETATM   19  O           1     -22.429  -4.946  -9.221  0.00  0.00    -0.648 OA
HETATM   20  O           1     -20.662  -3.769  -9.645  0.00  0.00    -0.648 OA
ENDBRANCH  17  18
ENDBRANCH  16  17
BRANCH  16  21
HETATM   21  N           1     -19.724  -5.415  -7.529  0.00  0.00    -0.066 N 
HETATM   22  H           1     -19.611  -4.898  -8.430  0.00  0.00     0.275 HD
HETATM   23  H           1     -18.787  -5.567  -7.095  0.00  0.00     0.275 HD
HETATM   24  H           1     -20.179  -6.338  -7.711  0.00  0.00     0.275 HD
ENDBRANCH  16  21
ENDBRANCH   2  16
TORSDOF 9
ENDMDL
