MODEL 1
REMARK VINA RESULT:      -6.9      0.000      0.000
REMARK  8 active torsions:
REMARK  status: ('A' for Active; 'I' for Inactive)
REMARK    1  A    between atoms: C_2  and  C_4 
REMARK    2  A    between atoms: C_4  and  C_5 
REMARK    3  A    between atoms: C_4  and  N_12 
REMARK    4  A    between atoms: C_5  and  C_18 
REMARK    5  A    between atoms: N_7  and  C_10 
REMARK    6  A    between atoms: Se_8  and  C_9 
REMARK    7  A    between atoms: C_9  and  C_10 
REMARK    8  A    between atoms: C_10  and  C_11 
REMARK       I    between atoms: C_11  and  N_12 
ROOT
HETATM    1  O           1     -35.091  -1.611 -14.191  0.00  0.00    -0.271 OA
HETATM    2  C           1     -35.772  -0.824 -13.576  0.00  0.00     0.249 C 
HETATM    3  N           1     -36.634  -1.273 -12.612  0.00  0.00    -0.344 N 
HETATM    4  H           1     -37.585  -1.517 -12.857  0.00  0.00     0.163 HD
ENDROOT
BRANCH   3   5
HETATM    5  C           1     -36.184  -1.397 -11.239  0.00  0.00     0.189 C 
BRANCH   5   6
HETATM    6  C           1     -36.624  -0.185 -10.455  0.00  0.00     0.197 C 
HETATM    7  O           1     -36.056   0.103  -9.378  0.00  0.00    -0.646 OA
HETATM    8  O           1     -37.556   0.530 -10.880  0.00  0.00    -0.646 OA
ENDBRANCH   5   6
BRANCH   5   9
HETATM    9  C           1     -34.665  -1.498 -11.210  0.00  0.00     0.074 C 
BRANCH   9  10
HETATM   10  C           1     -34.259  -2.938 -11.199  0.00  0.00    -0.056 A 
HETATM   11  C           1     -33.003  -3.313 -11.673  0.00  0.00     0.007 A 
HETATM   12  C           1     -32.625  -4.656 -11.662  0.00  0.00     0.001 A 
HETATM   13  C           1     -33.504  -5.624 -11.177  0.00  0.00     0.000 A 
HETATM   14  C           1     -34.760  -5.249 -10.701  0.00  0.00     0.001 A 
HETATM   15  C           1     -35.138  -3.906 -10.712  0.00  0.00     0.007 A 
ENDBRANCH   9  10
ENDBRANCH   5   9
ENDBRANCH   3   5
BRANCH   2  16
HETATM   16  C           1     -35.673   0.652 -13.874  0.00  0.00     0.274 C 
BRANCH  16  17
HETATM   17  N           1     -34.265   1.114 -13.638  0.00  0.00    -0.067 N 
HETATM   18  H           1     -34.028   1.007 -12.626  0.00  0.00     0.275 HD
HETATM   19  H           1     -33.609   0.537 -14.211  0.00  0.00     0.275 HD
HETATM   20  H           1     -34.178   2.118 -13.912  0.00  0.00     0.275 HD
ENDBRANCH  16  17
BRANCH  16  21
HETATM   21  C           1     -36.053   0.905 -15.326  0.00  0.00     0.045 C 
BRANCH  21  22
HETATM   22 Se           1     -37.874   0.284 -15.639  0.00  0.00     0.000 Se
HETATM   23  H           1     -37.871   0.634 -17.069  0.00  0.00     0.000 HD
ENDBRANCH  21  22
ENDBRANCH  16  21
ENDBRANCH   2  16
TORSDOF 8
ENDMDL
MODEL 2
REMARK VINA RESULT:      -6.5     14.786     16.583
REMARK  8 active torsions:
REMARK  status: ('A' for Active; 'I' for Inactive)
REMARK    1  A    between atoms: C_2  and  C_4 
REMARK    2  A    between atoms: C_4  and  C_5 
REMARK    3  A    between atoms: C_4  and  N_12 
REMARK    4  A    between atoms: C_5  and  C_18 
REMARK    5  A    between atoms: N_7  and  C_10 
REMARK    6  A    between atoms: Se_8  and  C_9 
REMARK    7  A    between atoms: C_9  and  C_10 
REMARK    8  A    between atoms: C_10  and  C_11 
REMARK       I    between atoms: C_11  and  N_12 
ROOT
HETATM    1  O           1     -20.873  -5.855  -3.894  0.00  0.00    -0.271 OA
HETATM    2  C           1     -21.607  -6.393  -4.689  0.00  0.00     0.249 C 
HETATM    3  N           1     -22.201  -5.657  -5.679  0.00  0.00    -0.344 N 
HETATM    4  H           1     -23.103  -5.228  -5.519  0.00  0.00     0.163 HD
ENDROOT
BRANCH   3   5
HETATM    5  C           1     -21.536  -5.493  -6.957  0.00  0.00     0.189 C 
BRANCH   5   6
HETATM    6  C           1     -20.043  -5.582  -6.762  0.00  0.00     0.197 C 
HETATM    7  O           1     -19.399  -4.576  -6.391  0.00  0.00    -0.646 OA
HETATM    8  O           1     -19.448  -6.661  -6.973  0.00  0.00    -0.646 OA
ENDBRANCH   5   6
BRANCH   5   9
HETATM    9  C           1     -21.892  -4.134  -7.543  0.00  0.00     0.074 C 
BRANCH   9  10
HETATM   10  C           1     -21.870  -4.212  -9.038  0.00  0.00    -0.056 A 
HETATM   11  C           1     -20.691  -3.947  -9.734  0.00  0.00     0.007 A 
HETATM   12  C           1     -20.672  -4.020 -11.127  0.00  0.00     0.001 A 
HETATM   13  C           1     -21.831  -4.360 -11.824  0.00  0.00     0.000 A 
HETATM   14  C           1     -23.010  -4.626 -11.128  0.00  0.00     0.001 A 
HETATM   15  C           1     -23.030  -4.552  -9.735  0.00  0.00     0.007 A 
ENDBRANCH   9  10
ENDBRANCH   5   9
ENDBRANCH   3   5
BRANCH   2  16
HETATM   16  C           1     -21.871  -7.875  -4.588  0.00  0.00     0.274 C 
BRANCH  16  17
HETATM   17  N           1     -21.087  -8.594  -5.647  0.00  0.00    -0.067 N 
HETATM   18  H           1     -21.209  -8.105  -6.563  0.00  0.00     0.275 HD
HETATM   19  H           1     -20.075  -8.598  -5.388  0.00  0.00     0.275 HD
HETATM   20  H           1     -21.432  -9.577  -5.727  0.00  0.00     0.275 HD
ENDBRANCH  16  17
BRANCH  16  21
HETATM   21  C           1     -21.446  -8.376  -3.215  0.00  0.00     0.045 C 
BRANCH  21  22
HETATM   22 Se           1     -19.716  -9.264  -3.352  0.00  0.00     0.000 Se
HETATM   23  H           1     -20.086 -10.375  -2.461  0.00  0.00     0.000 HD
ENDBRANCH  21  22
ENDBRANCH  16  21
ENDBRANCH   2  16
TORSDOF 8
ENDMDL
MODEL 3
REMARK VINA RESULT:      -6.3      2.448      4.547
REMARK  8 active torsions:
REMARK  status: ('A' for Active; 'I' for Inactive)
REMARK    1  A    between atoms: C_2  and  C_4 
REMARK    2  A    between atoms: C_4  and  C_5 
REMARK    3  A    between atoms: C_4  and  N_12 
REMARK    4  A    between atoms: C_5  and  C_18 
REMARK    5  A    between atoms: N_7  and  C_10 
REMARK    6  A    between atoms: Se_8  and  C_9 
REMARK    7  A    between atoms: C_9  and  C_10 
REMARK    8  A    between atoms: C_10  and  C_11 
REMARK       I    between atoms: C_11  and  N_12 
ROOT
HETATM    1  O           1     -35.028  -1.682 -13.707  0.00  0.00    -0.271 OA
HETATM    2  C           1     -35.780  -0.752 -13.534  0.00  0.00     0.249 C 
HETATM    3  N           1     -36.811  -0.863 -12.639  0.00  0.00    -0.344 N 
HETATM    4  H           1     -37.712  -1.207 -12.946  0.00  0.00     0.163 HD
ENDROOT
BRANCH   3   5
HETATM    5  C           1     -36.611  -0.486 -11.253  0.00  0.00     0.189 C 
BRANCH   5   6
HETATM    6  C           1     -35.895  -1.599 -10.528  0.00  0.00     0.197 C 
HETATM    7  O           1     -36.371  -2.756 -10.532  0.00  0.00    -0.646 OA
HETATM    8  O           1     -34.828  -1.366  -9.922  0.00  0.00    -0.646 OA
ENDBRANCH   5   6
BRANCH   5   9
HETATM    9  C           1     -37.961  -0.236 -10.596  0.00  0.00     0.074 C 
BRANCH   9  10
HETATM   10  C           1     -37.753   0.228  -9.188  0.00  0.00    -0.056 A 
HETATM   11  C           1     -38.063  -0.616  -8.122  0.00  0.00     0.007 A 
HETATM   12  C           1     -37.869  -0.183  -6.810  0.00  0.00     0.001 A 
HETATM   13  C           1     -37.365   1.095  -6.564  0.00  0.00     0.000 A 
HETATM   14  C           1     -37.054   1.938  -7.631  0.00  0.00     0.001 A 
HETATM   15  C           1     -37.248   1.505  -8.943  0.00  0.00     0.007 A 
ENDBRANCH   9  10
ENDBRANCH   5   9
ENDBRANCH   3   5
BRANCH   2  16
HETATM   16  C           1     -35.584   0.530 -14.306  0.00  0.00     0.274 C 
BRANCH  16  17
HETATM   17  N           1     -34.298   0.456 -15.074  0.00  0.00    -0.067 N 
HETATM   18  H           1     -33.508   0.765 -14.463  0.00  0.00     0.275 HD
HETATM   19  H           1     -34.132  -0.528 -15.383  0.00  0.00     0.275 HD
HETATM   20  H           1     -34.356   1.080 -15.910  0.00  0.00     0.275 HD
ENDBRANCH  16  17
BRANCH  16  21
HETATM   21  C           1     -36.743   0.724 -15.274  0.00  0.00     0.045 C 
BRANCH  21  22
HETATM   22 Se           1     -36.761  -0.734 -16.568  0.00  0.00     0.000 Se
HETATM   23  H           1     -35.397  -0.473 -17.055  0.00  0.00     0.000 HD
ENDBRANCH  21  22
ENDBRANCH  16  21
ENDBRANCH   2  16
TORSDOF 8
ENDMDL
MODEL 4
REMARK VINA RESULT:      -6.3     17.301     19.143
REMARK  8 active torsions:
REMARK  status: ('A' for Active; 'I' for Inactive)
REMARK    1  A    between atoms: C_2  and  C_4 
REMARK    2  A    between atoms: C_4  and  C_5 
REMARK    3  A    between atoms: C_4  and  N_12 
REMARK    4  A    between atoms: C_5  and  C_18 
REMARK    5  A    between atoms: N_7  and  C_10 
REMARK    6  A    between atoms: Se_8  and  C_9 
REMARK    7  A    between atoms: C_9  and  C_10 
REMARK    8  A    between atoms: C_10  and  C_11 
REMARK       I    between atoms: C_11  and  N_12 
ROOT
HETATM    1  O           1     -19.562 -10.055  -5.931  0.00  0.00    -0.271 OA
HETATM    2  C           1     -19.405  -9.595  -4.825  0.00  0.00     0.249 C 
HETATM    3  N           1     -19.707  -8.282  -4.581  0.00  0.00    -0.344 N 
HETATM    4  H           1     -18.999  -7.569  -4.702  0.00  0.00     0.163 HD
ENDROOT
BRANCH   3   5
HETATM    5  C           1     -21.041  -7.913  -4.148  0.00  0.00     0.189 C 
BRANCH   5   6
HETATM    6  C           1     -21.695  -7.062  -5.208  0.00  0.00     0.197 C 
HETATM    7  O           1     -22.656  -6.319  -4.910  0.00  0.00    -0.646 OA
HETATM    8  O           1     -21.279  -7.101  -6.386  0.00  0.00    -0.646 OA
ENDBRANCH   5   6
BRANCH   5   9
HETATM    9  C           1     -20.953  -7.127  -2.848  0.00  0.00     0.074 C 
BRANCH   9  10
HETATM   10  C           1     -21.719  -7.842  -1.778  0.00  0.00    -0.056 A 
HETATM   11  C           1     -21.866  -9.228  -1.833  0.00  0.00     0.007 A 
HETATM   12  C           1     -22.580  -9.893  -0.836  0.00  0.00     0.001 A 
HETATM   13  C           1     -23.146  -9.173   0.216  0.00  0.00     0.000 A 
HETATM   14  C           1     -22.997  -7.787   0.271  0.00  0.00     0.001 A 
HETATM   15  C           1     -22.284  -7.121  -0.726  0.00  0.00     0.007 A 
ENDBRANCH   9  10
ENDBRANCH   5   9
ENDBRANCH   3   5
BRANCH   2  16
HETATM   16  C           1     -18.876 -10.468  -3.713  0.00  0.00     0.274 C 
BRANCH  16  17
HETATM   17  N           1     -17.986 -11.527  -4.293  0.00  0.00    -0.067 N 
HETATM   18  H           1     -18.546 -12.150  -4.918  0.00  0.00     0.275 HD
HETATM   19  H           1     -17.223 -11.076  -4.846  0.00  0.00     0.275 HD
HETATM   20  H           1     -17.569 -12.093  -3.520  0.00  0.00     0.275 HD
ENDBRANCH  16  17
BRANCH  16  21
HETATM   21  C           1     -18.080  -9.617  -2.733  0.00  0.00     0.045 C 
BRANCH  21  22
HETATM   22 Se           1     -16.186  -9.702  -3.186  0.00  0.00     0.000 Se
HETATM   23  H           1     -16.405 -10.384  -4.471  0.00  0.00     0.000 HD
ENDBRANCH  21  22
ENDBRANCH  16  21
ENDBRANCH   2  16
TORSDOF 8
ENDMDL
MODEL 5
REMARK VINA RESULT:      -6.3     15.446     17.485
REMARK  8 active torsions:
REMARK  status: ('A' for Active; 'I' for Inactive)
REMARK    1  A    between atoms: C_2  and  C_4 
REMARK    2  A    between atoms: C_4  and  C_5 
REMARK    3  A    between atoms: C_4  and  N_12 
REMARK    4  A    between atoms: C_5  and  C_18 
REMARK    5  A    between atoms: N_7  and  C_10 
REMARK    6  A    between atoms: Se_8  and  C_9 
REMARK    7  A    between atoms: C_9  and  C_10 
REMARK    8  A    between atoms: C_10  and  C_11 
REMARK       I    between atoms: C_11  and  N_12 
ROOT
HETATM    1  O           1     -21.548  -5.424  -2.391  0.00  0.00    -0.271 OA
HETATM    2  C           1     -21.892  -6.495  -2.834  0.00  0.00     0.249 C 
HETATM    3  N           1     -22.530  -6.562  -4.043  0.00  0.00    -0.344 N 
HETATM    4  H           1     -23.539  -6.504  -4.086  0.00  0.00     0.163 HD
ENDROOT
BRANCH   3   5
HETATM    5  C           1     -21.759  -6.717  -5.261  0.00  0.00     0.189 C 
BRANCH   5   6
HETATM    6  C           1     -20.919  -7.966  -5.169  0.00  0.00     0.197 C 
HETATM    7  O           1     -21.461  -9.091  -5.238  0.00  0.00    -0.646 OA
HETATM    8  O           1     -19.681  -7.879  -5.023  0.00  0.00    -0.646 OA
ENDBRANCH   5   6
BRANCH   5   9
HETATM    9  C           1     -20.853  -5.508  -5.445  0.00  0.00     0.074 C 
BRANCH   9  10
HETATM   10  C           1     -20.984  -4.992  -6.845  0.00  0.00    -0.056 A 
HETATM   11  C           1     -22.192  -4.447  -7.278  0.00  0.00     0.007 A 
HETATM   12  C           1     -22.313  -3.967  -8.582  0.00  0.00     0.001 A 
HETATM   13  C           1     -21.226  -4.032  -9.453  0.00  0.00     0.000 A 
HETATM   14  C           1     -20.017  -4.576  -9.020  0.00  0.00     0.001 A 
HETATM   15  C           1     -19.895  -5.056  -7.715  0.00  0.00     0.007 A 
ENDBRANCH   9  10
ENDBRANCH   5   9
ENDBRANCH   3   5
BRANCH   2  16
HETATM   16  C           1     -21.619  -7.757  -2.052  0.00  0.00     0.274 C 
BRANCH  16  17
HETATM   17  N           1     -20.140  -7.910  -1.855  0.00  0.00    -0.067 N 
HETATM   18  H           1     -19.852  -7.420  -0.978  0.00  0.00     0.275 HD
HETATM   19  H           1     -19.902  -8.925  -1.779  0.00  0.00     0.275 HD
HETATM   20  H           1     -19.635  -7.493  -2.669  0.00  0.00     0.275 HD
ENDBRANCH  16  17
BRANCH  16  21
HETATM   21  C           1     -22.305  -7.674  -0.696  0.00  0.00     0.045 C 
BRANCH  21  22
HETATM   22 Se           1     -22.841  -9.459  -0.126  0.00  0.00     0.000 Se
HETATM   23  H           1     -24.283  -9.196  -0.262  0.00  0.00     0.000 HD
ENDBRANCH  21  22
ENDBRANCH  16  21
ENDBRANCH   2  16
TORSDOF 8
ENDMDL
MODEL 6
REMARK VINA RESULT:      -6.2     18.514     19.980
REMARK  8 active torsions:
REMARK  status: ('A' for Active; 'I' for Inactive)
REMARK    1  A    between atoms: C_2  and  C_4 
REMARK    2  A    between atoms: C_4  and  C_5 
REMARK    3  A    between atoms: C_4  and  N_12 
REMARK    4  A    between atoms: C_5  and  C_18 
REMARK    5  A    between atoms: N_7  and  C_10 
REMARK    6  A    between atoms: Se_8  and  C_9 
REMARK    7  A    between atoms: C_9  and  C_10 
REMARK    8  A    between atoms: C_10  and  C_11 
REMARK       I    between atoms: C_11  and  N_12 
ROOT
HETATM    1  O           1     -19.492  -8.753  -4.165  0.00  0.00    -0.271 OA
HETATM    2  C           1     -19.450  -9.087  -3.005  0.00  0.00     0.249 C 
HETATM    3  N           1     -19.871  -8.224  -2.029  0.00  0.00    -0.344 N 
HETATM    4  H           1     -19.215  -7.581  -1.605  0.00  0.00     0.163 HD
ENDROOT
BRANCH   3   5
HETATM    5  C           1     -21.257  -8.234  -1.602  0.00  0.00     0.189 C 
BRANCH   5   6
HETATM    6  C           1     -21.867  -6.876  -1.849  0.00  0.00     0.197 C 
HETATM    7  O           1     -22.648  -6.379  -1.008  0.00  0.00    -0.646 OA
HETATM    8  O           1     -21.594  -6.248  -2.894  0.00  0.00    -0.646 OA
ENDBRANCH   5   6
BRANCH   5   9
HETATM    9  C           1     -21.328  -8.561  -0.117  0.00  0.00     0.074 C 
BRANCH   9  10
HETATM   10  C           1     -21.993  -9.889   0.071  0.00  0.00    -0.056 A 
HETATM   11  C           1     -23.335 -10.053  -0.270  0.00  0.00     0.007 A 
HETATM   12  C           1     -23.954 -11.290  -0.095  0.00  0.00     0.001 A 
HETATM   13  C           1     -23.230 -12.366   0.421  0.00  0.00     0.000 A 
HETATM   14  C           1     -21.887 -12.202   0.761  0.00  0.00     0.001 A 
HETATM   15  C           1     -21.268 -10.964   0.586  0.00  0.00     0.007 A 
ENDBRANCH   9  10
ENDBRANCH   5   9
ENDBRANCH   3   5
BRANCH   2  16
HETATM   16  C           1     -18.931 -10.454  -2.632  0.00  0.00     0.274 C 
BRANCH  16  17
HETATM   17  N           1     -20.011 -11.473  -2.851  0.00  0.00    -0.067 N 
HETATM   18  H           1     -19.873 -12.274  -2.193  0.00  0.00     0.275 HD
HETATM   19  H           1     -20.943 -11.036  -2.674  0.00  0.00     0.275 HD
HETATM   20  H           1     -19.968 -11.820  -3.836  0.00  0.00     0.275 HD
ENDBRANCH  16  17
BRANCH  16  21
HETATM   21  C           1     -17.728 -10.796  -3.500  0.00  0.00     0.045 C 
BRANCH  21  22
HETATM   22 Se           1     -16.218  -9.672  -2.992  0.00  0.00     0.000 Se
HETATM   23  H           1     -15.778 -10.557  -1.901  0.00  0.00     0.000 HD
ENDBRANCH  21  22
ENDBRANCH  16  21
ENDBRANCH   2  16
TORSDOF 8
ENDMDL
MODEL 7
REMARK VINA RESULT:      -6.2     17.688     18.563
REMARK  8 active torsions:
REMARK  status: ('A' for Active; 'I' for Inactive)
REMARK    1  A    between atoms: C_2  and  C_4 
REMARK    2  A    between atoms: C_4  and  C_5 
REMARK    3  A    between atoms: C_4  and  N_12 
REMARK    4  A    between atoms: C_5  and  C_18 
REMARK    5  A    between atoms: N_7  and  C_10 
REMARK    6  A    between atoms: Se_8  and  C_9 
REMARK    7  A    between atoms: C_9  and  C_10 
REMARK    8  A    between atoms: C_10  and  C_11 
REMARK       I    between atoms: C_11  and  N_12 
ROOT
HETATM    1  O           1     -20.852  -8.228  -6.048  0.00  0.00    -0.271 OA
HETATM    2  C           1     -20.561  -8.809  -5.029  0.00  0.00     0.249 C 
HETATM    3  N           1     -20.399  -8.109  -3.865  0.00  0.00    -0.344 N 
HETATM    4  H           1     -19.488  -7.744  -3.616  0.00  0.00     0.163 HD
ENDROOT
BRANCH   3   5
HETATM    5  C           1     -21.531  -7.891  -2.986  0.00  0.00     0.189 C 
BRANCH   5   6
HETATM    6  C           1     -21.801  -6.410  -2.872  0.00  0.00     0.197 C 
HETATM    7  O           1     -22.492  -5.971  -1.927  0.00  0.00    -0.646 OA
HETATM    8  O           1     -21.334  -5.623  -3.723  0.00  0.00    -0.646 OA
ENDBRANCH   5   6
BRANCH   5   9
HETATM    9  C           1     -21.221  -8.458  -1.608  0.00  0.00     0.074 C 
BRANCH   9  10
HETATM   10  C           1     -22.210  -9.532  -1.275  0.00  0.00    -0.056 A 
HETATM   11  C           1     -23.038  -9.398  -0.161  0.00  0.00     0.007 A 
HETATM   12  C           1     -23.958 -10.399   0.148  0.00  0.00     0.001 A 
HETATM   13  C           1     -24.052 -11.534  -0.657  0.00  0.00     0.000 A 
HETATM   14  C           1     -23.225 -11.668  -1.771  0.00  0.00     0.001 A 
HETATM   15  C           1     -22.304 -10.667  -2.081  0.00  0.00     0.007 A 
ENDBRANCH   9  10
ENDBRANCH   5   9
ENDBRANCH   3   5
BRANCH   2  16
HETATM   16  C           1     -20.378 -10.307  -5.042  0.00  0.00     0.274 C 
BRANCH  16  17
HETATM   17  N           1     -20.551 -10.818  -6.442  0.00  0.00    -0.067 N 
HETATM   18  H           1     -21.110 -10.131  -6.997  0.00  0.00     0.275 HD
HETATM   19  H           1     -19.613 -10.941  -6.886  0.00  0.00     0.275 HD
HETATM   20  H           1     -21.050 -11.735  -6.419  0.00  0.00     0.275 HD
ENDBRANCH  16  17
BRANCH  16  21
HETATM   21  C           1     -18.981 -10.653  -4.546  0.00  0.00     0.045 C 
BRANCH  21  22
HETATM   22 Se           1     -17.655  -9.969  -5.801  0.00  0.00     0.000 Se
HETATM   23  H           1     -17.941  -8.555  -5.511  0.00  0.00     0.000 HD
ENDBRANCH  21  22
ENDBRANCH  16  21
ENDBRANCH   2  16
TORSDOF 8
ENDMDL
MODEL 8
REMARK VINA RESULT:      -6.2      5.321      7.141
REMARK  8 active torsions:
REMARK  status: ('A' for Active; 'I' for Inactive)
REMARK    1  A    between atoms: C_2  and  C_4 
REMARK    2  A    between atoms: C_4  and  C_5 
REMARK    3  A    between atoms: C_4  and  N_12 
REMARK    4  A    between atoms: C_5  and  C_18 
REMARK    5  A    between atoms: N_7  and  C_10 
REMARK    6  A    between atoms: Se_8  and  C_9 
REMARK    7  A    between atoms: C_9  and  C_10 
REMARK    8  A    between atoms: C_10  and  C_11 
REMARK       I    between atoms: C_11  and  N_12 
ROOT
HETATM    1  O           1     -34.640  -2.799 -14.664  0.00  0.00    -0.271 OA
HETATM    2  C           1     -34.163  -3.906 -14.577  0.00  0.00     0.249 C 
HETATM    3  N           1     -33.799  -4.585 -15.708  0.00  0.00    -0.344 N 
HETATM    4  H           1     -34.466  -5.186 -16.175  0.00  0.00     0.163 HD
ENDROOT
BRANCH   3   5
HETATM    5  C           1     -32.456  -4.444 -16.238  0.00  0.00     0.189 C 
BRANCH   5   6
HETATM    6  C           1     -32.434  -3.338 -17.263  0.00  0.00     0.197 C 
HETATM    7  O           1     -31.345  -2.944 -17.736  0.00  0.00    -0.646 OA
HETATM    8  O           1     -33.503  -2.814 -17.641  0.00  0.00    -0.646 OA
ENDBRANCH   5   6
BRANCH   5   9
HETATM    9  C           1     -32.028  -5.751 -16.890  0.00  0.00     0.074 C 
BRANCH   9  10
HETATM   10  C           1     -30.534  -5.836 -16.910  0.00  0.00    -0.056 A 
HETATM   11  C           1     -29.804  -5.559 -15.754  0.00  0.00     0.007 A 
HETATM   12  C           1     -28.412  -5.638 -15.773  0.00  0.00     0.001 A 
HETATM   13  C           1     -27.748  -5.994 -16.947  0.00  0.00     0.000 A 
HETATM   14  C           1     -28.478  -6.271 -18.102  0.00  0.00     0.001 A 
HETATM   15  C           1     -29.871  -6.193 -18.084  0.00  0.00     0.007 A 
ENDBRANCH   9  10
ENDBRANCH   5   9
ENDBRANCH   3   5
BRANCH   2  16
HETATM   16  C           1     -33.969  -4.538 -13.220  0.00  0.00     0.274 C 
BRANCH  16  17
HETATM   17  N           1     -32.513  -4.509 -12.860  0.00  0.00    -0.067 N 
HETATM   18  H           1     -32.329  -5.199 -12.097  0.00  0.00     0.275 HD
HETATM   19  H           1     -31.942  -4.759 -13.699  0.00  0.00     0.275 HD
HETATM   20  H           1     -32.255  -3.551 -12.534  0.00  0.00     0.275 HD
ENDBRANCH  16  17
BRANCH  16  21
HETATM   21  C           1     -34.765  -3.763 -12.180  0.00  0.00     0.045 C 
BRANCH  21  22
HETATM   22 Se           1     -33.540  -2.800 -11.008  0.00  0.00     0.000 Se
HETATM   23  H           1     -34.525  -2.629  -9.928  0.00  0.00     0.000 HD
ENDBRANCH  21  22
ENDBRANCH  16  21
ENDBRANCH   2  16
TORSDOF 8
ENDMDL
MODEL 9
REMARK VINA RESULT:      -6.0      9.927     11.865
REMARK  8 active torsions:
REMARK  status: ('A' for Active; 'I' for Inactive)
REMARK    1  A    between atoms: C_2  and  C_4 
REMARK    2  A    between atoms: C_4  and  C_5 
REMARK    3  A    between atoms: C_4  and  N_12 
REMARK    4  A    between atoms: C_5  and  C_18 
REMARK    5  A    between atoms: N_7  and  C_10 
REMARK    6  A    between atoms: Se_8  and  C_9 
REMARK    7  A    between atoms: C_9  and  C_10 
REMARK    8  A    between atoms: C_10  and  C_11 
REMARK       I    between atoms: C_11  and  N_12 
ROOT
HETATM    1  O           1     -28.468  -4.779 -15.154  0.00  0.00    -0.271 OA
HETATM    2  C           1     -28.306  -4.907 -16.344  0.00  0.00     0.249 C 
HETATM    3  N           1     -27.047  -5.098 -16.846  0.00  0.00    -0.344 N 
HETATM    4  H           1     -26.481  -4.301 -17.111  0.00  0.00     0.163 HD
ENDROOT
BRANCH   3   5
HETATM    5  C           1     -26.524  -6.442 -17.000  0.00  0.00     0.189 C 
BRANCH   5   6
HETATM    6  C           1     -26.457  -7.112 -15.650  0.00  0.00     0.197 C 
HETATM    7  O           1     -25.395  -7.083 -14.989  0.00  0.00    -0.646 OA
HETATM    8  O           1     -27.461  -7.697 -15.191  0.00  0.00    -0.646 OA
ENDBRANCH   5   6
BRANCH   5   9
HETATM    9  C           1     -25.129  -6.378 -17.606  0.00  0.00     0.074 C 
BRANCH   9  10
HETATM   10  C           1     -25.160  -6.940 -18.993  0.00  0.00    -0.056 A 
HETATM   11  C           1     -24.001  -7.473 -19.556  0.00  0.00     0.007 A 
HETATM   12  C           1     -24.030  -7.996 -20.848  0.00  0.00     0.001 A 
HETATM   13  C           1     -25.218  -7.988 -21.578  0.00  0.00     0.000 A 
HETATM   14  C           1     -26.378  -7.455 -21.015  0.00  0.00     0.001 A 
HETATM   15  C           1     -26.349  -6.931 -19.722  0.00  0.00     0.007 A 
ENDBRANCH   9  10
ENDBRANCH   5   9
ENDBRANCH   3   5
BRANCH   2  16
HETATM   16  C           1     -29.492  -4.854 -17.276  0.00  0.00     0.274 C 
BRANCH  16  17
HETATM   17  N           1     -29.014  -4.943 -18.696  0.00  0.00    -0.067 N 
HETATM   18  H           1     -29.455  -4.183 -19.261  0.00  0.00     0.275 HD
HETATM   19  H           1     -27.975  -4.836 -18.721  0.00  0.00     0.275 HD
HETATM   20  H           1     -29.279  -5.872 -19.094  0.00  0.00     0.275 HD
ENDBRANCH  16  17
BRANCH  16  21
HETATM   21  C           1     -30.423  -6.021 -16.981  0.00  0.00     0.045 C 
BRANCH  21  22
HETATM   22 Se           1     -29.939  -7.541 -18.101  0.00  0.00     0.000 Se
HETATM   23  H           1     -28.593  -7.685 -17.524  0.00  0.00     0.000 HD
ENDBRANCH  21  22
ENDBRANCH  16  21
ENDBRANCH   2  16
TORSDOF 8
ENDMDL
