MODEL 1
REMARK VINA RESULT:      -7.8      0.000      0.000
REMARK  13 active torsions:
REMARK  status: ('A' for Active; 'I' for Inactive)
REMARK    1  A    between atoms: P_1  and  O_28 
REMARK    2  A    between atoms: P_1  and  O_2 
REMARK    3  A    between atoms: C_4  and  C_15 
REMARK    4  A    between atoms: C_7  and  C_24 
REMARK    5  A    between atoms: C_7  and  C_9 
REMARK    6  A    between atoms: N_8  and  C_24 
REMARK    7  A    between atoms: C_9  and  C_16 
REMARK    8  A    between atoms: C_15  and  C_20 
REMARK    9  A    between atoms: C_16  and  N_17 
REMARK   10  A    between atoms: C_20  and  C_29 
REMARK   11  A    between atoms: C_20  and  N_26 
REMARK       I    between atoms: C_23  and  N_26 
REMARK   12  A    between atoms: C_23  and  C_24 
REMARK   13  A    between atoms: C_25  and  O_28 
ROOT
HETATM    1  C           1     -32.488  -4.323 -16.222  0.00  0.00     0.189 C 
ENDROOT
BRANCH   1   2
HETATM    2  C           1     -31.970  -5.633 -16.802  0.00  0.00     0.074 C 
BRANCH   2   3
HETATM    3  C           1     -30.473  -5.621 -16.804  0.00  0.00    -0.056 A 
HETATM    4  C           1     -29.774  -6.038 -17.935  0.00  0.00     0.010 A 
HETATM    5  C           1     -28.379  -6.027 -17.936  0.00  0.00     0.038 A 
HETATM    6  C           1     -27.684  -5.599 -16.805  0.00  0.00     0.081 A 
HETATM    7  C           1     -28.384  -5.181 -15.673  0.00  0.00     0.038 A 
HETATM    8  C           1     -29.779  -5.193 -15.672  0.00  0.00     0.010 A 
BRANCH   6   9
HETATM    9  O           1     -26.328  -5.588 -16.806  0.00  0.00    -0.247 OA
BRANCH   9  10
HETATM   10  P           1     -25.560  -6.698 -15.920  0.00  0.00     0.411 P 
HETATM   11  O           1     -24.570  -7.404 -16.762  0.00  0.00    -0.624 OA
HETATM   12  O           1     -26.542  -7.672 -15.391  0.00  0.00    -0.624 OA
BRANCH  10  13
HETATM   13  O           1     -24.802  -5.974 -14.691  0.00  0.00    -0.300 OA
HETATM   14  H           1     -23.968  -5.711 -15.040  0.00  0.00     0.223 HD
ENDBRANCH  10  13
ENDBRANCH   9  10
ENDBRANCH   6   9
ENDBRANCH   2   3
ENDBRANCH   1   2
BRANCH   1  15
HETATM   15  C           1     -32.585  -3.291 -17.318  0.00  0.00     0.197 C 
HETATM   16  O           1     -31.571  -2.986 -17.981  0.00  0.00    -0.646 OA
HETATM   17  O           1     -33.680  -2.740 -17.562  0.00  0.00    -0.646 OA
ENDBRANCH   1  15
BRANCH   1  18
HETATM   18  N           1     -33.800  -4.537 -15.642  0.00  0.00    -0.344 N 
HETATM   19  H           1     -34.471  -5.129 -16.113  0.00  0.00     0.163 HD
HETATM   20  C           1     -34.129  -3.937 -14.456  0.00  0.00     0.249 C 
HETATM   21  O           1     -34.641  -2.843 -14.455  0.00  0.00    -0.271 OA
BRANCH  20  22
HETATM   22  C           1     -33.854  -4.644 -13.152  0.00  0.00     0.274 C 
BRANCH  22  23
HETATM   23  C           1     -34.669  -3.995 -12.040  0.00  0.00     0.044 C 
BRANCH  23  24
HETATM   24  C           1     -33.754  -3.656 -10.871  0.00  0.00     0.030 C 
BRANCH  24  25
HETATM   25  C           1     -33.995  -2.216 -10.437  0.00  0.00     0.230 C 
BRANCH  25  26
HETATM   26  N           1     -34.282  -1.372 -11.642  0.00  0.00    -0.079 N 
HETATM   27  H           1     -34.933  -0.597 -11.378  0.00  0.00     0.274 HD
HETATM   28  H           1     -33.390  -0.968 -12.008  0.00  0.00     0.274 HD
HETATM   29  H           1     -34.725  -1.962 -12.383  0.00  0.00     0.274 HD
ENDBRANCH  25  26
ENDBRANCH  24  25
ENDBRANCH  23  24
ENDBRANCH  22  23
BRANCH  22  30
HETATM   30  N           1     -32.394  -4.540 -12.826  0.00  0.00    -0.067 N 
HETATM   31  H           1     -32.265  -3.914 -12.000  0.00  0.00     0.275 HD
HETATM   32  H           1     -31.881  -4.146 -13.646  0.00  0.00     0.275 HD
HETATM   33  H           1     -32.017  -5.490 -12.606  0.00  0.00     0.275 HD
ENDBRANCH  22  30
ENDBRANCH  20  22
ENDBRANCH   1  18
TORSDOF 13
ENDMDL
MODEL 2
REMARK VINA RESULT:      -7.3      1.420      2.093
REMARK  13 active torsions:
REMARK  status: ('A' for Active; 'I' for Inactive)
REMARK    1  A    between atoms: P_1  and  O_28 
REMARK    2  A    between atoms: P_1  and  O_2 
REMARK    3  A    between atoms: C_4  and  C_15 
REMARK    4  A    between atoms: C_7  and  C_24 
REMARK    5  A    between atoms: C_7  and  C_9 
REMARK    6  A    between atoms: N_8  and  C_24 
REMARK    7  A    between atoms: C_9  and  C_16 
REMARK    8  A    between atoms: C_15  and  C_20 
REMARK    9  A    between atoms: C_16  and  N_17 
REMARK   10  A    between atoms: C_20  and  C_29 
REMARK   11  A    between atoms: C_20  and  N_26 
REMARK       I    between atoms: C_23  and  N_26 
REMARK   12  A    between atoms: C_23  and  C_24 
REMARK   13  A    between atoms: C_25  and  O_28 
ROOT
HETATM    1  C           1     -32.543  -4.312 -16.116  0.00  0.00     0.189 C 
ENDROOT
BRANCH   1   2
HETATM    2  C           1     -32.033  -5.611 -16.728  0.00  0.00     0.074 C 
BRANCH   2   3
HETATM    3  C           1     -30.537  -5.594 -16.761  0.00  0.00    -0.056 A 
HETATM    4  C           1     -29.860  -5.976 -17.919  0.00  0.00     0.010 A 
HETATM    5  C           1     -28.466  -5.961 -17.948  0.00  0.00     0.038 A 
HETATM    6  C           1     -27.748  -5.564 -16.819  0.00  0.00     0.081 A 
HETATM    7  C           1     -28.426  -5.182 -15.662  0.00  0.00     0.038 A 
HETATM    8  C           1     -29.820  -5.197 -15.632  0.00  0.00     0.010 A 
BRANCH   6   9
HETATM    9  O           1     -26.393  -5.549 -16.849  0.00  0.00    -0.247 OA
BRANCH   9  10
HETATM   10  P           1     -25.604  -6.686 -16.016  0.00  0.00     0.411 P 
HETATM   11  O           1     -25.036  -6.092 -14.786  0.00  0.00    -0.624 OA
HETATM   12  O           1     -24.511  -7.236 -16.848  0.00  0.00    -0.624 OA
BRANCH  10  13
HETATM   13  O           1     -26.629  -7.870 -15.618  0.00  0.00    -0.300 OA
HETATM   14  H           1     -26.165  -8.391 -14.986  0.00  0.00     0.223 HD
ENDBRANCH  10  13
ENDBRANCH   9  10
ENDBRANCH   6   9
ENDBRANCH   2   3
ENDBRANCH   1   2
BRANCH   1  15
HETATM   15  C           1     -32.796  -3.305 -17.210  0.00  0.00     0.197 C 
HETATM   16  O           1     -33.938  -2.822 -17.364  0.00  0.00    -0.646 OA
HETATM   17  O           1     -31.862  -2.953 -17.964  0.00  0.00    -0.646 OA
ENDBRANCH   1  15
BRANCH   1  18
HETATM   18  N           1     -33.777  -4.567 -15.400  0.00  0.00    -0.344 N 
HETATM   19  H           1     -34.427  -5.262 -15.742  0.00  0.00     0.163 HD
HETATM   20  C           1     -34.063  -3.867 -14.258  0.00  0.00     0.249 C 
HETATM   21  O           1     -34.671  -2.826 -14.325  0.00  0.00    -0.271 OA
BRANCH  20  22
HETATM   22  C           1     -33.617  -4.397 -12.917  0.00  0.00     0.274 C 
BRANCH  22  23
HETATM   23  C           1     -34.705  -5.292 -12.338  0.00  0.00     0.044 C 
BRANCH  23  24
HETATM   24  C           1     -34.271  -5.797 -10.968  0.00  0.00     0.030 C 
BRANCH  24  25
HETATM   25  C           1     -34.678  -7.256 -10.811  0.00  0.00     0.230 C 
BRANCH  25  26
HETATM   26  N           1     -35.048  -7.522  -9.383  0.00  0.00    -0.079 N 
HETATM   27  H           1     -35.868  -6.929  -9.118  0.00  0.00     0.274 HD
HETATM   28  H           1     -35.295  -8.531  -9.267  0.00  0.00     0.274 HD
HETATM   29  H           1     -34.237  -7.291  -8.764  0.00  0.00     0.274 HD
ENDBRANCH  25  26
ENDBRANCH  24  25
ENDBRANCH  23  24
ENDBRANCH  22  23
BRANCH  22  30
HETATM   30  N           1     -33.366  -3.249 -11.985  0.00  0.00    -0.067 N 
HETATM   31  H           1     -33.440  -3.581 -10.998  0.00  0.00     0.275 HD
HETATM   32  H           1     -34.074  -2.500 -12.155  0.00  0.00     0.275 HD
HETATM   33  H           1     -32.409  -2.866 -12.154  0.00  0.00     0.275 HD
ENDBRANCH  22  30
ENDBRANCH  20  22
ENDBRANCH   1  18
TORSDOF 13
ENDMDL
MODEL 3
REMARK VINA RESULT:      -6.9     12.183     14.527
REMARK  13 active torsions:
REMARK  status: ('A' for Active; 'I' for Inactive)
REMARK    1  A    between atoms: P_1  and  O_28 
REMARK    2  A    between atoms: P_1  and  O_2 
REMARK    3  A    between atoms: C_4  and  C_15 
REMARK    4  A    between atoms: C_7  and  C_24 
REMARK    5  A    between atoms: C_7  and  C_9 
REMARK    6  A    between atoms: N_8  and  C_24 
REMARK    7  A    between atoms: C_9  and  C_16 
REMARK    8  A    between atoms: C_15  and  C_20 
REMARK    9  A    between atoms: C_16  and  N_17 
REMARK   10  A    between atoms: C_20  and  C_29 
REMARK   11  A    between atoms: C_20  and  N_26 
REMARK       I    between atoms: C_23  and  N_26 
REMARK   12  A    between atoms: C_23  and  C_24 
REMARK   13  A    between atoms: C_25  and  O_28 
ROOT
HETATM    1  C           1     -21.181  -7.787  -5.394  0.00  0.00     0.189 C 
ENDROOT
BRANCH   1   2
HETATM    2  C           1     -20.362  -6.514  -5.565  0.00  0.00     0.074 C 
BRANCH   2   3
HETATM    3  C           1     -20.936  -5.697  -6.680  0.00  0.00    -0.056 A 
HETATM    4  C           1     -20.241  -5.573  -7.882  0.00  0.00     0.010 A 
HETATM    5  C           1     -20.777  -4.812  -8.921  0.00  0.00     0.038 A 
HETATM    6  C           1     -22.007  -4.174  -8.757  0.00  0.00     0.081 A 
HETATM    7  C           1     -22.702  -4.300  -7.554  0.00  0.00     0.038 A 
HETATM    8  C           1     -22.167  -5.061  -6.516  0.00  0.00     0.010 A 
BRANCH   6   9
HETATM    9  O           1     -22.527  -3.435  -9.767  0.00  0.00    -0.247 OA
BRANCH   9  10
HETATM   10  P           1     -23.554  -4.156 -10.784  0.00  0.00     0.411 P 
HETATM   11  O           1     -24.755  -3.309 -10.956  0.00  0.00    -0.624 OA
HETATM   12  O           1     -23.952  -5.470 -10.232  0.00  0.00    -0.624 OA
BRANCH  10  13
HETATM   13  O           1     -22.834  -4.366 -12.215  0.00  0.00    -0.300 OA
HETATM   14  H           1     -22.120  -4.956 -12.045  0.00  0.00     0.223 HD
ENDBRANCH  10  13
ENDBRANCH   9  10
ENDBRANCH   6   9
ENDBRANCH   2   3
ENDBRANCH   1   2
BRANCH   1  15
HETATM   15  C           1     -20.276  -8.914  -4.959  0.00  0.00     0.197 C 
HETATM   16  O           1     -19.080  -8.683  -4.681  0.00  0.00    -0.646 OA
HETATM   17  O           1     -20.723 -10.078  -4.876  0.00  0.00    -0.646 OA
ENDBRANCH   1  15
BRANCH   1  18
HETATM   18  N           1     -22.203  -7.573  -4.387  0.00  0.00    -0.344 N 
HETATM   19  H           1     -23.161  -7.836  -4.576  0.00  0.00     0.163 HD
HETATM   20  C           1     -21.870  -7.016  -3.182  0.00  0.00     0.249 C 
HETATM   21  O           1     -21.908  -5.818  -3.040  0.00  0.00    -0.271 OA
BRANCH  20  22
HETATM   22  C           1     -21.456  -7.901  -2.031  0.00  0.00     0.274 C 
BRANCH  22  23
HETATM   23  C           1     -22.095  -7.393  -0.745  0.00  0.00     0.044 C 
BRANCH  23  24
HETATM   24  C           1     -22.563  -8.576   0.092  0.00  0.00     0.030 C 
BRANCH  24  25
HETATM   25  C           1     -22.713  -9.802  -0.799  0.00  0.00     0.230 C 
BRANCH  25  26
HETATM   26  N           1     -23.839 -10.654  -0.293  0.00  0.00    -0.079 N 
HETATM   27  H           1     -24.373 -10.129   0.437  0.00  0.00     0.274 HD
HETATM   28  H           1     -24.477 -10.896  -1.085  0.00  0.00     0.274 HD
HETATM   29  H           1     -23.452 -11.531   0.121  0.00  0.00     0.274 HD
ENDBRANCH  25  26
ENDBRANCH  24  25
ENDBRANCH  23  24
ENDBRANCH  22  23
BRANCH  22  30
HETATM   30  N           1     -19.964  -7.874  -1.892  0.00  0.00    -0.067 N 
HETATM   31  H           1     -19.565  -8.771  -2.248  0.00  0.00     0.275 HD
HETATM   32  H           1     -19.709  -7.755  -0.886  0.00  0.00     0.275 HD
HETATM   33  H           1     -19.576  -7.076  -2.445  0.00  0.00     0.275 HD
ENDBRANCH  22  30
ENDBRANCH  20  22
ENDBRANCH   1  18
TORSDOF 13
ENDMDL
MODEL 4
REMARK VINA RESULT:      -6.6     12.109     14.502
REMARK  13 active torsions:
REMARK  status: ('A' for Active; 'I' for Inactive)
REMARK    1  A    between atoms: P_1  and  O_28 
REMARK    2  A    between atoms: P_1  and  O_2 
REMARK    3  A    between atoms: C_4  and  C_15 
REMARK    4  A    between atoms: C_7  and  C_24 
REMARK    5  A    between atoms: C_7  and  C_9 
REMARK    6  A    between atoms: N_8  and  C_24 
REMARK    7  A    between atoms: C_9  and  C_16 
REMARK    8  A    between atoms: C_15  and  C_20 
REMARK    9  A    between atoms: C_16  and  N_17 
REMARK   10  A    between atoms: C_20  and  C_29 
REMARK   11  A    between atoms: C_20  and  N_26 
REMARK       I    between atoms: C_23  and  N_26 
REMARK   12  A    between atoms: C_23  and  C_24 
REMARK   13  A    between atoms: C_25  and  O_28 
ROOT
HETATM    1  C           1     -21.186  -6.569  -4.914  0.00  0.00     0.189 C 
ENDROOT
BRANCH   1   2
HETATM    2  C           1     -20.498  -5.272  -5.318  0.00  0.00     0.074 C 
BRANCH   2   3
HETATM    3  C           1     -21.001  -4.836  -6.659  0.00  0.00    -0.056 A 
HETATM    4  C           1     -22.353  -4.542  -6.834  0.00  0.00     0.010 A 
HETATM    5  C           1     -22.820  -4.136  -8.084  0.00  0.00     0.038 A 
HETATM    6  C           1     -21.937  -4.024  -9.158  0.00  0.00     0.081 A 
HETATM    7  C           1     -20.585  -4.318  -8.981  0.00  0.00     0.038 A 
HETATM    8  C           1     -20.117  -4.724  -7.732  0.00  0.00     0.010 A 
BRANCH   6   9
HETATM    9  O           1     -22.392  -3.629 -10.372  0.00  0.00    -0.247 OA
BRANCH   9  10
HETATM   10  P           1     -23.735  -4.323 -10.940  0.00  0.00     0.411 P 
HETATM   11  O           1     -24.872  -3.387 -10.799  0.00  0.00    -0.624 OA
HETATM   12  O           1     -24.015  -5.558 -10.173  0.00  0.00    -0.624 OA
BRANCH  10  13
HETATM   13  O           1     -23.531  -4.691 -12.500  0.00  0.00    -0.300 OA
HETATM   14  H           1     -22.880  -4.086 -12.810  0.00  0.00     0.223 HD
ENDBRANCH  10  13
ENDBRANCH   9  10
ENDBRANCH   6   9
ENDBRANCH   2   3
ENDBRANCH   1   2
BRANCH   1  15
HETATM   15  C           1     -20.622  -7.712  -5.723  0.00  0.00     0.197 C 
HETATM   16  O           1     -21.369  -8.642  -6.096  0.00  0.00    -0.646 OA
HETATM   17  O           1     -19.408  -7.728  -6.019  0.00  0.00    -0.646 OA
ENDBRANCH   1  15
BRANCH   1  18
HETATM   18  N           1     -20.960  -6.818  -3.504  0.00  0.00    -0.344 N 
HETATM   19  H           1     -20.967  -6.050  -2.847  0.00  0.00     0.163 HD
HETATM   20  C           1     -20.737  -8.095  -3.061  0.00  0.00     0.249 C 
HETATM   21  O           1     -19.611  -8.527  -3.008  0.00  0.00    -0.271 OA
BRANCH  20  22
HETATM   22  C           1     -21.899  -8.961  -2.641  0.00  0.00     0.274 C 
BRANCH  22  23
HETATM   23  C           1     -21.647  -9.504  -1.241  0.00  0.00     0.044 C 
BRANCH  23  24
HETATM   24  C           1     -22.957  -9.539  -0.465  0.00  0.00     0.030 C 
BRANCH  24  25
HETATM   25  C           1     -23.052  -8.310   0.428  0.00  0.00     0.230 C 
BRANCH  25  26
HETATM   26  N           1     -21.712  -8.031   1.042  0.00  0.00    -0.079 N 
HETATM   27  H           1     -21.836  -7.443   1.897  0.00  0.00     0.274 HD
HETATM   28  H           1     -21.253  -8.933   1.302  0.00  0.00     0.274 HD
HETATM   29  H           1     -21.113  -7.523   0.352  0.00  0.00     0.274 HD
ENDBRANCH  25  26
ENDBRANCH  24  25
ENDBRANCH  23  24
ENDBRANCH  22  23
BRANCH  22  30
HETATM   30  N           1     -22.045 -10.103  -3.601  0.00  0.00    -0.067 N 
HETATM   31  H           1     -22.174  -9.730  -4.568  0.00  0.00     0.275 HD
HETATM   32  H           1     -22.876 -10.678  -3.336  0.00  0.00     0.275 HD
HETATM   33  H           1     -21.186 -10.698  -3.568  0.00  0.00     0.275 HD
ENDBRANCH  22  30
ENDBRANCH  20  22
ENDBRANCH   1  18
TORSDOF 13
ENDMDL
MODEL 5
REMARK VINA RESULT:      -6.3     13.693     16.009
REMARK  13 active torsions:
REMARK  status: ('A' for Active; 'I' for Inactive)
REMARK    1  A    between atoms: P_1  and  O_28 
REMARK    2  A    between atoms: P_1  and  O_2 
REMARK    3  A    between atoms: C_4  and  C_15 
REMARK    4  A    between atoms: C_7  and  C_24 
REMARK    5  A    between atoms: C_7  and  C_9 
REMARK    6  A    between atoms: N_8  and  C_24 
REMARK    7  A    between atoms: C_9  and  C_16 
REMARK    8  A    between atoms: C_15  and  C_20 
REMARK    9  A    between atoms: C_16  and  N_17 
REMARK   10  A    between atoms: C_20  and  C_29 
REMARK   11  A    between atoms: C_20  and  N_26 
REMARK       I    between atoms: C_23  and  N_26 
REMARK   12  A    between atoms: C_23  and  C_24 
REMARK   13  A    between atoms: C_25  and  O_28 
ROOT
HETATM    1  C           1     -21.315  -7.707  -2.297  0.00  0.00     0.189 C 
ENDROOT
BRANCH   1   2
HETATM    2  C           1     -19.882  -8.197  -2.136  0.00  0.00     0.074 C 
BRANCH   2   3
HETATM    3  C           1     -19.636  -9.337  -3.073  0.00  0.00    -0.056 A 
HETATM    4  C           1     -18.727  -9.195  -4.121  0.00  0.00     0.010 A 
HETATM    5  C           1     -18.498 -10.259  -4.994  0.00  0.00     0.038 A 
HETATM    6  C           1     -19.180 -11.464  -4.820  0.00  0.00     0.081 A 
HETATM    7  C           1     -20.089 -11.605  -3.772  0.00  0.00     0.038 A 
HETATM    8  C           1     -20.318 -10.542  -2.899  0.00  0.00     0.010 A 
BRANCH   6   9
HETATM    9  O           1     -18.957 -12.496  -5.669  0.00  0.00    -0.247 OA
BRANCH   9  10
HETATM   10  P           1     -19.716 -12.483  -7.095  0.00  0.00     0.411 P 
HETATM   11  O           1     -20.074 -13.867  -7.477  0.00  0.00    -0.624 OA
HETATM   12  O           1     -18.822 -11.903  -8.123  0.00  0.00    -0.624 OA
BRANCH  10  13
HETATM   13  O           1     -21.058 -11.591  -6.982  0.00  0.00    -0.300 OA
HETATM   14  H           1     -20.968 -10.930  -7.646  0.00  0.00     0.223 HD
ENDBRANCH  10  13
ENDBRANCH   9  10
ENDBRANCH   6   9
ENDBRANCH   2   3
ENDBRANCH   1   2
BRANCH   1  15
HETATM   15  C           1     -21.964  -7.592  -0.939  0.00  0.00     0.197 C 
HETATM   16  O           1     -21.606  -8.347  -0.009  0.00  0.00    -0.646 OA
HETATM   17  O           1     -22.859  -6.742  -0.744  0.00  0.00    -0.646 OA
ENDBRANCH   1  15
BRANCH   1  18
HETATM   18  N           1     -21.312  -6.408  -2.941  0.00  0.00    -0.344 N 
HETATM   19  H           1     -21.061  -5.582  -2.415  0.00  0.00     0.163 HD
HETATM   20  C           1     -21.649  -6.300  -4.264  0.00  0.00     0.249 C 
HETATM   21  O           1     -22.799  -6.117  -4.581  0.00  0.00    -0.271 OA
BRANCH  20  22
HETATM   22  C           1     -20.581  -6.409  -5.325  0.00  0.00     0.274 C 
BRANCH  22  23
HETATM   23  C           1     -20.369  -5.047  -5.974  0.00  0.00     0.044 C 
BRANCH  23  24
HETATM   24  C           1     -20.975  -5.050  -7.371  0.00  0.00     0.030 C 
BRANCH  24  25
HETATM   25  C           1     -21.972  -3.906  -7.496  0.00  0.00     0.230 C 
BRANCH  25  26
HETATM   26  N           1     -23.354  -4.411  -7.210  0.00  0.00    -0.079 N 
HETATM   27  H           1     -23.356  -5.456  -7.242  0.00  0.00     0.274 HD
HETATM   28  H           1     -23.654  -4.092  -6.261  0.00  0.00     0.274 HD
HETATM   29  H           1     -24.016  -4.039  -7.927  0.00  0.00     0.274 HD
ENDBRANCH  25  26
ENDBRANCH  24  25
ENDBRANCH  23  24
ENDBRANCH  22  23
BRANCH  22  30
HETATM   30  N           1     -21.012  -7.397  -6.368  0.00  0.00    -0.067 N 
HETATM   31  H           1     -20.756  -8.361  -6.059  0.00  0.00     0.275 HD
HETATM   32  H           1     -20.533  -7.182  -7.271  0.00  0.00     0.275 HD
HETATM   33  H           1     -22.047  -7.336  -6.500  0.00  0.00     0.275 HD
ENDBRANCH  22  30
ENDBRANCH  20  22
ENDBRANCH   1  18
TORSDOF 13
ENDMDL
MODEL 6
REMARK VINA RESULT:      -6.2     12.900     15.512
REMARK  13 active torsions:
REMARK  status: ('A' for Active; 'I' for Inactive)
REMARK    1  A    between atoms: P_1  and  O_28 
REMARK    2  A    between atoms: P_1  and  O_2 
REMARK    3  A    between atoms: C_4  and  C_15 
REMARK    4  A    between atoms: C_7  and  C_24 
REMARK    5  A    between atoms: C_7  and  C_9 
REMARK    6  A    between atoms: N_8  and  C_24 
REMARK    7  A    between atoms: C_9  and  C_16 
REMARK    8  A    between atoms: C_15  and  C_20 
REMARK    9  A    between atoms: C_16  and  N_17 
REMARK   10  A    between atoms: C_20  and  C_29 
REMARK   11  A    between atoms: C_20  and  N_26 
REMARK       I    between atoms: C_23  and  N_26 
REMARK   12  A    between atoms: C_23  and  C_24 
REMARK   13  A    between atoms: C_25  and  O_28 
ROOT
HETATM    1  C           1     -21.236  -8.552  -5.109  0.00  0.00     0.189 C 
ENDROOT
BRANCH   1   2
HETATM    2  C           1     -20.169  -7.476  -5.261  0.00  0.00     0.074 C 
BRANCH   2   3
HETATM    3  C           1     -20.673  -6.398  -6.170  0.00  0.00    -0.056 A 
HETATM    4  C           1     -21.920  -5.819  -5.940  0.00  0.00     0.010 A 
HETATM    5  C           1     -22.389  -4.815  -6.787  0.00  0.00     0.038 A 
HETATM    6  C           1     -21.611  -4.391  -7.865  0.00  0.00     0.081 A 
HETATM    7  C           1     -20.364  -4.972  -8.094  0.00  0.00     0.038 A 
HETATM    8  C           1     -19.895  -5.975  -7.247  0.00  0.00     0.010 A 
BRANCH   6   9
HETATM    9  O           1     -22.067  -3.416  -8.688  0.00  0.00    -0.247 OA
BRANCH   9  10
HETATM   10  P           1     -23.298  -3.769  -9.672  0.00  0.00     0.411 P 
HETATM   11  O           1     -23.309  -5.222  -9.949  0.00  0.00    -0.624 OA
HETATM   12  O           1     -23.141  -3.026 -10.943  0.00  0.00    -0.624 OA
BRANCH  10  13
HETATM   13  O           1     -24.689  -3.345  -8.967  0.00  0.00    -0.300 OA
HETATM   14  H           1     -24.484  -2.573  -8.469  0.00  0.00     0.223 HD
ENDBRANCH  10  13
ENDBRANCH   9  10
ENDBRANCH   6   9
ENDBRANCH   2   3
ENDBRANCH   1   2
BRANCH   1  15
HETATM   15  C           1     -20.610  -9.912  -5.294  0.00  0.00     0.197 C 
HETATM   16  O           1     -21.155 -10.924  -4.804  0.00  0.00    -0.646 OA
HETATM   17  O           1     -19.545 -10.027  -5.939  0.00  0.00    -0.646 OA
ENDBRANCH   1  15
BRANCH   1  18
HETATM   18  N           1     -21.823  -8.467  -3.785  0.00  0.00    -0.344 N 
HETATM   19  H           1     -22.779  -8.759  -3.636  0.00  0.00     0.163 HD
HETATM   20  C           1     -21.080  -7.994  -2.737  0.00  0.00     0.249 C 
HETATM   21  O           1     -21.081  -6.814  -2.482  0.00  0.00    -0.271 OA
BRANCH  20  22
HETATM   22  C           1     -20.262  -8.947  -1.901  0.00  0.00     0.274 C 
BRANCH  22  23
HETATM   23  C           1     -18.862  -9.066  -2.490  0.00  0.00     0.044 C 
BRANCH  23  24
HETATM   24  C           1     -18.388 -10.510  -2.385  0.00  0.00     0.030 C 
BRANCH  24  25
HETATM   25  C           1     -17.078 -10.671  -3.143  0.00  0.00     0.230 C 
BRANCH  25  26
HETATM   26  N           1     -17.076  -9.767  -4.339  0.00  0.00    -0.079 N 
HETATM   27  H           1     -17.297 -10.322  -5.197  0.00  0.00     0.274 HD
HETATM   28  H           1     -17.796  -9.019  -4.213  0.00  0.00     0.274 HD
HETATM   29  H           1     -16.133  -9.327  -4.442  0.00  0.00     0.274 HD
ENDBRANCH  25  26
ENDBRANCH  24  25
ENDBRANCH  23  24
ENDBRANCH  22  23
BRANCH  22  30
HETATM   30  N           1     -20.918 -10.295  -1.895  0.00  0.00    -0.067 N 
HETATM   31  H           1     -21.561 -10.373  -2.714  0.00  0.00     0.275 HD
HETATM   32  H           1     -21.463 -10.414  -1.012  0.00  0.00     0.275 HD
HETATM   33  H           1     -20.186 -11.039  -1.953  0.00  0.00     0.275 HD
ENDBRANCH  22  30
ENDBRANCH  20  22
ENDBRANCH   1  18
TORSDOF 13
ENDMDL
MODEL 7
REMARK VINA RESULT:      -6.2     14.279     16.569
REMARK  13 active torsions:
REMARK  status: ('A' for Active; 'I' for Inactive)
REMARK    1  A    between atoms: P_1  and  O_28 
REMARK    2  A    between atoms: P_1  and  O_2 
REMARK    3  A    between atoms: C_4  and  C_15 
REMARK    4  A    between atoms: C_7  and  C_24 
REMARK    5  A    between atoms: C_7  and  C_9 
REMARK    6  A    between atoms: N_8  and  C_24 
REMARK    7  A    between atoms: C_9  and  C_16 
REMARK    8  A    between atoms: C_15  and  C_20 
REMARK    9  A    between atoms: C_16  and  N_17 
REMARK   10  A    between atoms: C_20  and  C_29 
REMARK   11  A    between atoms: C_20  and  N_26 
REMARK       I    between atoms: C_23  and  N_26 
REMARK   12  A    between atoms: C_23  and  C_24 
REMARK   13  A    between atoms: C_25  and  O_28 
ROOT
HETATM    1  C           1     -20.615  -8.555  -3.497  0.00  0.00     0.189 C 
ENDROOT
BRANCH   1   2
HETATM    2  C           1     -19.381  -8.792  -2.636  0.00  0.00     0.074 C 
BRANCH   2   3
HETATM    3  C           1     -18.258  -9.282  -3.497  0.00  0.00    -0.056 A 
HETATM    4  C           1     -17.007  -9.531  -2.935  0.00  0.00     0.010 A 
HETATM    5  C           1     -15.962  -9.988  -3.738  0.00  0.00     0.038 A 
HETATM    6  C           1     -16.168 -10.194  -5.102  0.00  0.00     0.081 A 
HETATM    7  C           1     -17.420  -9.945  -5.663  0.00  0.00     0.038 A 
HETATM    8  C           1     -18.466  -9.488  -4.861  0.00  0.00     0.010 A 
BRANCH   6   9
HETATM    9  O           1     -15.151 -10.638  -5.881  0.00  0.00    -0.247 OA
BRANCH   9  10
HETATM   10  P           1     -15.083 -12.217  -6.211  0.00  0.00     0.411 P 
HETATM   11  O           1     -13.716 -12.570  -6.653  0.00  0.00    -0.624 OA
HETATM   12  O           1     -16.047 -12.538  -7.288  0.00  0.00    -0.624 OA
BRANCH  10  13
HETATM   13  O           1     -15.454 -13.060  -4.885  0.00  0.00    -0.300 OA
HETATM   14  H           1     -15.229 -12.496  -4.166  0.00  0.00     0.223 HD
ENDBRANCH  10  13
ENDBRANCH   9  10
ENDBRANCH   6   9
ENDBRANCH   2   3
ENDBRANCH   1   2
BRANCH   1  15
HETATM   15  C           1     -21.765  -9.374  -2.965  0.00  0.00     0.197 C 
HETATM   16  O           1     -22.353 -10.186  -3.711  0.00  0.00    -0.646 OA
HETATM   17  O           1     -22.131  -9.240  -1.777  0.00  0.00    -0.646 OA
ENDBRANCH   1  15
BRANCH   1  18
HETATM   18  N           1     -20.967  -7.149  -3.462  0.00  0.00    -0.344 N 
HETATM   19  H           1     -20.884  -6.628  -2.599  0.00  0.00     0.163 HD
HETATM   20  C           1     -21.410  -6.526  -4.598  0.00  0.00     0.249 C 
HETATM   21  O           1     -22.590  -6.503  -4.852  0.00  0.00    -0.271 OA
BRANCH  20  22
HETATM   22  C           1     -20.423  -5.867  -5.530  0.00  0.00     0.274 C 
BRANCH  22  23
HETATM   23  C           1     -21.027  -4.585  -6.086  0.00  0.00     0.044 C 
BRANCH  23  24
HETATM   24  C           1     -21.092  -4.670  -7.606  0.00  0.00     0.030 C 
BRANCH  24  25
HETATM   25  C           1     -22.504  -4.346  -8.073  0.00  0.00     0.230 C 
BRANCH  25  26
HETATM   26  N           1     -23.453  -4.460  -6.918  0.00  0.00    -0.079 N 
HETATM   27  H           1     -23.833  -5.433  -6.875  0.00  0.00     0.274 HD
HETATM   28  H           1     -22.949  -4.243  -6.029  0.00  0.00     0.274 HD
HETATM   29  H           1     -24.240  -3.784  -7.046  0.00  0.00     0.274 HD
ENDBRANCH  25  26
ENDBRANCH  24  25
ENDBRANCH  23  24
ENDBRANCH  22  23
BRANCH  22  30
HETATM   30  N           1     -20.105  -6.801  -6.660  0.00  0.00    -0.067 N 
HETATM   31  H           1     -19.948  -6.249  -7.533  0.00  0.00     0.275 HD
HETATM   32  H           1     -20.902  -7.460  -6.803  0.00  0.00     0.275 HD
HETATM   33  H           1     -19.242  -7.344  -6.431  0.00  0.00     0.275 HD
ENDBRANCH  22  30
ENDBRANCH  20  22
ENDBRANCH   1  18
TORSDOF 13
ENDMDL
MODEL 8
REMARK VINA RESULT:      -6.1     13.065     15.435
REMARK  13 active torsions:
REMARK  status: ('A' for Active; 'I' for Inactive)
REMARK    1  A    between atoms: P_1  and  O_28 
REMARK    2  A    between atoms: P_1  and  O_2 
REMARK    3  A    between atoms: C_4  and  C_15 
REMARK    4  A    between atoms: C_7  and  C_24 
REMARK    5  A    between atoms: C_7  and  C_9 
REMARK    6  A    between atoms: N_8  and  C_24 
REMARK    7  A    between atoms: C_9  and  C_16 
REMARK    8  A    between atoms: C_15  and  C_20 
REMARK    9  A    between atoms: C_16  and  N_17 
REMARK   10  A    between atoms: C_20  and  C_29 
REMARK   11  A    between atoms: C_20  and  N_26 
REMARK       I    between atoms: C_23  and  N_26 
REMARK   12  A    between atoms: C_23  and  C_24 
REMARK   13  A    between atoms: C_25  and  O_28 
ROOT
HETATM    1  C           1     -21.107  -7.135  -5.804  0.00  0.00     0.189 C 
ENDROOT
BRANCH   1   2
HETATM    2  C           1     -19.877  -7.862  -5.276  0.00  0.00     0.074 C 
BRANCH   2   3
HETATM    3  C           1     -20.296  -8.878  -4.258  0.00  0.00    -0.056 A 
HETATM    4  C           1     -21.395  -9.699  -4.504  0.00  0.00     0.010 A 
HETATM    5  C           1     -21.785 -10.645  -3.555  0.00  0.00     0.038 A 
HETATM    6  C           1     -21.075 -10.768  -2.361  0.00  0.00     0.081 A 
HETATM    7  C           1     -19.976  -9.946  -2.116  0.00  0.00     0.038 A 
HETATM    8  C           1     -19.586  -9.000  -3.064  0.00  0.00     0.010 A 
BRANCH   6   9
HETATM    9  O           1     -21.454 -11.687  -1.439  0.00  0.00    -0.247 OA
BRANCH   9  10
HETATM   10  P           1     -22.183 -11.159  -0.098  0.00  0.00     0.411 P 
HETATM   11  O           1     -22.931  -9.919  -0.397  0.00  0.00    -0.624 OA
HETATM   12  O           1     -21.164 -10.882   0.939  0.00  0.00    -0.624 OA
BRANCH  10  13
HETATM   13  O           1     -23.205 -12.289   0.438  0.00  0.00    -0.300 OA
HETATM   14  H           1     -23.370 -12.842  -0.306  0.00  0.00     0.223 HD
ENDBRANCH  10  13
ENDBRANCH   9  10
ENDBRANCH   6   9
ENDBRANCH   2   3
ENDBRANCH   1   2
BRANCH   1  15
HETATM   15  C           1     -21.668  -6.244  -4.723  0.00  0.00     0.197 C 
HETATM   16  O           1     -22.905  -6.129  -4.587  0.00  0.00    -0.646 OA
HETATM   17  O           1     -20.895  -5.622  -3.962  0.00  0.00    -0.646 OA
ENDBRANCH   1  15
BRANCH   1  18
HETATM   18  N           1     -20.736  -6.328  -6.950  0.00  0.00    -0.344 N 
HETATM   19  H           1     -20.079  -6.686  -7.630  0.00  0.00     0.163 HD
HETATM   20  C           1     -21.277  -5.081  -7.112  0.00  0.00     0.249 C 
HETATM   21  O           1     -20.725  -4.117  -6.638  0.00  0.00    -0.271 OA
BRANCH  20  22
HETATM   22  C           1     -22.563  -4.911  -7.884  0.00  0.00     0.274 C 
BRANCH  22  23
HETATM   23  C           1     -22.331  -3.966  -9.056  0.00  0.00     0.044 C 
BRANCH  23  24
HETATM   24  C           1     -23.254  -4.345 -10.206  0.00  0.00     0.030 C 
BRANCH  24  25
HETATM   25  C           1     -24.323  -3.275 -10.374  0.00  0.00     0.230 C 
BRANCH  25  26
HETATM   26  N           1     -25.587  -3.719  -9.701  0.00  0.00    -0.079 N 
HETATM   27  H           1     -25.687  -3.225  -8.785  0.00  0.00     0.274 HD
HETATM   28  H           1     -26.406  -3.493 -10.310  0.00  0.00     0.274 HD
HETATM   29  H           1     -25.551  -4.751  -9.538  0.00  0.00     0.274 HD
ENDBRANCH  25  26
ENDBRANCH  24  25
ENDBRANCH  23  24
ENDBRANCH  22  23
BRANCH  22  30
HETATM   30  N           1     -23.615  -4.339  -6.982  0.00  0.00    -0.067 N 
HETATM   31  H           1     -24.156  -5.117  -6.543  0.00  0.00     0.275 HD
HETATM   32  H           1     -24.262  -3.736  -7.539  0.00  0.00     0.275 HD
HETATM   33  H           1     -23.161  -3.764  -6.237  0.00  0.00     0.275 HD
ENDBRANCH  22  30
ENDBRANCH  20  22
ENDBRANCH   1  18
TORSDOF 13
ENDMDL
MODEL 9
REMARK VINA RESULT:      -6.1      4.707      8.997
REMARK  13 active torsions:
REMARK  status: ('A' for Active; 'I' for Inactive)
REMARK    1  A    between atoms: P_1  and  O_28 
REMARK    2  A    between atoms: P_1  and  O_2 
REMARK    3  A    between atoms: C_4  and  C_15 
REMARK    4  A    between atoms: C_7  and  C_24 
REMARK    5  A    between atoms: C_7  and  C_9 
REMARK    6  A    between atoms: N_8  and  C_24 
REMARK    7  A    between atoms: C_9  and  C_16 
REMARK    8  A    between atoms: C_15  and  C_20 
REMARK    9  A    between atoms: C_16  and  N_17 
REMARK   10  A    between atoms: C_20  and  C_29 
REMARK   11  A    between atoms: C_20  and  N_26 
REMARK       I    between atoms: C_23  and  N_26 
REMARK   12  A    between atoms: C_23  and  C_24 
REMARK   13  A    between atoms: C_25  and  O_28 
ROOT
HETATM    1  C           1     -27.356  -5.952 -17.269  0.00  0.00     0.189 C 
ENDROOT
BRANCH   1   2
HETATM    2  C           1     -28.429  -6.241 -18.311  0.00  0.00     0.074 C 
BRANCH   2   3
HETATM    3  C           1     -29.691  -5.526 -17.939  0.00  0.00    -0.056 A 
HETATM    4  C           1     -29.765  -4.138 -18.052  0.00  0.00     0.010 A 
HETATM    5  C           1     -30.941  -3.472 -17.706  0.00  0.00     0.038 A 
HETATM    6  C           1     -32.042  -4.194 -17.246  0.00  0.00     0.081 A 
HETATM    7  C           1     -31.967  -5.583 -17.134  0.00  0.00     0.038 A 
HETATM    8  C           1     -30.792  -6.249 -17.480  0.00  0.00     0.010 A 
BRANCH   6   9
HETATM    9  O           1     -33.184  -3.547 -16.910  0.00  0.00    -0.247 OA
BRANCH   9  10
HETATM   10  P           1     -33.898  -3.943 -15.517  0.00  0.00     0.411 P 
HETATM   11  O           1     -34.726  -2.811 -15.046  0.00  0.00    -0.624 OA
HETATM   12  O           1     -32.864  -4.252 -14.504  0.00  0.00    -0.624 OA
BRANCH  10  13
HETATM   13  O           1     -34.837  -5.238 -15.743  0.00  0.00    -0.300 OA
HETATM   14  H           1     -35.535  -5.146 -15.117  0.00  0.00     0.223 HD
ENDBRANCH  10  13
ENDBRANCH   9  10
ENDBRANCH   6   9
ENDBRANCH   2   3
ENDBRANCH   1   2
BRANCH   1  15
HETATM   15  C           1     -27.993  -5.849 -15.905  0.00  0.00     0.197 C 
HETATM   16  O           1     -28.181  -4.728 -15.386  0.00  0.00    -0.646 OA
HETATM   17  O           1     -28.332  -6.885 -15.294  0.00  0.00    -0.646 OA
ENDBRANCH   1  15
BRANCH   1  18
HETATM   18  N           1     -26.382  -7.027 -17.268  0.00  0.00    -0.344 N 
HETATM   19  H           1     -26.692  -7.990 -17.256  0.00  0.00     0.163 HD
HETATM   20  C           1     -25.044  -6.737 -17.283  0.00  0.00     0.249 C 
HETATM   21  O           1     -24.445  -6.600 -16.244  0.00  0.00    -0.271 OA
BRANCH  20  22
HETATM   22  C           1     -24.320  -6.590 -18.599  0.00  0.00     0.274 C 
BRANCH  22  23
HETATM   23  C           1     -25.010  -7.442 -19.656  0.00  0.00     0.044 C 
BRANCH  23  24
HETATM   24  C           1     -25.021  -6.695 -20.983  0.00  0.00     0.030 C 
BRANCH  24  25
HETATM   25  C           1     -24.494  -7.605 -22.084  0.00  0.00     0.230 C 
BRANCH  25  26
HETATM   26  N           1     -23.596  -8.646 -21.487  0.00  0.00    -0.079 N 
HETATM   27  H           1     -23.933  -8.888 -20.527  0.00  0.00     0.274 HD
HETATM   28  H           1     -23.606  -9.502 -22.086  0.00  0.00     0.274 HD
HETATM   29  H           1     -22.621  -8.273 -21.430  0.00  0.00     0.274 HD
ENDBRANCH  25  26
ENDBRANCH  24  25
ENDBRANCH  23  24
ENDBRANCH  22  23
BRANCH  22  30
HETATM   30  N           1     -22.899  -7.044 -18.440  0.00  0.00    -0.067 N 
HETATM   31  H           1     -22.489  -6.608 -17.585  0.00  0.00     0.275 HD
HETATM   32  H           1     -22.346  -6.757 -19.278  0.00  0.00     0.275 HD
HETATM   33  H           1     -22.874  -8.085 -18.348  0.00  0.00     0.275 HD
ENDBRANCH  22  30
ENDBRANCH  20  22
ENDBRANCH   1  18
TORSDOF 13
ENDMDL
