MODEL 1
REMARK VINA RESULT:      -5.4      0.000      0.000
REMARK  7 active torsions:
REMARK  status: ('A' for Active; 'I' for Inactive)
REMARK    1  A    between atoms: S_2  and  C_8 
REMARK    2  A    between atoms: N_6  and  C_16 
REMARK    3  A    between atoms: C_8  and  C_14 
REMARK    4  A    between atoms: N_9  and  C_13 
REMARK       I    between atoms: N_9  and  C_15 
REMARK    5  A    between atoms: C_12  and  C_13 
REMARK    6  A    between atoms: C_13  and  C_14 
REMARK    7  A    between atoms: C_15  and  C_16 
ROOT
HETATM    1  O           1     -24.191  -6.485 -18.496  0.00  0.00    -0.272 OA
HETATM    2  N           1     -26.408  -6.648 -18.283  0.00  0.00    -0.345 N 
HETATM    3  C           1     -25.241  -6.852 -18.968  0.00  0.00     0.243 C 
HETATM    4  H           1     -27.288  -6.956 -18.679  0.00  0.00     0.163 HD
ENDROOT
BRANCH   2   5
HETATM    5  C           1     -26.385  -5.993 -16.990  0.00  0.00     0.186 C 
BRANCH   5   6
HETATM    6  C           1     -26.380  -7.035 -15.898  0.00  0.00     0.196 C 
HETATM    7  O           1     -27.458  -7.423 -15.399  0.00  0.00    -0.646 OA
HETATM    8  O           1     -25.297  -7.511 -15.494  0.00  0.00    -0.646 OA
ENDBRANCH   5   6
BRANCH   5   9
HETATM    9  C           1     -27.618  -5.112 -16.846  0.00  0.00     0.046 C 
BRANCH   9  10
HETATM   10  C           1     -28.524  -5.303 -18.054  0.00  0.00     0.076 C 
BRANCH  10  11
HETATM   11  S           1     -30.147  -5.903 -17.506  0.00  0.00    -0.173 SA
HETATM   12  C           1     -29.946  -7.603 -18.110  0.00  0.00     0.089 C 
ENDBRANCH  10  11
ENDBRANCH   9  10
ENDBRANCH   5   9
ENDBRANCH   2   5
BRANCH   3  13
HETATM   13  C           1     -25.265  -7.534 -20.314  0.00  0.00     0.332 C 
BRANCH  13  14
HETATM   14  N           1     -26.678  -7.891 -20.669  0.00  0.00    -0.071 N 
HETATM   15  H           1     -26.685  -8.784 -21.213  0.00  0.00     0.274 HD
HETATM   16  H           1     -27.095  -7.128 -21.248  0.00  0.00     0.274 HD
HETATM   17  H           1     -27.236  -8.012 -19.795  0.00  0.00     0.274 HD
ENDBRANCH  13  14
ENDBRANCH   3  13
TORSDOF 7
ENDMDL
MODEL 2
REMARK VINA RESULT:      -5.2     10.779     11.855
REMARK  7 active torsions:
REMARK  status: ('A' for Active; 'I' for Inactive)
REMARK    1  A    between atoms: S_2  and  C_8 
REMARK    2  A    between atoms: N_6  and  C_16 
REMARK    3  A    between atoms: C_8  and  C_14 
REMARK    4  A    between atoms: N_9  and  C_13 
REMARK       I    between atoms: N_9  and  C_15 
REMARK    5  A    between atoms: C_12  and  C_13 
REMARK    6  A    between atoms: C_13  and  C_14 
REMARK    7  A    between atoms: C_15  and  C_16 
ROOT
HETATM    1  O           1     -35.930  -1.093 -13.898  0.00  0.00    -0.272 OA
HETATM    2  N           1     -34.692  -0.489 -12.139  0.00  0.00    -0.345 N 
HETATM    3  C           1     -35.162  -0.298 -13.410  0.00  0.00     0.243 C 
HETATM    4  H           1     -34.050   0.178 -11.731  0.00  0.00     0.163 HD
ENDROOT
BRANCH   2   5
HETATM    5  C           1     -35.117  -1.647 -11.377  0.00  0.00     0.186 C 
BRANCH   5   6
HETATM    6  C           1     -36.241  -1.255 -10.450  0.00  0.00     0.196 C 
HETATM    7  O           1     -35.992  -0.650  -9.385  0.00  0.00    -0.646 OA
HETATM    8  O           1     -37.423  -1.534 -10.749  0.00  0.00    -0.646 OA
ENDBRANCH   5   6
BRANCH   5   9
HETATM    9  C           1     -33.945  -2.173 -10.559  0.00  0.00     0.046 C 
BRANCH   9  10
HETATM   10  C           1     -33.174  -3.200 -11.377  0.00  0.00     0.076 C 
BRANCH  10  11
HETATM   11  S           1     -34.338  -4.369 -12.133  0.00  0.00    -0.173 SA
HETATM   12  C           1     -33.970  -5.760 -11.027  0.00  0.00     0.089 C 
ENDBRANCH  10  11
ENDBRANCH   9  10
ENDBRANCH   5   9
ENDBRANCH   2   5
BRANCH   3  13
HETATM   13  C           1     -34.721   0.908 -14.204  0.00  0.00     0.332 C 
BRANCH  13  14
HETATM   14  N           1     -35.832   1.344 -15.112  0.00  0.00    -0.071 N 
HETATM   15  H           1     -36.565   1.837 -14.554  0.00  0.00     0.274 HD
HETATM   16  H           1     -36.252   0.506 -15.575  0.00  0.00     0.274 HD
HETATM   17  H           1     -35.453   1.991 -15.839  0.00  0.00     0.274 HD
ENDBRANCH  13  14
ENDBRANCH   3  13
TORSDOF 7
ENDMDL
MODEL 3
REMARK VINA RESULT:      -5.1      2.057      2.490
REMARK  7 active torsions:
REMARK  status: ('A' for Active; 'I' for Inactive)
REMARK    1  A    between atoms: S_2  and  C_8 
REMARK    2  A    between atoms: N_6  and  C_16 
REMARK    3  A    between atoms: C_8  and  C_14 
REMARK    4  A    between atoms: N_9  and  C_13 
REMARK       I    between atoms: N_9  and  C_15 
REMARK    5  A    between atoms: C_12  and  C_13 
REMARK    6  A    between atoms: C_13  and  C_14 
REMARK    7  A    between atoms: C_15  and  C_16 
ROOT
HETATM    1  O           1     -25.231  -5.705 -15.741  0.00  0.00    -0.272 OA
HETATM    2  N           1     -26.686  -6.749 -17.075  0.00  0.00    -0.345 N 
HETATM    3  C           1     -25.428  -6.562 -16.569  0.00  0.00     0.243 C 
HETATM    4  H           1     -26.851  -7.468 -17.769  0.00  0.00     0.163 HD
ENDROOT
BRANCH   2   5
HETATM    5  C           1     -27.783  -5.918 -16.617  0.00  0.00     0.186 C 
BRANCH   5   6
HETATM    6  C           1     -28.350  -6.492 -15.343  0.00  0.00     0.196 C 
HETATM    7  O           1     -28.017  -7.638 -14.970  0.00  0.00    -0.646 OA
HETATM    8  O           1     -29.152  -5.821 -14.658  0.00  0.00    -0.646 OA
ENDBRANCH   5   6
BRANCH   5   9
HETATM    9  C           1     -28.868  -5.879 -17.684  0.00  0.00     0.046 C 
BRANCH   9  10
HETATM   10  C           1     -29.059  -4.446 -18.163  0.00  0.00     0.076 C 
BRANCH  10  11
HETATM   11  S           1     -30.639  -3.805 -17.540  0.00  0.00    -0.173 SA
HETATM   12  C           1     -31.385  -5.421 -17.188  0.00  0.00     0.089 C 
ENDBRANCH  10  11
ENDBRANCH   9  10
ENDBRANCH   5   9
ENDBRANCH   2   5
BRANCH   3  13
HETATM   13  C           1     -24.287  -7.427 -17.045  0.00  0.00     0.332 C 
BRANCH  13  14
HETATM   14  N           1     -24.277  -7.463 -18.544  0.00  0.00    -0.071 N 
HETATM   15  H           1     -23.393  -7.910 -18.876  0.00  0.00     0.274 HD
HETATM   16  H           1     -24.334  -6.487 -18.916  0.00  0.00     0.274 HD
HETATM   17  H           1     -25.096  -8.015 -18.885  0.00  0.00     0.274 HD
ENDBRANCH  13  14
ENDBRANCH   3  13
TORSDOF 7
ENDMDL
MODEL 4
REMARK VINA RESULT:      -5.0     11.518     13.146
REMARK  7 active torsions:
REMARK  status: ('A' for Active; 'I' for Inactive)
REMARK    1  A    between atoms: S_2  and  C_8 
REMARK    2  A    between atoms: N_6  and  C_16 
REMARK    3  A    between atoms: C_8  and  C_14 
REMARK    4  A    between atoms: N_9  and  C_13 
REMARK       I    between atoms: N_9  and  C_15 
REMARK    5  A    between atoms: C_12  and  C_13 
REMARK    6  A    between atoms: C_13  and  C_14 
REMARK    7  A    between atoms: C_15  and  C_16 
ROOT
HETATM    1  O           1     -38.012  -0.971 -11.048  0.00  0.00    -0.272 OA
HETATM    2  N           1     -36.011   0.002 -11.242  0.00  0.00    -0.345 N 
HETATM    3  C           1     -37.163  -0.268 -10.553  0.00  0.00     0.243 C 
HETATM    4  H           1     -35.299   0.590 -10.828  0.00  0.00     0.163 HD
ENDROOT
BRANCH   2   5
HETATM    5  C           1     -35.810  -0.557 -12.565  0.00  0.00     0.186 C 
BRANCH   5   6
HETATM    6  C           1     -34.827  -1.699 -12.485  0.00  0.00     0.196 C 
HETATM    7  O           1     -34.726  -2.504 -13.436  0.00  0.00    -0.646 OA
HETATM    8  O           1     -34.113  -1.838 -11.469  0.00  0.00    -0.646 OA
ENDBRANCH   5   6
BRANCH   5   9
HETATM    9  C           1     -35.264   0.520 -13.492  0.00  0.00     0.046 C 
BRANCH   9  10
HETATM   10  C           1     -36.011   0.478 -14.818  0.00  0.00     0.076 C 
BRANCH  10  11
HETATM   11  S           1     -37.734  -0.013 -14.526  0.00  0.00    -0.173 SA
HETATM   12  C           1     -38.057  -0.614 -16.208  0.00  0.00     0.089 C 
ENDBRANCH  10  11
ENDBRANCH   9  10
ENDBRANCH   5   9
ENDBRANCH   2   5
BRANCH   3  13
HETATM   13  C           1     -37.372   0.313  -9.177  0.00  0.00     0.332 C 
BRANCH  13  14
HETATM   14  N           1     -36.366   1.399  -8.933  0.00  0.00    -0.071 N 
HETATM   15  H           1     -36.511   1.800  -7.979  0.00  0.00     0.274 HD
HETATM   16  H           1     -36.485   2.151  -9.649  0.00  0.00     0.274 HD
HETATM   17  H           1     -35.402   1.001  -9.000  0.00  0.00     0.274 HD
ENDBRANCH  13  14
ENDBRANCH   3  13
TORSDOF 7
ENDMDL
MODEL 5
REMARK VINA RESULT:      -4.7      2.948      4.507
REMARK  7 active torsions:
REMARK  status: ('A' for Active; 'I' for Inactive)
REMARK    1  A    between atoms: S_2  and  C_8 
REMARK    2  A    between atoms: N_6  and  C_16 
REMARK    3  A    between atoms: C_8  and  C_14 
REMARK    4  A    between atoms: N_9  and  C_13 
REMARK       I    between atoms: N_9  and  C_15 
REMARK    5  A    between atoms: C_12  and  C_13 
REMARK    6  A    between atoms: C_13  and  C_14 
REMARK    7  A    between atoms: C_15  and  C_16 
ROOT
HETATM    1  O           1     -30.719  -6.682 -17.335  0.00  0.00    -0.272 OA
HETATM    2  N           1     -28.994  -5.302 -17.000  0.00  0.00    -0.345 N 
HETATM    3  C           1     -30.335  -5.561 -17.096  0.00  0.00     0.243 C 
HETATM    4  H           1     -28.673  -4.364 -16.799  0.00  0.00     0.163 HD
ENDROOT
BRANCH   2   5
HETATM    5  C           1     -28.034  -6.373 -17.184  0.00  0.00     0.186 C 
BRANCH   5   6
HETATM    6  C           1     -27.364  -6.680 -15.867  0.00  0.00     0.196 C 
HETATM    7  O           1     -27.896  -7.478 -15.066  0.00  0.00    -0.646 OA
HETATM    8  O           1     -26.276  -6.136 -15.579  0.00  0.00    -0.646 OA
ENDBRANCH   5   6
BRANCH   5   9
HETATM    9  C           1     -26.985  -5.944 -18.201  0.00  0.00     0.046 C 
BRANCH   9  10
HETATM   10  C           1     -27.342  -6.508 -19.569  0.00  0.00     0.076 C 
BRANCH  10  11
HETATM   11  S           1     -25.822  -6.910 -20.475  0.00  0.00    -0.173 SA
HETATM   12  C           1     -24.728  -6.935 -19.026  0.00  0.00     0.089 C 
ENDBRANCH  10  11
ENDBRANCH   9  10
ENDBRANCH   5   9
ENDBRANCH   2   5
BRANCH   3  13
HETATM   13  C           1     -31.334  -4.447 -16.905  0.00  0.00     0.332 C 
BRANCH  13  14
HETATM   14  N           1     -30.871  -3.226 -17.643  0.00  0.00    -0.071 N 
HETATM   15  H           1     -29.983  -3.441 -18.149  0.00  0.00     0.274 HD
HETATM   16  H           1     -30.705  -2.450 -16.962  0.00  0.00     0.274 HD
HETATM   17  H           1     -31.602  -2.937 -18.330  0.00  0.00     0.274 HD
ENDBRANCH  13  14
ENDBRANCH   3  13
TORSDOF 7
ENDMDL
MODEL 6
REMARK VINA RESULT:      -4.7     10.238     11.643
REMARK  7 active torsions:
REMARK  status: ('A' for Active; 'I' for Inactive)
REMARK    1  A    between atoms: S_2  and  C_8 
REMARK    2  A    between atoms: N_6  and  C_16 
REMARK    3  A    between atoms: C_8  and  C_14 
REMARK    4  A    between atoms: N_9  and  C_13 
REMARK       I    between atoms: N_9  and  C_15 
REMARK    5  A    between atoms: C_12  and  C_13 
REMARK    6  A    between atoms: C_13  and  C_14 
REMARK    7  A    between atoms: C_15  and  C_16 
ROOT
HETATM    1  O           1     -33.233  -1.660 -10.548  0.00  0.00    -0.272 OA
HETATM    2  N           1     -34.917  -2.162 -11.926  0.00  0.00    -0.345 N 
HETATM    3  C           1     -33.761  -2.477 -11.264  0.00  0.00     0.243 C 
HETATM    4  H           1     -35.360  -2.847 -12.525  0.00  0.00     0.163 HD
ENDROOT
BRANCH   2   5
HETATM    5  C           1     -35.508  -0.847 -11.768  0.00  0.00     0.186 C 
BRANCH   5   6
HETATM    6  C           1     -36.533  -0.886 -10.662  0.00  0.00     0.196 C 
HETATM    7  O           1     -37.708  -1.237 -10.910  0.00  0.00    -0.646 OA
HETATM    8  O           1     -36.209  -0.569  -9.497  0.00  0.00    -0.646 OA
ENDBRANCH   5   6
BRANCH   5   9
HETATM    9  C           1     -36.180  -0.433 -13.070  0.00  0.00     0.046 C 
BRANCH   9  10
HETATM   10  C           1     -35.164   0.256 -13.970  0.00  0.00     0.076 C 
BRANCH  10  11
HETATM   11  S           1     -35.963   0.740 -15.526  0.00  0.00    -0.173 SA
HETATM   12  C           1     -35.799  -0.872 -16.344  0.00  0.00     0.089 C 
ENDBRANCH  10  11
ENDBRANCH   9  10
ENDBRANCH   5   9
ENDBRANCH   2   5
BRANCH   3  13
HETATM   13  C           1     -33.147  -3.845 -11.428  0.00  0.00     0.332 C 
BRANCH  13  14
HETATM   14  N           1     -33.294  -4.293 -12.852  0.00  0.00    -0.071 N 
HETATM   15  H           1     -32.940  -3.546 -13.491  0.00  0.00     0.274 HD
HETATM   16  H           1     -34.303  -4.476 -13.057  0.00  0.00     0.274 HD
HETATM   17  H           1     -32.743  -5.168 -13.001  0.00  0.00     0.274 HD
ENDBRANCH  13  14
ENDBRANCH   3  13
TORSDOF 7
ENDMDL
MODEL 7
REMARK VINA RESULT:      -4.7     12.191     13.282
REMARK  7 active torsions:
REMARK  status: ('A' for Active; 'I' for Inactive)
REMARK    1  A    between atoms: S_2  and  C_8 
REMARK    2  A    between atoms: N_6  and  C_16 
REMARK    3  A    between atoms: C_8  and  C_14 
REMARK    4  A    between atoms: N_9  and  C_13 
REMARK       I    between atoms: N_9  and  C_15 
REMARK    5  A    between atoms: C_12  and  C_13 
REMARK    6  A    between atoms: C_13  and  C_14 
REMARK    7  A    between atoms: C_15  and  C_16 
ROOT
HETATM    1  O           1     -34.712   1.129 -13.570  0.00  0.00    -0.272 OA
HETATM    2  N           1     -36.449  -0.201 -13.119  0.00  0.00    -0.345 N 
HETATM    3  C           1     -35.644   0.484 -13.989  0.00  0.00     0.243 C 
HETATM    4  H           1     -37.229  -0.741 -13.470  0.00  0.00     0.163 HD
ENDROOT
BRANCH   2   5
HETATM    5  C           1     -36.183  -0.151 -11.694  0.00  0.00     0.186 C 
BRANCH   5   6
HETATM    6  C           1     -35.517  -1.435 -11.263  0.00  0.00     0.196 C 
HETATM    7  O           1     -34.297  -1.445 -10.990  0.00  0.00    -0.646 OA
HETATM    8  O           1     -36.186  -2.487 -11.176  0.00  0.00    -0.646 OA
ENDBRANCH   5   6
BRANCH   5   9
HETATM    9  C           1     -37.494   0.020 -10.940  0.00  0.00     0.046 C 
BRANCH   9  10
HETATM   10  C           1     -37.265   0.888  -9.711  0.00  0.00     0.076 C 
BRANCH  10  11
HETATM   11  S           1     -37.486  -0.111  -8.212  0.00  0.00    -0.173 SA
HETATM   12  C           1     -37.097   1.212  -7.032  0.00  0.00     0.089 C 
ENDBRANCH  10  11
ENDBRANCH   9  10
ENDBRANCH   5   9
ENDBRANCH   2   5
BRANCH   3  13
HETATM   13  C           1     -35.920   0.433 -15.472  0.00  0.00     0.332 C 
BRANCH  13  14
HETATM   14  N           1     -37.133   1.259 -15.784  0.00  0.00    -0.071 N 
HETATM   15  H           1     -37.006   1.726 -16.710  0.00  0.00     0.274 HD
HETATM   16  H           1     -37.259   1.985 -15.043  0.00  0.00     0.274 HD
HETATM   17  H           1     -37.975   0.642 -15.817  0.00  0.00     0.274 HD
ENDBRANCH  13  14
ENDBRANCH   3  13
TORSDOF 7
ENDMDL
MODEL 8
REMARK VINA RESULT:      -4.6     11.592     12.986
REMARK  7 active torsions:
REMARK  status: ('A' for Active; 'I' for Inactive)
REMARK    1  A    between atoms: S_2  and  C_8 
REMARK    2  A    between atoms: N_6  and  C_16 
REMARK    3  A    between atoms: C_8  and  C_14 
REMARK    4  A    between atoms: N_9  and  C_13 
REMARK       I    between atoms: N_9  and  C_15 
REMARK    5  A    between atoms: C_12  and  C_13 
REMARK    6  A    between atoms: C_13  and  C_14 
REMARK    7  A    between atoms: C_15  and  C_16 
ROOT
HETATM    1  O           1     -37.816  -0.678 -13.603  0.00  0.00    -0.272 OA
HETATM    2  N           1     -36.127  -0.137 -12.244  0.00  0.00    -0.345 N 
HETATM    3  C           1     -36.722  -0.180 -13.476  0.00  0.00     0.243 C 
HETATM    4  H           1     -35.211   0.279 -12.139  0.00  0.00     0.163 HD
ENDROOT
BRANCH   2   5
HETATM    5  C           1     -36.811  -0.689 -11.090  0.00  0.00     0.186 C 
BRANCH   5   6
HETATM    6  C           1     -37.038   0.401 -10.072  0.00  0.00     0.196 C 
HETATM    7  O           1     -38.075   1.098 -10.122  0.00  0.00    -0.646 OA
HETATM    8  O           1     -36.189   0.607  -9.177  0.00  0.00    -0.646 OA
ENDBRANCH   5   6
BRANCH   5   9
HETATM    9  C           1     -35.958  -1.790 -10.475  0.00  0.00     0.046 C 
BRANCH   9  10
HETATM   10  C           1     -34.615  -1.852 -11.188  0.00  0.00     0.076 C 
BRANCH  10  11
HETATM   11  S           1     -33.926  -3.524 -11.041  0.00  0.00    -0.173 SA
HETATM   12  C           1     -33.826  -3.856 -12.822  0.00  0.00     0.089 C 
ENDBRANCH  10  11
ENDBRANCH   9  10
ENDBRANCH   5   9
ENDBRANCH   2   5
BRANCH   3  13
HETATM   13  C           1     -36.011   0.393 -14.678  0.00  0.00     0.332 C 
BRANCH  13  14
HETATM   14  N           1     -37.019   0.964 -15.631  0.00  0.00    -0.071 N 
HETATM   15  H           1     -36.689   1.896 -15.970  0.00  0.00     0.274 HD
HETATM   16  H           1     -37.936   1.077 -15.141  0.00  0.00     0.274 HD
HETATM   17  H           1     -37.134   0.319 -16.443  0.00  0.00     0.274 HD
ENDBRANCH  13  14
ENDBRANCH   3  13
TORSDOF 7
ENDMDL
MODEL 9
REMARK VINA RESULT:      -4.3      9.867     11.169
REMARK  7 active torsions:
REMARK  status: ('A' for Active; 'I' for Inactive)
REMARK    1  A    between atoms: S_2  and  C_8 
REMARK    2  A    between atoms: N_6  and  C_16 
REMARK    3  A    between atoms: C_8  and  C_14 
REMARK    4  A    between atoms: N_9  and  C_13 
REMARK       I    between atoms: N_9  and  C_15 
REMARK    5  A    between atoms: C_12  and  C_13 
REMARK    6  A    between atoms: C_13  and  C_14 
REMARK    7  A    between atoms: C_15  and  C_16 
ROOT
HETATM    1  O           1     -36.285  -0.897 -17.058  0.00  0.00    -0.272 OA
HETATM    2  N           1     -35.124  -1.143 -15.165  0.00  0.00    -0.345 N 
HETATM    3  C           1     -35.373  -1.439 -16.478  0.00  0.00     0.243 C 
HETATM    4  H           1     -34.360  -1.596 -14.680  0.00  0.00     0.163 HD
ENDROOT
BRANCH   2   5
HETATM    5  C           1     -35.954  -0.178 -14.470  0.00  0.00     0.186 C 
BRANCH   5   6
HETATM    6  C           1     -35.325   1.190 -14.567  0.00  0.00     0.196 C 
HETATM    7  O           1     -35.620   1.948 -15.517  0.00  0.00    -0.646 OA
HETATM    8  O           1     -34.509   1.566 -13.698  0.00  0.00    -0.646 OA
ENDBRANCH   5   6
BRANCH   5   9
HETATM    9  C           1     -36.077  -0.578 -13.006  0.00  0.00     0.046 C 
BRANCH   9  10
HETATM   10  C           1     -35.136  -1.738 -12.715  0.00  0.00     0.076 C 
BRANCH  10  11
HETATM   11  S           1     -35.347  -2.273 -10.994  0.00  0.00    -0.173 SA
HETATM   12  C           1     -33.613  -2.730 -10.713  0.00  0.00     0.089 C 
ENDBRANCH  10  11
ENDBRANCH   9  10
ENDBRANCH   5   9
ENDBRANCH   2   5
BRANCH   3  13
HETATM   13  C           1     -34.509  -2.442 -17.202  0.00  0.00     0.332 C 
BRANCH  13  14
HETATM   14  N           1     -34.211  -3.596 -16.292  0.00  0.00    -0.071 N 
HETATM   15  H           1     -33.416  -3.345 -15.661  0.00  0.00     0.274 HD
HETATM   16  H           1     -33.952  -4.432 -16.863  0.00  0.00     0.274 HD
HETATM   17  H           1     -35.056  -3.814 -15.718  0.00  0.00     0.274 HD
ENDBRANCH  13  14
ENDBRANCH   3  13
TORSDOF 7
ENDMDL
