MODEL 1
REMARK VINA RESULT:      -6.8      0.000      0.000
REMARK  6 active torsions:
REMARK  status: ('A' for Active; 'I' for Inactive)
REMARK    1  A    between atoms: N_1  and  C_12 
REMARK    2  A    between atoms: C_5  and  C_6 
REMARK    3  A    between atoms: C_5  and  N_18 
REMARK       I    between atoms: C_11  and  N_18 
REMARK    4  A    between atoms: C_11  and  C_12 
REMARK    5  A    between atoms: C_12  and  C_13 
REMARK    6  A    between atoms: C_13  and  C_14 
ROOT
HETATM    1  O           1     -36.605  -1.379 -12.438  0.00  0.00    -0.271 OA
HETATM    2  H           1     -33.905  -0.983 -13.986  0.00  0.00     0.163 HD
HETATM    3  C           1     -35.419  -1.449 -12.653  0.00  0.00     0.249 C 
HETATM    4  N           1     -34.899  -0.924 -13.806  0.00  0.00    -0.345 N 
ENDROOT
BRANCH   3   5
HETATM    5  C           1     -34.508  -2.117 -11.651  0.00  0.00     0.275 C 
BRANCH   5   6
HETATM    6  N           1     -34.618  -1.415 -10.330  0.00  0.00    -0.066 N 
HETATM    7  H           1     -34.474  -0.390 -10.467  0.00  0.00     0.275 HD
HETATM    8  H           1     -35.567  -1.583  -9.925  0.00  0.00     0.275 HD
HETATM    9  H           1     -33.891  -1.785  -9.677  0.00  0.00     0.275 HD
ENDBRANCH   5   6
BRANCH   5  10
HETATM   10  C           1     -34.915  -3.575 -11.487  0.00  0.00     0.046 C 
BRANCH  10  11
HETATM   11  C           1     -33.749  -4.367 -10.911  0.00  0.00    -0.020 C 
HETATM   12  C           1     -34.190  -5.801 -10.647  0.00  0.00     0.009 C 
HETATM   13  C           1     -32.596  -4.366 -11.904  0.00  0.00     0.009 C 
ENDBRANCH  10  11
ENDBRANCH   5  10
ENDBRANCH   3   5
BRANCH   4  14
HETATM   14  C           1     -35.774  -0.282 -14.768  0.00  0.00     0.181 C 
HETATM   15  C           1     -35.307   1.148 -15.004  0.00  0.00     0.043 C 
BRANCH  14  16
HETATM   16  C           1     -35.735  -1.046 -16.069  0.00  0.00     0.196 C 
HETATM   17  O           1     -36.416  -0.658 -17.043  0.00  0.00    -0.646 OA
HETATM   18  O           1     -35.022  -2.068 -16.172  0.00  0.00    -0.646 OA
ENDBRANCH  14  16
ENDBRANCH   4  14
TORSDOF 6
ENDMDL
MODEL 2
REMARK VINA RESULT:      -6.0     12.916     14.547
REMARK  6 active torsions:
REMARK  status: ('A' for Active; 'I' for Inactive)
REMARK    1  A    between atoms: N_1  and  C_12 
REMARK    2  A    between atoms: C_5  and  C_6 
REMARK    3  A    between atoms: C_5  and  N_18 
REMARK       I    between atoms: C_11  and  N_18 
REMARK    4  A    between atoms: C_11  and  C_12 
REMARK    5  A    between atoms: C_12  and  C_13 
REMARK    6  A    between atoms: C_13  and  C_14 
ROOT
HETATM    1  O           1     -21.573  -3.551  -7.204  0.00  0.00    -0.271 OA
HETATM    2  H           1     -21.931  -5.735  -9.427  0.00  0.00     0.163 HD
HETATM    3  C           1     -21.545  -4.648  -7.708  0.00  0.00     0.249 C 
HETATM    4  N           1     -21.955  -4.816  -9.004  0.00  0.00    -0.345 N 
ENDROOT
BRANCH   3   5
HETATM    5  C           1     -21.057  -5.833  -6.912  0.00  0.00     0.275 C 
BRANCH   5   6
HETATM    6  N           1     -19.717  -6.265  -7.429  0.00  0.00    -0.066 N 
HETATM    7  H           1     -18.966  -5.720  -6.949  0.00  0.00     0.275 HD
HETATM    8  H           1     -19.583  -7.284  -7.240  0.00  0.00     0.275 HD
HETATM    9  H           1     -19.668  -6.093  -8.458  0.00  0.00     0.275 HD
ENDBRANCH   5   6
BRANCH   5  10
HETATM   10  C           1     -20.933  -5.443  -5.445  0.00  0.00     0.046 C 
BRANCH  10  11
HETATM   11  C           1     -21.822  -6.346  -4.602  0.00  0.00    -0.020 C 
HETATM   12  C           1     -21.613  -7.798  -5.016  0.00  0.00     0.009 C 
HETATM   13  C           1     -21.462  -6.182  -3.131  0.00  0.00     0.009 C 
ENDBRANCH  10  11
ENDBRANCH   5  10
ENDBRANCH   3   5
BRANCH   4  14
HETATM   14  C           1     -22.424  -3.677  -9.770  0.00  0.00     0.181 C 
HETATM   15  C           1     -21.515  -3.467 -10.974  0.00  0.00     0.043 C 
BRANCH  14  16
HETATM   16  C           1     -23.833  -3.935 -10.241  0.00  0.00     0.196 C 
HETATM   17  O           1     -24.292  -5.098 -10.234  0.00  0.00    -0.646 OA
HETATM   18  O           1     -24.543  -2.986 -10.639  0.00  0.00    -0.646 OA
ENDBRANCH  14  16
ENDBRANCH   4  14
TORSDOF 6
ENDMDL
MODEL 3
REMARK VINA RESULT:      -5.8      1.498      2.158
REMARK  6 active torsions:
REMARK  status: ('A' for Active; 'I' for Inactive)
REMARK    1  A    between atoms: N_1  and  C_12 
REMARK    2  A    between atoms: C_5  and  C_6 
REMARK    3  A    between atoms: C_5  and  N_18 
REMARK       I    between atoms: C_11  and  N_18 
REMARK    4  A    between atoms: C_11  and  C_12 
REMARK    5  A    between atoms: C_12  and  C_13 
REMARK    6  A    between atoms: C_13  and  C_14 
ROOT
HETATM    1  O           1     -35.985  -1.798 -12.334  0.00  0.00    -0.271 OA
HETATM    2  H           1     -34.287  -1.647 -14.967  0.00  0.00     0.163 HD
HETATM    3  C           1     -35.186  -2.144 -13.170  0.00  0.00     0.249 C 
HETATM    4  N           1     -34.957  -1.357 -14.266  0.00  0.00    -0.345 N 
ENDROOT
BRANCH   3   5
HETATM    5  C           1     -34.439  -3.445 -13.007  0.00  0.00     0.275 C 
BRANCH   5   6
HETATM    6  N           1     -33.982  -3.931 -14.351  0.00  0.00    -0.066 N 
HETATM    7  H           1     -33.475  -3.164 -14.845  0.00  0.00     0.275 HD
HETATM    8  H           1     -33.343  -4.749 -14.227  0.00  0.00     0.275 HD
HETATM    9  H           1     -34.812  -4.221 -14.917  0.00  0.00     0.275 HD
ENDBRANCH   5   6
BRANCH   5  10
HETATM   10  C           1     -33.228  -3.227 -12.109  0.00  0.00     0.046 C 
BRANCH  10  11
HETATM   11  C           1     -33.557  -3.680 -10.693  0.00  0.00    -0.020 C 
HETATM   12  C           1     -34.021  -2.483  -9.872  0.00  0.00     0.009 C 
HETATM   13  C           1     -34.664  -4.724 -10.739  0.00  0.00     0.009 C 
ENDBRANCH  10  11
ENDBRANCH   5  10
ENDBRANCH   3   5
BRANCH   4  14
HETATM   14  C           1     -35.674  -0.106 -14.423  0.00  0.00     0.181 C 
HETATM   15  C           1     -34.704   1.058 -14.269  0.00  0.00     0.043 C 
BRANCH  14  16
HETATM   16  C           1     -36.305  -0.058 -15.793  0.00  0.00     0.196 C 
HETATM   17  O           1     -35.829  -0.740 -16.725  0.00  0.00    -0.646 OA
HETATM   18  O           1     -37.306   0.665 -15.995  0.00  0.00    -0.646 OA
ENDBRANCH  14  16
ENDBRANCH   4  14
TORSDOF 6
ENDMDL
MODEL 4
REMARK VINA RESULT:      -5.5     13.690     15.367
REMARK  6 active torsions:
REMARK  status: ('A' for Active; 'I' for Inactive)
REMARK    1  A    between atoms: N_1  and  C_12 
REMARK    2  A    between atoms: C_5  and  C_6 
REMARK    3  A    between atoms: C_5  and  N_18 
REMARK       I    between atoms: C_11  and  N_18 
REMARK    4  A    between atoms: C_11  and  C_12 
REMARK    5  A    between atoms: C_12  and  C_13 
REMARK    6  A    between atoms: C_13  and  C_14 
ROOT
HETATM    1  O           1     -20.614  -4.264  -6.223  0.00  0.00    -0.271 OA
HETATM    2  H           1     -22.565  -5.847  -8.102  0.00  0.00     0.163 HD
HETATM    3  C           1     -21.370  -5.141  -6.566  0.00  0.00     0.249 C 
HETATM    4  N           1     -21.932  -5.112  -7.815  0.00  0.00    -0.345 N 
ENDROOT
BRANCH   3   5
HETATM    5  C           1     -21.696  -6.270  -5.619  0.00  0.00     0.275 C 
BRANCH   5   6
HETATM    6  N           1     -21.123  -7.550  -6.151  0.00  0.00    -0.066 N 
HETATM    7  H           1     -20.284  -7.339  -6.737  0.00  0.00     0.275 HD
HETATM    8  H           1     -20.846  -8.165  -5.354  0.00  0.00     0.275 HD
HETATM    9  H           1     -21.841  -8.037  -6.734  0.00  0.00     0.275 HD
ENDBRANCH   5   6
BRANCH   5  10
HETATM   10  C           1     -21.095  -5.975  -4.251  0.00  0.00     0.046 C 
BRANCH  10  11
HETATM   11  C           1     -21.665  -6.945  -3.225  0.00  0.00    -0.020 C 
HETATM   12  C           1     -20.565  -7.889  -2.752  0.00  0.00     0.009 C 
HETATM   13  C           1     -22.209  -6.164  -2.037  0.00  0.00     0.009 C 
ENDBRANCH  10  11
ENDBRANCH   5  10
ENDBRANCH   3   5
BRANCH   4  14
HETATM   14  C           1     -21.618  -4.027  -8.725  0.00  0.00     0.181 C 
HETATM   15  C           1     -20.508  -4.464  -9.672  0.00  0.00     0.043 C 
BRANCH  14  16
HETATM   16  C           1     -22.848  -3.670  -9.522  0.00  0.00     0.196 C 
HETATM   17  O           1     -23.979  -3.740  -8.993  0.00  0.00    -0.646 OA
HETATM   18  O           1     -22.737  -3.304 -10.713  0.00  0.00    -0.646 OA
ENDBRANCH  14  16
ENDBRANCH   4  14
TORSDOF 6
ENDMDL
MODEL 5
REMARK VINA RESULT:      -5.4      9.253     10.688
REMARK  6 active torsions:
REMARK  status: ('A' for Active; 'I' for Inactive)
REMARK    1  A    between atoms: N_1  and  C_12 
REMARK    2  A    between atoms: C_5  and  C_6 
REMARK    3  A    between atoms: C_5  and  N_18 
REMARK       I    between atoms: C_11  and  N_18 
REMARK    4  A    between atoms: C_11  and  C_12 
REMARK    5  A    between atoms: C_12  and  C_13 
REMARK    6  A    between atoms: C_13  and  C_14 
ROOT
HETATM    1  O           1     -28.372  -5.206 -19.262  0.00  0.00    -0.271 OA
HETATM    2  H           1     -27.032  -7.968 -18.618  0.00  0.00     0.163 HD
HETATM    3  C           1     -28.137  -6.218 -18.647  0.00  0.00     0.249 C 
HETATM    4  N           1     -27.229  -7.120 -19.134  0.00  0.00    -0.345 N 
ENDROOT
BRANCH   3   5
HETATM    5  C           1     -28.843  -6.489 -17.341  0.00  0.00     0.275 C 
BRANCH   5   6
HETATM    6  N           1     -27.944  -7.287 -16.443  0.00  0.00    -0.066 N 
HETATM    7  H           1     -27.656  -6.701 -15.627  0.00  0.00     0.275 HD
HETATM    8  H           1     -28.455  -8.133 -16.102  0.00  0.00     0.275 HD
HETATM    9  H           1     -27.095  -7.584 -16.975  0.00  0.00     0.275 HD
ENDBRANCH   5   6
BRANCH   5  10
HETATM   10  C           1     -29.189  -5.168 -16.667  0.00  0.00     0.046 C 
BRANCH  10  11
HETATM   11  C           1     -30.701  -4.989 -16.644  0.00  0.00    -0.020 C 
HETATM   12  C           1     -31.082  -3.776 -17.483  0.00  0.00     0.009 C 
HETATM   13  C           1     -31.367  -6.232 -17.220  0.00  0.00     0.009 C 
ENDBRANCH  10  11
ENDBRANCH   5  10
ENDBRANCH   3   5
BRANCH   4  14
HETATM   14  C           1     -26.550  -6.859 -20.388  0.00  0.00     0.181 C 
HETATM   15  C           1     -25.119  -6.418 -20.109  0.00  0.00     0.043 C 
BRANCH  14  16
HETATM   16  C           1     -26.535  -8.117 -21.221  0.00  0.00     0.196 C 
HETATM   17  O           1     -27.591  -8.761 -21.401  0.00  0.00    -0.646 OA
HETATM   18  O           1     -25.466  -8.516 -21.733  0.00  0.00    -0.646 OA
ENDBRANCH  14  16
ENDBRANCH   4  14
TORSDOF 6
ENDMDL
MODEL 6
REMARK VINA RESULT:      -5.4      9.366     11.139
REMARK  6 active torsions:
REMARK  status: ('A' for Active; 'I' for Inactive)
REMARK    1  A    between atoms: N_1  and  C_12 
REMARK    2  A    between atoms: C_5  and  C_6 
REMARK    3  A    between atoms: C_5  and  N_18 
REMARK       I    between atoms: C_11  and  N_18 
REMARK    4  A    between atoms: C_11  and  C_12 
REMARK    5  A    between atoms: C_12  and  C_13 
REMARK    6  A    between atoms: C_13  and  C_14 
ROOT
HETATM    1  O           1     -26.652  -5.149 -16.515  0.00  0.00    -0.271 OA
HETATM    2  H           1     -26.498  -7.439 -18.653  0.00  0.00     0.163 HD
HETATM    3  C           1     -27.051  -5.950 -17.325  0.00  0.00     0.249 C 
HETATM    4  N           1     -26.164  -6.767 -17.974  0.00  0.00    -0.345 N 
ENDROOT
BRANCH   3   5
HETATM    5  C           1     -28.527  -6.054 -17.622  0.00  0.00     0.275 C 
BRANCH   5   6
HETATM    6  N           1     -29.007  -7.437 -17.297  0.00  0.00    -0.066 N 
HETATM    7  H           1     -29.123  -7.532 -16.263  0.00  0.00     0.275 HD
HETATM    8  H           1     -29.925  -7.607 -17.767  0.00  0.00     0.275 HD
HETATM    9  H           1     -28.308  -8.137 -17.634  0.00  0.00     0.275 HD
ENDBRANCH   5   6
BRANCH   5  10
HETATM   10  C           1     -29.288  -5.041 -16.775  0.00  0.00     0.046 C 
BRANCH  10  11
HETATM   11  C           1     -29.768  -3.898 -17.659  0.00  0.00    -0.020 C 
HETATM   12  C           1     -31.272  -3.723 -17.491  0.00  0.00     0.009 C 
HETATM   13  C           1     -29.060  -2.612 -17.253  0.00  0.00     0.009 C 
ENDBRANCH  10  11
ENDBRANCH   5  10
ENDBRANCH   3   5
BRANCH   4  14
HETATM   14  C           1     -24.746  -6.668 -17.689  0.00  0.00     0.181 C 
HETATM   15  C           1     -24.398  -7.585 -16.524  0.00  0.00     0.043 C 
BRANCH  14  16
HETATM   16  C           1     -23.959  -7.082 -18.908  0.00  0.00     0.196 C 
HETATM   17  O           1     -22.710  -7.112 -18.866  0.00  0.00    -0.646 OA
HETATM   18  O           1     -24.556  -7.395 -19.961  0.00  0.00    -0.646 OA
ENDBRANCH  14  16
ENDBRANCH   4  14
TORSDOF 6
ENDMDL
MODEL 7
REMARK VINA RESULT:      -5.4     10.242     11.730
REMARK  6 active torsions:
REMARK  status: ('A' for Active; 'I' for Inactive)
REMARK    1  A    between atoms: N_1  and  C_12 
REMARK    2  A    between atoms: C_5  and  C_6 
REMARK    3  A    between atoms: C_5  and  N_18 
REMARK       I    between atoms: C_11  and  N_18 
REMARK    4  A    between atoms: C_11  and  C_12 
REMARK    5  A    between atoms: C_12  and  C_13 
REMARK    6  A    between atoms: C_13  and  C_14 
ROOT
HETATM    1  O           1     -26.137  -6.056 -16.904  0.00  0.00    -0.271 OA
HETATM    2  H           1     -27.653  -6.612 -19.593  0.00  0.00     0.163 HD
HETATM    3  C           1     -26.277  -6.297 -18.079  0.00  0.00     0.249 C 
HETATM    4  N           1     -27.535  -6.411 -18.609  0.00  0.00    -0.345 N 
ENDROOT
BRANCH   3   5
HETATM    5  C           1     -25.068  -6.472 -18.964  0.00  0.00     0.275 C 
BRANCH   5   6
HETATM    6  N           1     -24.365  -7.747 -18.604  0.00  0.00    -0.066 N 
HETATM    7  H           1     -24.443  -7.910 -17.575  0.00  0.00     0.275 HD
HETATM    8  H           1     -24.805  -8.544 -19.118  0.00  0.00     0.275 HD
HETATM    9  H           1     -23.357  -7.676 -18.870  0.00  0.00     0.275 HD
ENDBRANCH   5   6
BRANCH   5  10
HETATM   10  C           1     -25.508  -6.529 -20.421  0.00  0.00     0.046 C 
BRANCH  10  11
HETATM   11  C           1     -25.279  -7.932 -20.967  0.00  0.00    -0.020 C 
HETATM   12  C           1     -26.611  -8.535 -21.397  0.00  0.00     0.009 C 
HETATM   13  C           1     -24.343  -7.863 -22.166  0.00  0.00     0.009 C 
ENDBRANCH  10  11
ENDBRANCH   5  10
ENDBRANCH   3   5
BRANCH   4  14
HETATM   14  C           1     -28.698  -6.242 -17.758  0.00  0.00     0.181 C 
HETATM   15  C           1     -29.504  -5.040 -18.234  0.00  0.00     0.043 C 
BRANCH  14  16
HETATM   16  C           1     -29.554  -7.482 -17.828  0.00  0.00     0.196 C 
HETATM   17  O           1     -29.416  -8.386 -16.975  0.00  0.00    -0.646 OA
HETATM   18  O           1     -30.401  -7.607 -18.739  0.00  0.00    -0.646 OA
ENDBRANCH  14  16
ENDBRANCH   4  14
TORSDOF 6
ENDMDL
MODEL 8
REMARK VINA RESULT:      -5.4      2.144      3.061
REMARK  6 active torsions:
REMARK  status: ('A' for Active; 'I' for Inactive)
REMARK    1  A    between atoms: N_1  and  C_12 
REMARK    2  A    between atoms: C_5  and  C_6 
REMARK    3  A    between atoms: C_5  and  N_18 
REMARK       I    between atoms: C_11  and  N_18 
REMARK    4  A    between atoms: C_11  and  C_12 
REMARK    5  A    between atoms: C_12  and  C_13 
REMARK    6  A    between atoms: C_13  and  C_14 
ROOT
HETATM    1  O           1     -34.486  -2.223 -10.786  0.00  0.00    -0.271 OA
HETATM    2  H           1     -34.887  -1.976 -13.887  0.00  0.00     0.163 HD
HETATM    3  C           1     -34.531  -2.578 -11.939  0.00  0.00     0.249 C 
HETATM    4  N           1     -34.849  -1.678 -12.921  0.00  0.00    -0.345 N 
ENDROOT
BRANCH   3   5
HETATM    5  C           1     -34.238  -4.014 -12.299  0.00  0.00     0.275 C 
BRANCH   5   6
HETATM    6  N           1     -33.278  -4.055 -13.451  0.00  0.00    -0.066 N 
HETATM    7  H           1     -32.315  -4.250 -13.095  0.00  0.00     0.275 HD
HETATM    8  H           1     -33.564  -4.808 -14.116  0.00  0.00     0.275 HD
HETATM    9  H           1     -33.286  -3.133 -13.944  0.00  0.00     0.275 HD
ENDBRANCH   5   6
BRANCH   5  10
HETATM   10  C           1     -33.622  -4.723 -11.100  0.00  0.00     0.046 C 
BRANCH  10  11
HETATM   11  C           1     -34.080  -6.175 -11.078  0.00  0.00    -0.020 C 
HETATM   12  C           1     -34.578  -6.530  -9.682  0.00  0.00     0.009 C 
HETATM   13  C           1     -35.208  -6.367 -12.082  0.00  0.00     0.009 C 
ENDBRANCH  10  11
ENDBRANCH   5  10
ENDBRANCH   3   5
BRANCH   4  14
HETATM   14  C           1     -35.130  -0.298 -12.575  0.00  0.00     0.181 C 
HETATM   15  C           1     -34.791   0.600 -13.757  0.00  0.00     0.043 C 
BRANCH  14  16
HETATM   16  C           1     -36.593  -0.154 -12.237  0.00  0.00     0.196 C 
HETATM   17  O           1     -36.936   0.344 -11.142  0.00  0.00    -0.646 OA
HETATM   18  O           1     -37.464  -0.532 -13.051  0.00  0.00    -0.646 OA
ENDBRANCH  14  16
ENDBRANCH   4  14
TORSDOF 6
ENDMDL
MODEL 9
REMARK VINA RESULT:      -5.2     10.793     12.427
REMARK  6 active torsions:
REMARK  status: ('A' for Active; 'I' for Inactive)
REMARK    1  A    between atoms: N_1  and  C_12 
REMARK    2  A    between atoms: C_5  and  C_6 
REMARK    3  A    between atoms: C_5  and  N_18 
REMARK       I    between atoms: C_11  and  N_18 
REMARK    4  A    between atoms: C_11  and  C_12 
REMARK    5  A    between atoms: C_12  and  C_13 
REMARK    6  A    between atoms: C_13  and  C_14 
ROOT
HETATM    1  O           1     -27.039  -5.998 -20.580  0.00  0.00    -0.271 OA
HETATM    2  H           1     -26.302  -6.796 -17.638  0.00  0.00     0.163 HD
HETATM    3  C           1     -26.374  -6.442 -19.676  0.00  0.00     0.249 C 
HETATM    4  N           1     -26.859  -6.424 -18.396  0.00  0.00    -0.345 N 
ENDROOT
BRANCH   3   5
HETATM    5  C           1     -25.007  -7.017 -19.956  0.00  0.00     0.275 C 
BRANCH   5   6
HETATM    6  N           1     -24.373  -7.449 -18.667  0.00  0.00    -0.066 N 
HETATM    7  H           1     -24.255  -6.620 -18.041  0.00  0.00     0.275 HD
HETATM    8  H           1     -24.983  -8.156 -18.199  0.00  0.00     0.275 HD
HETATM    9  H           1     -23.437  -7.871 -18.864  0.00  0.00     0.275 HD
ENDBRANCH   5   6
BRANCH   5  10
HETATM   10  C           1     -25.141  -8.218 -20.882  0.00  0.00     0.046 C 
BRANCH  10  11
HETATM   11  C           1     -24.126  -8.105 -22.012  0.00  0.00    -0.020 C 
HETATM   12  C           1     -24.103  -6.673 -22.533  0.00  0.00     0.009 C 
HETATM   13  C           1     -22.745  -8.477 -21.492  0.00  0.00     0.009 C 
ENDBRANCH  10  11
ENDBRANCH   5  10
ENDBRANCH   3   5
BRANCH   4  14
HETATM   14  C           1     -28.173  -5.872 -18.126  0.00  0.00     0.181 C 
HETATM   15  C           1     -29.099  -6.980 -17.642  0.00  0.00     0.043 C 
BRANCH  14  16
HETATM   16  C           1     -28.062  -4.808 -17.062  0.00  0.00     0.196 C 
HETATM   17  O           1     -27.461  -5.052 -15.994  0.00  0.00    -0.646 OA
HETATM   18  O           1     -28.570  -3.681 -17.250  0.00  0.00    -0.646 OA
ENDBRANCH  14  16
ENDBRANCH   4  14
TORSDOF 6
ENDMDL
