MODEL 1
REMARK VINA RESULT:      -5.4      0.000      0.000
REMARK  9 active torsions:
REMARK  status: ('A' for Active; 'I' for Inactive)
REMARK    1  A    between atoms: S_1  and  C_6 
REMARK    2  A    between atoms: N_5  and  C_9 
REMARK    3  A    between atoms: C_6  and  C_8 
REMARK    4  A    between atoms: C_8  and  C_9 
REMARK    5  A    between atoms: C_9  and  C_10 
REMARK       I    between atoms: C_10  and  N_18 
REMARK    6  A    between atoms: C_15  and  C_20 
REMARK    7  A    between atoms: S_17  and  C_19 
REMARK    8  A    between atoms: N_18  and  C_20 
REMARK    9  A    between atoms: C_19  and  C_20 
ROOT
HETATM    1  C           1     -34.293  -2.327 -12.217  0.00  0.00     0.249 C 
HETATM    2  O           1     -33.900  -1.882 -11.165  0.00  0.00    -0.271 OA
HETATM    3  H           1     -35.276  -1.886 -13.984  0.00  0.00     0.163 HD
HETATM    4  N           1     -34.948  -1.514 -13.103  0.00  0.00    -0.344 N 
ENDROOT
BRANCH   1   5
HETATM    5  C           1     -34.061  -3.779 -12.555  0.00  0.00     0.275 C 
BRANCH   5   6
HETATM    6  N           1     -33.905  -3.927 -14.039  0.00  0.00    -0.066 N 
HETATM    7  H           1     -34.288  -3.081 -14.516  0.00  0.00     0.275 HD
HETATM    8  H           1     -34.425  -4.775 -14.361  0.00  0.00     0.275 HD
HETATM    9  H           1     -32.892  -4.032 -14.275  0.00  0.00     0.275 HD
ENDBRANCH   5   6
BRANCH   5  10
HETATM   10  C           1     -32.795  -4.267 -11.861  0.00  0.00     0.053 C 
BRANCH  10  11
HETATM   11  C           1     -33.038  -5.654 -11.279  0.00  0.00     0.076 C 
BRANCH  11  12
HETATM   12  S           1     -34.695  -5.719 -10.542  0.00  0.00    -0.173 SA
HETATM   13  C           1     -34.676  -7.494 -10.164  0.00  0.00     0.089 C 
ENDBRANCH  11  12
ENDBRANCH  10  11
ENDBRANCH   5  10
ENDBRANCH   1   5
BRANCH   4  14
HETATM   14  C           1     -35.170  -0.118 -12.777  0.00  0.00     0.194 C 
BRANCH  14  15
HETATM   15  C           1     -36.408   0.007 -11.924  0.00  0.00     0.197 C 
HETATM   16  O           1     -36.328   0.486 -10.772  0.00  0.00    -0.646 OA
HETATM   17  O           1     -37.515  -0.369 -12.370  0.00  0.00    -0.646 OA
ENDBRANCH  14  15
BRANCH  14  18
HETATM   18  C           1     -35.355   0.678 -14.062  0.00  0.00     0.106 C 
BRANCH  18  19
HETATM   19  S           1     -35.677  -0.461 -15.439  0.00  0.00    -0.180 SA
HETATM   20  H           1     -36.899   0.017 -15.733  0.00  0.00     0.101 HD
ENDBRANCH  18  19
ENDBRANCH  14  18
ENDBRANCH   4  14
TORSDOF 9
ENDMDL
MODEL 2
REMARK VINA RESULT:      -5.4     11.579     13.013
REMARK  9 active torsions:
REMARK  status: ('A' for Active; 'I' for Inactive)
REMARK    1  A    between atoms: S_1  and  C_6 
REMARK    2  A    between atoms: N_5  and  C_9 
REMARK    3  A    between atoms: C_6  and  C_8 
REMARK    4  A    between atoms: C_8  and  C_9 
REMARK    5  A    between atoms: C_9  and  C_10 
REMARK       I    between atoms: C_10  and  N_18 
REMARK    6  A    between atoms: C_15  and  C_20 
REMARK    7  A    between atoms: S_17  and  C_19 
REMARK    8  A    between atoms: N_18  and  C_20 
REMARK    9  A    between atoms: C_19  and  C_20 
ROOT
HETATM    1  C           1     -25.242  -6.890 -19.044  0.00  0.00     0.249 C 
HETATM    2  O           1     -24.186  -6.459 -18.648  0.00  0.00    -0.271 OA
HETATM    3  H           1     -27.264  -7.064 -18.635  0.00  0.00     0.163 HD
HETATM    4  N           1     -26.379  -6.704 -18.303  0.00  0.00    -0.344 N 
ENDROOT
BRANCH   1   5
HETATM    5  C           1     -25.309  -7.634 -20.355  0.00  0.00     0.275 C 
BRANCH   5   6
HETATM    6  N           1     -26.735  -7.989 -20.655  0.00  0.00    -0.066 N 
HETATM    7  H           1     -26.763  -8.846 -21.251  0.00  0.00     0.275 HD
HETATM    8  H           1     -27.192  -7.197 -21.160  0.00  0.00     0.275 HD
HETATM    9  H           1     -27.244  -8.171 -19.761  0.00  0.00     0.275 HD
ENDBRANCH   5   6
BRANCH   5  10
HETATM   10  C           1     -24.761  -6.752 -21.469  0.00  0.00     0.053 C 
BRANCH  10  11
HETATM   11  C           1     -23.920  -7.596 -22.418  0.00  0.00     0.076 C 
BRANCH  11  12
HETATM   12  S           1     -22.688  -8.529 -21.467  0.00  0.00    -0.173 SA
HETATM   13  C           1     -21.891  -9.319 -22.893  0.00  0.00     0.089 C 
ENDBRANCH  11  12
ENDBRANCH  10  11
ENDBRANCH   5  10
ENDBRANCH   1   5
BRANCH   4  14
HETATM   14  C           1     -26.313  -5.989 -17.044  0.00  0.00     0.194 C 
BRANCH  14  15
HETATM   15  C           1     -26.267  -6.979 -15.906  0.00  0.00     0.197 C 
HETATM   16  O           1     -25.168  -7.422 -15.508  0.00  0.00    -0.646 OA
HETATM   17  O           1     -27.328  -7.356 -15.362  0.00  0.00    -0.646 OA
ENDBRANCH  14  15
BRANCH  14  18
HETATM   18  C           1     -27.546  -5.105 -16.899  0.00  0.00     0.106 C 
BRANCH  18  19
HETATM   19  S           1     -28.680  -5.417 -18.281  0.00  0.00    -0.180 SA
HETATM   20  H           1     -27.749  -5.907 -19.119  0.00  0.00     0.101 HD
ENDBRANCH  18  19
ENDBRANCH  14  18
ENDBRANCH   4  14
TORSDOF 9
ENDMDL
MODEL 3
REMARK VINA RESULT:      -5.3     12.432     13.954
REMARK  9 active torsions:
REMARK  status: ('A' for Active; 'I' for Inactive)
REMARK    1  A    between atoms: S_1  and  C_6 
REMARK    2  A    between atoms: N_5  and  C_9 
REMARK    3  A    between atoms: C_6  and  C_8 
REMARK    4  A    between atoms: C_8  and  C_9 
REMARK    5  A    between atoms: C_9  and  C_10 
REMARK       I    between atoms: C_10  and  N_18 
REMARK    6  A    between atoms: C_15  and  C_20 
REMARK    7  A    between atoms: S_17  and  C_19 
REMARK    8  A    between atoms: N_18  and  C_20 
REMARK    9  A    between atoms: C_19  and  C_20 
ROOT
HETATM    1  C           1     -21.805  -4.681  -7.748  0.00  0.00     0.249 C 
HETATM    2  O           1     -21.794  -3.593  -7.223  0.00  0.00    -0.271 OA
HETATM    3  H           1     -22.314  -5.736  -9.455  0.00  0.00     0.163 HD
HETATM    4  N           1     -22.305  -4.825  -9.015  0.00  0.00    -0.344 N 
ENDROOT
BRANCH   1   5
HETATM    5  C           1     -21.269  -5.881  -7.007  0.00  0.00     0.275 C 
BRANCH   5   6
HETATM    6  N           1     -19.870  -6.167  -7.467  0.00  0.00    -0.066 N 
HETATM    7  H           1     -19.382  -6.755  -6.755  0.00  0.00     0.275 HD
HETATM    8  H           1     -19.353  -5.267  -7.590  0.00  0.00     0.275 HD
HETATM    9  H           1     -19.900  -6.677  -8.379  0.00  0.00     0.275 HD
ENDBRANCH   5   6
BRANCH   5  10
HETATM   10  C           1     -21.261  -5.594  -5.511  0.00  0.00     0.053 C 
BRANCH  10  11
HETATM   11  C           1     -22.170  -6.588  -4.799  0.00  0.00     0.076 C 
BRANCH  11  12
HETATM   12  S           1     -21.305  -7.276  -3.360  0.00  0.00    -0.173 SA
HETATM   13  C           1     -22.088  -6.201  -2.125  0.00  0.00     0.089 C 
ENDBRANCH  11  12
ENDBRANCH  10  11
ENDBRANCH   5  10
ENDBRANCH   1   5
BRANCH   4  14
HETATM   14  C           1     -22.820  -3.671  -9.726  0.00  0.00     0.194 C 
BRANCH  14  15
HETATM   15  C           1     -24.257  -3.921 -10.114  0.00  0.00     0.197 C 
HETATM   16  O           1     -24.812  -4.994  -9.795  0.00  0.00    -0.646 OA
HETATM   17  O           1     -24.891  -3.054 -10.754  0.00  0.00    -0.646 OA
ENDBRANCH  14  15
BRANCH  14  18
HETATM   18  C           1     -21.988  -3.436 -10.980  0.00  0.00     0.106 C 
BRANCH  18  19
HETATM   19  S           1     -20.384  -4.266 -10.806  0.00  0.00    -0.180 SA
HETATM   20  H           1     -20.455  -4.954 -11.959  0.00  0.00     0.101 HD
ENDBRANCH  18  19
ENDBRANCH  14  18
ENDBRANCH   4  14
TORSDOF 9
ENDMDL
MODEL 4
REMARK VINA RESULT:      -5.2      2.259      2.533
REMARK  9 active torsions:
REMARK  status: ('A' for Active; 'I' for Inactive)
REMARK    1  A    between atoms: S_1  and  C_6 
REMARK    2  A    between atoms: N_5  and  C_9 
REMARK    3  A    between atoms: C_6  and  C_8 
REMARK    4  A    between atoms: C_8  and  C_9 
REMARK    5  A    between atoms: C_9  and  C_10 
REMARK       I    between atoms: C_10  and  N_18 
REMARK    6  A    between atoms: C_15  and  C_20 
REMARK    7  A    between atoms: S_17  and  C_19 
REMARK    8  A    between atoms: N_18  and  C_20 
REMARK    9  A    between atoms: C_19  and  C_20 
ROOT
HETATM    1  C           1     -34.477  -2.274 -12.492  0.00  0.00     0.249 C 
HETATM    2  O           1     -34.629  -2.967 -13.470  0.00  0.00    -0.271 OA
HETATM    3  H           1     -34.969  -0.475 -11.595  0.00  0.00     0.163 HD
HETATM    4  N           1     -35.095  -1.055 -12.414  0.00  0.00    -0.344 N 
ENDROOT
BRANCH   1   5
HETATM    5  C           1     -33.606  -2.753 -11.356  0.00  0.00     0.275 C 
BRANCH   5   6
HETATM    6  N           1     -33.369  -1.623 -10.399  0.00  0.00    -0.066 N 
HETATM    7  H           1     -32.366  -1.335 -10.441  0.00  0.00     0.275 HD
HETATM    8  H           1     -33.603  -1.933  -9.429  0.00  0.00     0.275 HD
HETATM    9  H           1     -33.974  -0.812 -10.660  0.00  0.00     0.275 HD
ENDBRANCH   5   6
BRANCH   5  10
HETATM   10  C           1     -34.301  -3.896 -10.629  0.00  0.00     0.053 C 
BRANCH  10  11
HETATM   11  C           1     -33.616  -5.211 -10.978  0.00  0.00     0.076 C 
BRANCH  11  12
HETATM   12  S           1     -34.869  -6.444 -11.428  0.00  0.00    -0.173 SA
HETATM   13  C           1     -34.804  -7.372  -9.870  0.00  0.00     0.089 C 
ENDBRANCH  11  12
ENDBRANCH  10  11
ENDBRANCH   5  10
ENDBRANCH   1   5
BRANCH   4  14
HETATM   14  C           1     -35.932  -0.596 -13.506  0.00  0.00     0.194 C 
BRANCH  14  15
HETATM   15  C           1     -35.277   0.584 -14.179  0.00  0.00     0.197 C 
HETATM   16  O           1     -34.451   1.282 -13.552  0.00  0.00    -0.646 OA
HETATM   17  O           1     -35.561   0.865 -15.364  0.00  0.00    -0.646 OA
ENDBRANCH  14  15
BRANCH  14  18
HETATM   18  C           1     -37.292  -0.181 -12.961  0.00  0.00     0.106 C 
BRANCH  18  19
HETATM   19  S           1     -37.210  -0.068 -11.151  0.00  0.00    -0.180 SA
HETATM   20  H           1     -38.362  -0.720 -10.917  0.00  0.00     0.101 HD
ENDBRANCH  18  19
ENDBRANCH  14  18
ENDBRANCH   4  14
TORSDOF 9
ENDMDL
MODEL 5
REMARK VINA RESULT:      -5.1      9.951     11.353
REMARK  9 active torsions:
REMARK  status: ('A' for Active; 'I' for Inactive)
REMARK    1  A    between atoms: S_1  and  C_6 
REMARK    2  A    between atoms: N_5  and  C_9 
REMARK    3  A    between atoms: C_6  and  C_8 
REMARK    4  A    between atoms: C_8  and  C_9 
REMARK    5  A    between atoms: C_9  and  C_10 
REMARK       I    between atoms: C_10  and  N_18 
REMARK    6  A    between atoms: C_15  and  C_20 
REMARK    7  A    between atoms: S_17  and  C_19 
REMARK    8  A    between atoms: N_18  and  C_20 
REMARK    9  A    between atoms: C_19  and  C_20 
ROOT
HETATM    1  C           1     -26.346  -6.928 -16.464  0.00  0.00     0.249 C 
HETATM    2  O           1     -26.359  -7.352 -15.333  0.00  0.00    -0.271 OA
HETATM    3  H           1     -27.510  -6.229 -18.027  0.00  0.00     0.163 HD
HETATM    4  N           1     -27.520  -6.585 -17.080  0.00  0.00    -0.344 N 
ENDROOT
BRANCH   1   5
HETATM    5  C           1     -25.036  -6.775 -17.197  0.00  0.00     0.275 C 
BRANCH   5   6
HETATM    6  N           1     -24.112  -7.890 -16.806  0.00  0.00    -0.066 N 
HETATM    7  H           1     -24.599  -8.527 -16.136  0.00  0.00     0.275 HD
HETATM    8  H           1     -23.259  -7.492 -16.353  0.00  0.00     0.275 HD
HETATM    9  H           1     -23.835  -8.427 -17.658  0.00  0.00     0.275 HD
ENDBRANCH   5   6
BRANCH   5  10
HETATM   10  C           1     -25.285  -6.826 -18.699  0.00  0.00     0.053 C 
BRANCH  10  11
HETATM   11  C           1     -24.009  -7.258 -19.411  0.00  0.00     0.076 C 
BRANCH  11  12
HETATM   12  S           1     -24.425  -7.925 -21.046  0.00  0.00    -0.173 SA
HETATM   13  C           1     -22.757  -8.513 -21.452  0.00  0.00     0.089 C 
ENDBRANCH  11  12
ENDBRANCH  10  11
ENDBRANCH   5  10
ENDBRANCH   1   5
BRANCH   4  14
HETATM   14  C           1     -28.778  -6.732 -16.374  0.00  0.00     0.194 C 
BRANCH  14  15
HETATM   15  C           1     -29.821  -7.283 -17.316  0.00  0.00     0.197 C 
HETATM   16  O           1     -30.982  -6.821 -17.301  0.00  0.00    -0.646 OA
HETATM   17  O           1     -29.523  -8.201 -18.110  0.00  0.00    -0.646 OA
ENDBRANCH  14  15
BRANCH  14  18
HETATM   18  C           1     -29.229  -5.373 -15.854  0.00  0.00     0.106 C 
BRANCH  18  19
HETATM   19  S           1     -28.662  -4.074 -16.987  0.00  0.00    -0.180 SA
HETATM   20  H           1     -29.269  -3.057 -16.351  0.00  0.00     0.101 HD
ENDBRANCH  18  19
ENDBRANCH  14  18
ENDBRANCH   4  14
TORSDOF 9
ENDMDL
MODEL 6
REMARK VINA RESULT:      -5.0      4.044      5.694
REMARK  9 active torsions:
REMARK  status: ('A' for Active; 'I' for Inactive)
REMARK    1  A    between atoms: S_1  and  C_6 
REMARK    2  A    between atoms: N_5  and  C_9 
REMARK    3  A    between atoms: C_6  and  C_8 
REMARK    4  A    between atoms: C_8  and  C_9 
REMARK    5  A    between atoms: C_9  and  C_10 
REMARK       I    between atoms: C_10  and  N_18 
REMARK    6  A    between atoms: C_15  and  C_20 
REMARK    7  A    between atoms: S_17  and  C_19 
REMARK    8  A    between atoms: N_18  and  C_20 
REMARK    9  A    between atoms: C_19  and  C_20 
ROOT
HETATM    1  C           1     -33.947  -4.518 -15.487  0.00  0.00     0.249 C 
HETATM    2  O           1     -35.046  -5.017 -15.432  0.00  0.00    -0.271 OA
HETATM    3  H           1     -32.450  -3.586 -14.402  0.00  0.00     0.163 HD
HETATM    4  N           1     -33.371  -4.003 -14.356  0.00  0.00    -0.344 N 
ENDROOT
BRANCH   1   5
HETATM    5  C           1     -33.209  -4.463 -16.802  0.00  0.00     0.275 C 
BRANCH   5   6
HETATM    6  N           1     -33.455  -3.137 -17.457  0.00  0.00    -0.066 N 
HETATM    7  H           1     -34.174  -2.608 -16.914  0.00  0.00     0.275 HD
HETATM    8  H           1     -33.797  -3.289 -18.433  0.00  0.00     0.275 HD
HETATM    9  H           1     -32.565  -2.590 -17.482  0.00  0.00     0.275 HD
ENDBRANCH   5   6
BRANCH   5  10
HETATM   10  C           1     -31.716  -4.637 -16.556  0.00  0.00     0.053 C 
BRANCH  10  11
HETATM   11  C           1     -30.937  -3.714 -17.484  0.00  0.00     0.076 C 
BRANCH  11  12
HETATM   12  S           1     -29.480  -4.588 -18.123  0.00  0.00    -0.173 SA
HETATM   13  C           1     -28.303  -3.922 -16.912  0.00  0.00     0.089 C 
ENDBRANCH  11  12
ENDBRANCH  10  11
ENDBRANCH   5  10
ENDBRANCH   1   5
BRANCH   4  14
HETATM   14  C           1     -34.081  -4.057 -13.093  0.00  0.00     0.194 C 
BRANCH  14  15
HETATM   15  C           1     -34.583  -2.678 -12.741  0.00  0.00     0.197 C 
HETATM   16  O           1     -35.053  -1.938 -13.631  0.00  0.00    -0.646 OA
HETATM   17  O           1     -34.528  -2.276 -11.558  0.00  0.00    -0.646 OA
ENDBRANCH  14  15
BRANCH  14  18
HETATM   18  C           1     -33.137  -4.548 -12.003  0.00  0.00     0.106 C 
BRANCH  18  19
HETATM   19  S           1     -33.974  -5.811 -11.002  0.00  0.00    -0.180 SA
HETATM   20  H           1     -34.698  -4.950 -10.266  0.00  0.00     0.101 HD
ENDBRANCH  18  19
ENDBRANCH  14  18
ENDBRANCH   4  14
TORSDOF 9
ENDMDL
MODEL 7
REMARK VINA RESULT:      -5.0     11.099     12.423
REMARK  9 active torsions:
REMARK  status: ('A' for Active; 'I' for Inactive)
REMARK    1  A    between atoms: S_1  and  C_6 
REMARK    2  A    between atoms: N_5  and  C_9 
REMARK    3  A    between atoms: C_6  and  C_8 
REMARK    4  A    between atoms: C_8  and  C_9 
REMARK    5  A    between atoms: C_9  and  C_10 
REMARK       I    between atoms: C_10  and  N_18 
REMARK    6  A    between atoms: C_15  and  C_20 
REMARK    7  A    between atoms: S_17  and  C_19 
REMARK    8  A    between atoms: N_18  and  C_20 
REMARK    9  A    between atoms: C_19  and  C_20 
ROOT
HETATM    1  C           1     -26.487  -6.587 -19.438  0.00  0.00     0.249 C 
HETATM    2  O           1     -27.291  -6.721 -20.330  0.00  0.00    -0.271 OA
HETATM    3  H           1     -26.231  -6.095 -17.444  0.00  0.00     0.163 HD
HETATM    4  N           1     -26.905  -6.206 -18.191  0.00  0.00    -0.344 N 
ENDROOT
BRANCH   1   5
HETATM    5  C           1     -25.022  -6.838 -19.699  0.00  0.00     0.275 C 
BRANCH   5   6
HETATM    6  N           1     -24.401  -7.470 -18.489  0.00  0.00    -0.066 N 
HETATM    7  H           1     -24.798  -7.036 -17.626  0.00  0.00     0.275 HD
HETATM    8  H           1     -23.367  -7.321 -18.510  0.00  0.00     0.275 HD
HETATM    9  H           1     -24.603  -8.495 -18.488  0.00  0.00     0.275 HD
ENDBRANCH   5   6
BRANCH   5  10
HETATM   10  C           1     -24.871  -7.772 -20.893  0.00  0.00     0.053 C 
BRANCH  10  11
HETATM   11  C           1     -23.416  -8.208 -21.016  0.00  0.00     0.076 C 
BRANCH  11  12
HETATM   12  S           1     -23.002  -8.444 -22.766  0.00  0.00    -0.173 SA
HETATM   13  C           1     -21.462  -9.363 -22.484  0.00  0.00     0.089 C 
ENDBRANCH  11  12
ENDBRANCH  10  11
ENDBRANCH   5  10
ENDBRANCH   1   5
BRANCH   4  14
HETATM   14  C           1     -28.312  -5.965 -17.941  0.00  0.00     0.194 C 
BRANCH  14  15
HETATM   15  C           1     -28.507  -4.532 -17.509  0.00  0.00     0.197 C 
HETATM   16  O           1     -27.697  -4.002 -16.719  0.00  0.00    -0.646 OA
HETATM   17  O           1     -29.479  -3.876 -17.942  0.00  0.00    -0.646 OA
ENDBRANCH  14  15
BRANCH  14  18
HETATM   18  C           1     -28.798  -6.898 -16.840  0.00  0.00     0.106 C 
BRANCH  18  19
HETATM   19  S           1     -27.451  -7.197 -15.661  0.00  0.00    -0.180 SA
HETATM   20  H           1     -27.649  -6.083 -14.935  0.00  0.00     0.101 HD
ENDBRANCH  18  19
ENDBRANCH  14  18
ENDBRANCH   4  14
TORSDOF 9
ENDMDL
MODEL 8
REMARK VINA RESULT:      -4.6     13.805     16.134
REMARK  9 active torsions:
REMARK  status: ('A' for Active; 'I' for Inactive)
REMARK    1  A    between atoms: S_1  and  C_6 
REMARK    2  A    between atoms: N_5  and  C_9 
REMARK    3  A    between atoms: C_6  and  C_8 
REMARK    4  A    between atoms: C_8  and  C_9 
REMARK    5  A    between atoms: C_9  and  C_10 
REMARK       I    between atoms: C_10  and  N_18 
REMARK    6  A    between atoms: C_15  and  C_20 
REMARK    7  A    between atoms: S_17  and  C_19 
REMARK    8  A    between atoms: N_18  and  C_20 
REMARK    9  A    between atoms: C_19  and  C_20 
ROOT
HETATM    1  C           1     -21.824  -5.902  -5.623  0.00  0.00     0.249 C 
HETATM    2  O           1     -23.024  -5.881  -5.482  0.00  0.00    -0.271 OA
HETATM    3  H           1     -20.051  -6.734  -4.954  0.00  0.00     0.163 HD
HETATM    4  N           1     -21.055  -6.716  -4.835  0.00  0.00    -0.344 N 
ENDROOT
BRANCH   1   5
HETATM    5  C           1     -21.173  -5.030  -6.669  0.00  0.00     0.275 C 
BRANCH   5   6
HETATM    6  N           1     -20.368  -5.886  -7.601  0.00  0.00    -0.066 N 
HETATM    7  H           1     -20.821  -6.823  -7.693  0.00  0.00     0.275 HD
HETATM    8  H           1     -19.402  -6.001  -7.221  0.00  0.00     0.275 HD
HETATM    9  H           1     -20.320  -5.429  -8.540  0.00  0.00     0.275 HD
ENDBRANCH   5   6
BRANCH   5  10
HETATM   10  C           1     -22.248  -4.293  -7.458  0.00  0.00     0.053 C 
BRANCH  10  11
HETATM   11  C           1     -21.766  -4.069  -8.886  0.00  0.00     0.076 C 
BRANCH  11  12
HETATM   12  S           1     -23.043  -4.626 -10.049  0.00  0.00    -0.173 SA
HETATM   13  C           1     -24.323  -3.456  -9.514  0.00  0.00     0.089 C 
ENDBRANCH  11  12
ENDBRANCH  10  11
ENDBRANCH   5  10
ENDBRANCH   1   5
BRANCH   4  14
HETATM   14  C           1     -21.681  -7.553  -3.831  0.00  0.00     0.194 C 
BRANCH  14  15
HETATM   15  C           1     -21.545  -6.901  -2.477  0.00  0.00     0.197 C 
HETATM   16  O           1     -22.229  -5.892  -2.198  0.00  0.00    -0.646 OA
HETATM   17  O           1     -20.747  -7.368  -1.635  0.00  0.00    -0.646 OA
ENDBRANCH  14  15
BRANCH  14  18
HETATM   18  C           1     -20.999  -8.915  -3.810  0.00  0.00     0.106 C 
BRANCH  18  19
HETATM   19  S           1     -19.526  -8.870  -4.869  0.00  0.00    -0.180 SA
HETATM   20  H           1     -18.984 -10.009  -4.405  0.00  0.00     0.101 HD
ENDBRANCH  18  19
ENDBRANCH  14  18
ENDBRANCH   4  14
TORSDOF 9
ENDMDL
MODEL 9
REMARK VINA RESULT:      -4.5      2.060      5.799
REMARK  9 active torsions:
REMARK  status: ('A' for Active; 'I' for Inactive)
REMARK    1  A    between atoms: S_1  and  C_6 
REMARK    2  A    between atoms: N_5  and  C_9 
REMARK    3  A    between atoms: C_6  and  C_8 
REMARK    4  A    between atoms: C_8  and  C_9 
REMARK    5  A    between atoms: C_9  and  C_10 
REMARK       I    between atoms: C_10  and  N_18 
REMARK    6  A    between atoms: C_15  and  C_20 
REMARK    7  A    between atoms: S_17  and  C_19 
REMARK    8  A    between atoms: N_18  and  C_20 
REMARK    9  A    between atoms: C_19  and  C_20 
ROOT
HETATM    1  C           1     -35.294  -2.096 -10.870  0.00  0.00     0.249 C 
HETATM    2  O           1     -34.320  -1.857 -10.196  0.00  0.00    -0.271 OA
HETATM    3  H           1     -36.227  -3.508 -12.061  0.00  0.00     0.163 HD
HETATM    4  N           1     -35.411  -3.308 -11.497  0.00  0.00    -0.344 N 
ENDROOT
BRANCH   1   5
HETATM    5  C           1     -36.380  -1.059 -11.020  0.00  0.00     0.275 C 
BRANCH   5   6
HETATM    6  N           1     -36.128   0.068 -10.064  0.00  0.00    -0.066 N 
HETATM    7  H           1     -36.250   0.980 -10.559  0.00  0.00     0.275 HD
HETATM    8  H           1     -35.154  -0.001  -9.693  0.00  0.00     0.275 HD
HETATM    9  H           1     -36.806   0.010  -9.270  0.00  0.00     0.275 HD
ENDBRANCH   5   6
BRANCH   5  10
HETATM   10  C           1     -36.379  -0.524 -12.446  0.00  0.00     0.053 C 
BRANCH  10  11
HETATM   11  C           1     -35.088   0.243 -12.700  0.00  0.00     0.076 C 
BRANCH  11  12
HETATM   12  S           1     -35.136   0.974 -14.361  0.00  0.00    -0.173 SA
HETATM   13  C           1     -35.597  -0.549 -15.234  0.00  0.00     0.089 C 
ENDBRANCH  11  12
ENDBRANCH  10  11
ENDBRANCH   5  10
ENDBRANCH   1   5
BRANCH   4  14
HETATM   14  C           1     -34.367  -4.303 -11.353  0.00  0.00     0.194 C 
BRANCH  14  15
HETATM   15  C           1     -33.316  -4.086 -12.413  0.00  0.00     0.197 C 
HETATM   16  O           1     -33.643  -3.642 -13.535  0.00  0.00    -0.646 OA
HETATM   17  O           1     -32.118  -4.350 -12.169  0.00  0.00    -0.646 OA
ENDBRANCH  14  15
BRANCH  14  18
HETATM   18  C           1     -34.968  -5.694 -11.510  0.00  0.00     0.106 C 
BRANCH  18  19
HETATM   19  S           1     -34.550  -6.702 -10.060  0.00  0.00    -0.180 SA
HETATM   20  H           1     -33.534  -5.928  -9.639  0.00  0.00     0.101 HD
ENDBRANCH  18  19
ENDBRANCH  14  18
ENDBRANCH   4  14
TORSDOF 9
ENDMDL
