MODEL 1
REMARK VINA RESULT:      -6.2      0.000      0.000
REMARK  9 active torsions:
REMARK  status: ('A' for Active; 'I' for Inactive)
REMARK    1  A    between atoms: C_1  and  C_19 
REMARK       I    between atoms: C_5  and  N_6 
REMARK    2  A    between atoms: C_5  and  C_7 
REMARK    3  A    between atoms: C_7  and  C_18 
REMARK    4  A    between atoms: N_12  and  C_15 
REMARK    5  A    between atoms: Se_13  and  C_14 
REMARK    6  A    between atoms: C_14  and  C_15 
REMARK    7  A    between atoms: C_15  and  C_16 
REMARK       I    between atoms: C_16  and  N_17 
REMARK    8  A    between atoms: N_17  and  C_19 
REMARK    9  A    between atoms: C_18  and  C_19 
ROOT
HETATM    1  H           1     -27.809  -7.087 -20.034  0.00  0.00     0.163 HD
HETATM    2  O           1     -26.184  -6.043 -17.563  0.00  0.00    -0.271 OA
HETATM    3  C           1     -26.373  -6.492 -18.669  0.00  0.00     0.249 C 
HETATM    4  N           1     -27.651  -6.712 -19.108  0.00  0.00    -0.345 N 
ENDROOT
BRANCH   4   5
HETATM    5  C           1     -28.777  -6.408 -18.247  0.00  0.00     0.186 C 
BRANCH   5   6
HETATM    6  C           1     -29.812  -7.498 -18.369  0.00  0.00     0.196 C 
HETATM    7  O           1     -30.809  -7.500 -17.615  0.00  0.00    -0.646 OA
HETATM    8  O           1     -29.673  -8.400 -19.224  0.00  0.00    -0.646 OA
ENDBRANCH   5   6
BRANCH   5   9
HETATM    9  C           1     -29.389  -5.076 -18.663  0.00  0.00     0.045 C 
BRANCH   9  10
HETATM   10  C           1     -29.641  -4.224 -17.426  0.00  0.00     0.105 C 
BRANCH  10  11
HETATM   11  C           1     -31.122  -3.969 -17.284  0.00  0.00     0.215 C 
HETATM   12  O           1     -31.619  -2.994 -17.794  0.00  0.00    -0.274 OA
HETATM   13  N           1     -31.902  -4.845 -16.577  0.00  0.00    -0.370 N 
HETATM   14  H           1     -31.485  -5.662 -16.150  0.00  0.00     0.159 HD
HETATM   15  H           1     -32.895  -4.675 -16.482  0.00  0.00     0.159 HD
ENDBRANCH  10  11
ENDBRANCH   9  10
ENDBRANCH   5   9
ENDBRANCH   4   5
BRANCH   3  16
HETATM   16  C           1     -25.201  -6.808 -19.565  0.00  0.00     0.274 C 
BRANCH  16  17
HETATM   17  N           1     -24.168  -7.567 -18.787  0.00  0.00    -0.067 N 
HETATM   18  H           1     -24.565  -8.484 -18.481  0.00  0.00     0.275 HD
HETATM   19  H           1     -23.331  -7.735 -19.391  0.00  0.00     0.275 HD
HETATM   20  H           1     -23.886  -7.011 -17.948  0.00  0.00     0.275 HD
ENDBRANCH  16  17
BRANCH  16  21
HETATM   21  C           1     -25.674  -7.653 -20.740  0.00  0.00     0.045 C 
BRANCH  21  22
HETATM   22 Se           1     -24.215  -7.870 -22.014  0.00  0.00     0.000 Se
HETATM   23  H           1     -23.157  -7.631 -21.018  0.00  0.00     0.000 HD
ENDBRANCH  21  22
ENDBRANCH  16  21
ENDBRANCH   3  16
TORSDOF 9
ENDMDL
MODEL 2
REMARK VINA RESULT:      -6.1      9.412     10.703
REMARK  9 active torsions:
REMARK  status: ('A' for Active; 'I' for Inactive)
REMARK    1  A    between atoms: C_1  and  C_19 
REMARK       I    between atoms: C_5  and  N_6 
REMARK    2  A    between atoms: C_5  and  C_7 
REMARK    3  A    between atoms: C_7  and  C_18 
REMARK    4  A    between atoms: N_12  and  C_15 
REMARK    5  A    between atoms: Se_13  and  C_14 
REMARK    6  A    between atoms: C_14  and  C_15 
REMARK    7  A    between atoms: C_15  and  C_16 
REMARK       I    between atoms: C_16  and  N_17 
REMARK    8  A    between atoms: N_17  and  C_19 
REMARK    9  A    between atoms: C_18  and  C_19 
ROOT
HETATM    1  H           1     -35.373  -2.010 -14.064  0.00  0.00     0.163 HD
HETATM    2  O           1     -33.880  -2.127 -11.307  0.00  0.00    -0.271 OA
HETATM    3  C           1     -34.340  -2.533 -12.348  0.00  0.00     0.249 C 
HETATM    4  N           1     -34.987  -1.670 -13.192  0.00  0.00    -0.345 N 
ENDROOT
BRANCH   4   5
HETATM    5  C           1     -35.122  -0.271 -12.837  0.00  0.00     0.186 C 
BRANCH   5   6
HETATM    6  C           1     -36.343  -0.087 -11.971  0.00  0.00     0.196 C 
HETATM    7  O           1     -36.232   0.416 -10.832  0.00  0.00    -0.646 OA
HETATM    8  O           1     -37.467  -0.438 -12.393  0.00  0.00    -0.646 OA
ENDBRANCH   5   6
BRANCH   5   9
HETATM    9  C           1     -35.265   0.563 -14.103  0.00  0.00     0.045 C 
BRANCH   9  10
HETATM   10  C           1     -35.476  -0.358 -15.298  0.00  0.00     0.105 C 
BRANCH  10  11
HETATM   11  C           1     -36.851  -0.126 -15.876  0.00  0.00     0.215 C 
HETATM   12  O           1     -37.186  -0.698 -16.885  0.00  0.00    -0.274 OA
HETATM   13  N           1     -37.717   0.733 -15.255  0.00  0.00    -0.370 N 
HETATM   14  H           1     -37.436   1.212 -14.409  0.00  0.00     0.159 HD
HETATM   15  H           1     -38.639   0.889 -15.642  0.00  0.00     0.159 HD
ENDBRANCH  10  11
ENDBRANCH   9  10
ENDBRANCH   5   9
ENDBRANCH   4   5
BRANCH   3  16
HETATM   16  C           1     -34.201  -3.989 -12.718  0.00  0.00     0.274 C 
BRANCH  16  17
HETATM   17  N           1     -33.680  -4.101 -14.121  0.00  0.00    -0.067 N 
HETATM   18  H           1     -34.015  -3.286 -14.683  0.00  0.00     0.275 HD
HETATM   19  H           1     -32.635  -4.108 -14.104  0.00  0.00     0.275 HD
HETATM   20  H           1     -34.029  -4.987 -14.551  0.00  0.00     0.275 HD
ENDBRANCH  16  17
BRANCH  16  21
HETATM   21  C           1     -33.230  -4.666 -11.761  0.00  0.00     0.045 C 
BRANCH  21  22
HETATM   22 Se           1     -34.181  -6.001 -10.706  0.00  0.00     0.000 Se
HETATM   23  H           1     -35.138  -6.331 -11.775  0.00  0.00     0.000 HD
ENDBRANCH  21  22
ENDBRANCH  16  21
ENDBRANCH   3  16
TORSDOF 9
ENDMDL
MODEL 3
REMARK VINA RESULT:      -5.9      2.201      3.189
REMARK  9 active torsions:
REMARK  status: ('A' for Active; 'I' for Inactive)
REMARK    1  A    between atoms: C_1  and  C_19 
REMARK       I    between atoms: C_5  and  N_6 
REMARK    2  A    between atoms: C_5  and  C_7 
REMARK    3  A    between atoms: C_7  and  C_18 
REMARK    4  A    between atoms: N_12  and  C_15 
REMARK    5  A    between atoms: Se_13  and  C_14 
REMARK    6  A    between atoms: C_14  and  C_15 
REMARK    7  A    between atoms: C_15  and  C_16 
REMARK       I    between atoms: C_16  and  N_17 
REMARK    8  A    between atoms: N_17  and  C_19 
REMARK    9  A    between atoms: C_18  and  C_19 
ROOT
HETATM    1  H           1     -27.043  -7.380 -18.745  0.00  0.00     0.163 HD
HETATM    2  O           1     -24.074  -6.379 -18.904  0.00  0.00    -0.271 OA
HETATM    3  C           1     -25.080  -6.954 -19.245  0.00  0.00     0.249 C 
HETATM    4  N           1     -26.200  -6.898 -18.459  0.00  0.00    -0.345 N 
ENDROOT
BRANCH   4   5
HETATM    5  C           1     -26.178  -6.150 -17.218  0.00  0.00     0.186 C 
BRANCH   5   6
HETATM    6  C           1     -25.948  -7.095 -16.065  0.00  0.00     0.196 C 
HETATM    7  O           1     -26.896  -7.400 -15.308  0.00  0.00    -0.646 OA
HETATM    8  O           1     -24.811  -7.574 -15.866  0.00  0.00    -0.646 OA
ENDBRANCH   5   6
BRANCH   5   9
HETATM    9  C           1     -27.511  -5.436 -17.032  0.00  0.00     0.045 C 
BRANCH   9  10
HETATM   10  C           1     -28.493  -5.906 -18.097  0.00  0.00     0.105 C 
BRANCH  10  11
HETATM   11  C           1     -29.556  -6.766 -17.457  0.00  0.00     0.215 C 
HETATM   12  O           1     -30.613  -6.279 -17.135  0.00  0.00    -0.274 OA
HETATM   13  N           1     -29.320  -8.097 -17.242  0.00  0.00    -0.370 N 
HETATM   14  H           1     -28.434  -8.505 -17.512  0.00  0.00     0.159 HD
HETATM   15  H           1     -30.033  -8.674 -16.813  0.00  0.00     0.159 HD
ENDBRANCH  10  11
ENDBRANCH   9  10
ENDBRANCH   5   9
ENDBRANCH   4   5
BRANCH   3  16
HETATM   16  C           1     -25.103  -7.733 -20.537  0.00  0.00     0.274 C 
BRANCH  16  17
HETATM   17  N           1     -26.513  -8.133 -20.855  0.00  0.00    -0.067 N 
HETATM   18  H           1     -26.552  -9.162 -21.033  0.00  0.00     0.275 HD
HETATM   19  H           1     -27.133  -7.896 -20.047  0.00  0.00     0.275 HD
HETATM   20  H           1     -26.837  -7.619 -21.706  0.00  0.00     0.275 HD
ENDBRANCH  16  17
BRANCH  16  21
HETATM   21  C           1     -24.555  -6.866 -21.663  0.00  0.00     0.045 C 
BRANCH  21  22
HETATM   22 Se           1     -23.490  -7.965 -22.869  0.00  0.00     0.000 Se
HETATM   23  H           1     -24.478  -9.053 -22.937  0.00  0.00     0.000 HD
ENDBRANCH  21  22
ENDBRANCH  16  21
ENDBRANCH   3  16
TORSDOF 9
ENDMDL
MODEL 4
REMARK VINA RESULT:      -5.5      1.901      2.521
REMARK  9 active torsions:
REMARK  status: ('A' for Active; 'I' for Inactive)
REMARK    1  A    between atoms: C_1  and  C_19 
REMARK       I    between atoms: C_5  and  N_6 
REMARK    2  A    between atoms: C_5  and  C_7 
REMARK    3  A    between atoms: C_7  and  C_18 
REMARK    4  A    between atoms: N_12  and  C_15 
REMARK    5  A    between atoms: Se_13  and  C_14 
REMARK    6  A    between atoms: C_14  and  C_15 
REMARK    7  A    between atoms: C_15  and  C_16 
REMARK       I    between atoms: C_16  and  N_17 
REMARK    8  A    between atoms: N_17  and  C_19 
REMARK    9  A    between atoms: C_18  and  C_19 
ROOT
HETATM    1  H           1     -26.574  -7.477 -18.068  0.00  0.00     0.163 HD
HETATM    2  O           1     -26.907  -5.641 -20.589  0.00  0.00    -0.271 OA
HETATM    3  C           1     -26.582  -6.612 -19.948  0.00  0.00     0.249 C 
HETATM    4  N           1     -26.846  -6.664 -18.605  0.00  0.00    -0.345 N 
ENDROOT
BRANCH   4   5
HETATM    5  C           1     -27.514  -5.555 -17.953  0.00  0.00     0.186 C 
BRANCH   5   6
HETATM    6  C           1     -27.071  -5.477 -16.514  0.00  0.00     0.196 C 
HETATM    7  O           1     -27.895  -5.181 -15.622  0.00  0.00    -0.646 OA
HETATM    8  O           1     -25.880  -5.708 -16.213  0.00  0.00    -0.646 OA
ENDBRANCH   5   6
BRANCH   5   9
HETATM    9  C           1     -29.022  -5.766 -18.011  0.00  0.00     0.045 C 
BRANCH   9  10
HETATM   10  C           1     -29.706  -4.454 -18.370  0.00  0.00     0.105 C 
BRANCH  10  11
HETATM   11  C           1     -30.799  -4.165 -17.370  0.00  0.00     0.215 C 
HETATM   12  O           1     -31.458  -3.158 -17.469  0.00  0.00    -0.274 OA
HETATM   13  N           1     -31.042  -5.046 -16.351  0.00  0.00    -0.370 N 
HETATM   14  H           1     -30.490  -5.890 -16.268  0.00  0.00     0.159 HD
HETATM   15  H           1     -31.775  -4.853 -15.680  0.00  0.00     0.159 HD
ENDBRANCH  10  11
ENDBRANCH   9  10
ENDBRANCH   5   9
ENDBRANCH   4   5
BRANCH   3  16
HETATM   16  C           1     -25.886  -7.766 -20.626  0.00  0.00     0.274 C 
BRANCH  16  17
HETATM   17  N           1     -26.906  -8.650 -21.281  0.00  0.00    -0.067 N 
HETATM   18  H           1     -26.962  -9.557 -20.766  0.00  0.00     0.275 HD
HETATM   19  H           1     -27.839  -8.178 -21.260  0.00  0.00     0.275 HD
HETATM   20  H           1     -26.626  -8.827 -22.272  0.00  0.00     0.275 HD
ENDBRANCH  16  17
BRANCH  16  21
HETATM   21  C           1     -24.925  -7.232 -21.680  0.00  0.00     0.045 C 
BRANCH  21  22
HETATM   22 Se           1     -23.337  -8.360 -21.742  0.00  0.00     0.000 Se
HETATM   23  H           1     -22.395  -7.241 -21.570  0.00  0.00     0.000 HD
ENDBRANCH  21  22
ENDBRANCH  16  21
ENDBRANCH   3  16
TORSDOF 9
ENDMDL
MODEL 5
REMARK VINA RESULT:      -5.0     14.383     15.504
REMARK  9 active torsions:
REMARK  status: ('A' for Active; 'I' for Inactive)
REMARK    1  A    between atoms: C_1  and  C_19 
REMARK       I    between atoms: C_5  and  N_6 
REMARK    2  A    between atoms: C_5  and  C_7 
REMARK    3  A    between atoms: C_7  and  C_18 
REMARK    4  A    between atoms: N_12  and  C_15 
REMARK    5  A    between atoms: Se_13  and  C_14 
REMARK    6  A    between atoms: C_14  and  C_15 
REMARK    7  A    between atoms: C_15  and  C_16 
REMARK       I    between atoms: C_16  and  N_17 
REMARK    8  A    between atoms: N_17  and  C_19 
REMARK    9  A    between atoms: C_18  and  C_19 
ROOT
HETATM    1  H           1     -21.522  -7.224  -7.053  0.00  0.00     0.163 HD
HETATM    2  O           1     -20.494  -4.411  -6.118  0.00  0.00    -0.271 OA
HETATM    3  C           1     -20.976  -5.237  -6.856  0.00  0.00     0.249 C 
HETATM    4  N           1     -21.117  -6.532  -6.435  0.00  0.00    -0.345 N 
ENDROOT
BRANCH   4   5
HETATM    5  C           1     -20.687  -6.913  -5.104  0.00  0.00     0.186 C 
BRANCH   5   6
HETATM    6  C           1     -20.074  -8.290  -5.148  0.00  0.00     0.196 C 
HETATM    7  O           1     -20.532  -9.201  -4.425  0.00  0.00    -0.646 OA
HETATM    8  O           1     -19.108  -8.520  -5.907  0.00  0.00    -0.646 OA
ENDBRANCH   5   6
BRANCH   5   9
HETATM    9  C           1     -21.888  -6.920  -4.165  0.00  0.00     0.045 C 
BRANCH   9  10
HETATM   10  C           1     -21.537  -6.172  -2.886  0.00  0.00     0.105 C 
BRANCH  10  11
HETATM   11  C           1     -21.837  -7.047  -1.693  0.00  0.00     0.215 C 
HETATM   12  O           1     -22.679  -6.712  -0.895  0.00  0.00    -0.274 OA
HETATM   13  N           1     -21.154  -8.220  -1.516  0.00  0.00    -0.370 N 
HETATM   14  H           1     -20.448  -8.500  -2.185  0.00  0.00     0.159 HD
HETATM   15  H           1     -21.354  -8.807  -0.716  0.00  0.00     0.159 HD
ENDBRANCH  10  11
ENDBRANCH   9  10
ENDBRANCH   5   9
ENDBRANCH   4   5
BRANCH   3  16
HETATM   16  C           1     -21.423  -4.841  -8.242  0.00  0.00     0.274 C 
BRANCH  16  17
HETATM   17  N           1     -22.358  -3.671  -8.150  0.00  0.00    -0.067 N 
HETATM   18  H           1     -22.757  -3.618  -7.186  0.00  0.00     0.275 HD
HETATM   19  H           1     -21.834  -2.791  -8.359  0.00  0.00     0.275 HD
HETATM   20  H           1     -23.132  -3.789  -8.842  0.00  0.00     0.275 HD
ENDBRANCH  16  17
BRANCH  16  21
HETATM   21  C           1     -20.210  -4.457  -9.077  0.00  0.00     0.045 C 
BRANCH  21  22
HETATM   22 Se           1     -20.770  -4.090 -10.907  0.00  0.00     0.000 Se
HETATM   23  H           1     -20.335  -5.397 -11.426  0.00  0.00     0.000 HD
ENDBRANCH  21  22
ENDBRANCH  16  21
ENDBRANCH   3  16
TORSDOF 9
ENDMDL
MODEL 6
REMARK VINA RESULT:      -5.0      2.042      3.383
REMARK  9 active torsions:
REMARK  status: ('A' for Active; 'I' for Inactive)
REMARK    1  A    between atoms: C_1  and  C_19 
REMARK       I    between atoms: C_5  and  N_6 
REMARK    2  A    between atoms: C_5  and  C_7 
REMARK    3  A    between atoms: C_7  and  C_18 
REMARK    4  A    between atoms: N_12  and  C_15 
REMARK    5  A    between atoms: Se_13  and  C_14 
REMARK    6  A    between atoms: C_14  and  C_15 
REMARK    7  A    between atoms: C_15  and  C_16 
REMARK       I    between atoms: C_16  and  N_17 
REMARK    8  A    between atoms: N_17  and  C_19 
REMARK    9  A    between atoms: C_18  and  C_19 
ROOT
HETATM    1  H           1     -26.981  -7.393 -18.093  0.00  0.00     0.163 HD
HETATM    2  O           1     -27.008  -5.631 -20.688  0.00  0.00    -0.271 OA
HETATM    3  C           1     -26.792  -6.596 -19.994  0.00  0.00     0.249 C 
HETATM    4  N           1     -27.161  -6.585 -18.675  0.00  0.00    -0.345 N 
ENDROOT
BRANCH   4   5
HETATM    5  C           1     -27.809  -5.417 -18.112  0.00  0.00     0.186 C 
BRANCH   5   6
HETATM    6  C           1     -27.265  -5.158 -16.729  0.00  0.00     0.196 C 
HETATM    7  O           1     -26.141  -5.601 -16.407  0.00  0.00    -0.646 OA
HETATM    8  O           1     -27.938  -4.502 -15.905  0.00  0.00    -0.646 OA
ENDBRANCH   5   6
BRANCH   5   9
HETATM    9  C           1     -29.311  -5.658 -18.032  0.00  0.00     0.045 C 
BRANCH   9  10
HETATM   10  C           1     -29.572  -7.065 -17.510  0.00  0.00     0.105 C 
BRANCH  10  11
HETATM   11  C           1     -30.326  -7.856 -18.551  0.00  0.00     0.215 C 
HETATM   12  O           1     -29.730  -8.597 -19.296  0.00  0.00    -0.274 OA
HETATM   13  N           1     -31.686  -7.733 -18.651  0.00  0.00    -0.370 N 
HETATM   14  H           1     -32.186  -7.112 -18.027  0.00  0.00     0.159 HD
HETATM   15  H           1     -32.192  -8.263 -19.349  0.00  0.00     0.159 HD
ENDBRANCH  10  11
ENDBRANCH   9  10
ENDBRANCH   5   9
ENDBRANCH   4   5
BRANCH   3  16
HETATM   16  C           1     -26.118  -7.812 -20.580  0.00  0.00     0.274 C 
BRANCH  16  17
HETATM   17  N           1     -27.149  -8.700 -21.210  0.00  0.00    -0.067 N 
HETATM   18  H           1     -27.693  -8.156 -21.917  0.00  0.00     0.275 HD
HETATM   19  H           1     -26.675  -9.505 -21.679  0.00  0.00     0.275 HD
HETATM   20  H           1     -27.797  -9.058 -20.472  0.00  0.00     0.275 HD
ENDBRANCH  16  17
BRANCH  16  21
HETATM   21  C           1     -25.111  -7.375 -21.635  0.00  0.00     0.045 C 
BRANCH  21  22
HETATM   22 Se           1     -23.430  -8.322 -21.359  0.00  0.00     0.000 Se
HETATM   23  H           1     -22.917  -8.043 -22.710  0.00  0.00     0.000 HD
ENDBRANCH  21  22
ENDBRANCH  16  21
ENDBRANCH   3  16
TORSDOF 9
ENDMDL
MODEL 7
REMARK VINA RESULT:      -5.0     13.843     14.944
REMARK  9 active torsions:
REMARK  status: ('A' for Active; 'I' for Inactive)
REMARK    1  A    between atoms: C_1  and  C_19 
REMARK       I    between atoms: C_5  and  N_6 
REMARK    2  A    between atoms: C_5  and  C_7 
REMARK    3  A    between atoms: C_7  and  C_18 
REMARK    4  A    between atoms: N_12  and  C_15 
REMARK    5  A    between atoms: Se_13  and  C_14 
REMARK    6  A    between atoms: C_14  and  C_15 
REMARK    7  A    between atoms: C_15  and  C_16 
REMARK       I    between atoms: C_16  and  N_17 
REMARK    8  A    between atoms: N_17  and  C_19 
REMARK    9  A    between atoms: C_18  and  C_19 
ROOT
HETATM    1  H           1     -20.198  -4.621  -4.993  0.00  0.00     0.163 HD
HETATM    2  O           1     -22.319  -6.926  -5.153  0.00  0.00    -0.271 OA
HETATM    3  C           1     -21.516  -6.178  -4.648  0.00  0.00     0.249 C 
HETATM    4  N           1     -20.870  -5.247  -5.416  0.00  0.00    -0.345 N 
ENDROOT
BRANCH   4   5
HETATM    5  C           1     -21.148  -5.160  -6.836  0.00  0.00     0.186 C 
BRANCH   5   6
HETATM    6  C           1     -19.855  -4.987  -7.593  0.00  0.00     0.196 C 
HETATM    7  O           1     -19.843  -5.080  -8.839  0.00  0.00    -0.646 OA
HETATM    8  O           1     -18.795  -4.752  -6.973  0.00  0.00    -0.646 OA
ENDBRANCH   5   6
BRANCH   5   9
HETATM    9  C           1     -22.057  -3.966  -7.103  0.00  0.00     0.045 C 
BRANCH   9  10
HETATM   10  C           1     -23.357  -4.448  -7.735  0.00  0.00     0.105 C 
BRANCH  10  11
HETATM   11  C           1     -23.600  -3.695  -9.020  0.00  0.00     0.215 C 
HETATM   12  O           1     -22.702  -3.551  -9.816  0.00  0.00    -0.274 OA
HETATM   13  N           1     -24.839  -3.177  -9.285  0.00  0.00    -0.370 N 
HETATM   14  H           1     -25.591  -3.297  -8.618  0.00  0.00     0.159 HD
HETATM   15  H           1     -25.003  -2.672 -10.147  0.00  0.00     0.159 HD
ENDBRANCH  10  11
ENDBRANCH   9  10
ENDBRANCH   5   9
ENDBRANCH   4   5
BRANCH   3  16
HETATM   16  C           1     -21.226  -6.269  -3.170  0.00  0.00     0.274 C 
BRANCH  16  17
HETATM   17  N           1     -22.439  -5.846  -2.395  0.00  0.00    -0.067 N 
HETATM   18  H           1     -22.206  -5.806  -1.377  0.00  0.00     0.275 HD
HETATM   19  H           1     -22.747  -4.901  -2.720  0.00  0.00     0.275 HD
HETATM   20  H           1     -23.209  -6.536  -2.551  0.00  0.00     0.275 HD
ENDBRANCH  16  17
BRANCH  16  21
HETATM   21  C           1     -20.869  -7.705  -2.810  0.00  0.00     0.045 C 
BRANCH  21  22
HETATM   22 Se           1     -21.396  -8.063  -0.968  0.00  0.00     0.000 Se
HETATM   23  H           1     -22.821  -7.771  -1.196  0.00  0.00     0.000 HD
ENDBRANCH  21  22
ENDBRANCH  16  21
ENDBRANCH   3  16
TORSDOF 9
ENDMDL
MODEL 8
REMARK VINA RESULT:      -4.9     13.207     14.468
REMARK  9 active torsions:
REMARK  status: ('A' for Active; 'I' for Inactive)
REMARK    1  A    between atoms: C_1  and  C_19 
REMARK       I    between atoms: C_5  and  N_6 
REMARK    2  A    between atoms: C_5  and  C_7 
REMARK    3  A    between atoms: C_7  and  C_18 
REMARK    4  A    between atoms: N_12  and  C_15 
REMARK    5  A    between atoms: Se_13  and  C_14 
REMARK    6  A    between atoms: C_14  and  C_15 
REMARK    7  A    between atoms: C_15  and  C_16 
REMARK       I    between atoms: C_16  and  N_17 
REMARK    8  A    between atoms: N_17  and  C_19 
REMARK    9  A    between atoms: C_18  and  C_19 
ROOT
HETATM    1  H           1     -22.561  -6.060  -7.750  0.00  0.00     0.163 HD
HETATM    2  O           1     -21.844  -3.007  -7.813  0.00  0.00    -0.271 OA
HETATM    3  C           1     -22.366  -4.040  -8.157  0.00  0.00     0.249 C 
HETATM    4  N           1     -22.124  -5.195  -7.462  0.00  0.00    -0.345 N 
ENDROOT
BRANCH   4   5
HETATM    5  C           1     -21.239  -5.177  -6.314  0.00  0.00     0.186 C 
BRANCH   5   6
HETATM    6  C           1     -19.849  -5.573  -6.744  0.00  0.00     0.196 C 
HETATM    7  O           1     -18.950  -4.708  -6.825  0.00  0.00    -0.646 OA
HETATM    8  O           1     -19.595  -6.766  -7.019  0.00  0.00    -0.646 OA
ENDBRANCH   5   6
BRANCH   5   9
HETATM    9  C           1     -21.747  -6.161  -5.267  0.00  0.00     0.045 C 
BRANCH   9  10
HETATM   10  C           1     -20.941  -6.001  -3.985  0.00  0.00     0.105 C 
BRANCH  10  11
HETATM   11  C           1     -21.677  -6.657  -2.842  0.00  0.00     0.215 C 
HETATM   12  O           1     -21.613  -7.853  -2.689  0.00  0.00    -0.274 OA
HETATM   13  N           1     -22.417  -5.895  -1.979  0.00  0.00    -0.370 N 
HETATM   14  H           1     -22.471  -4.892  -2.107  0.00  0.00     0.159 HD
HETATM   15  H           1     -22.911  -6.334  -1.212  0.00  0.00     0.159 HD
ENDBRANCH  10  11
ENDBRANCH   9  10
ENDBRANCH   5   9
ENDBRANCH   4   5
BRANCH   3  16
HETATM   16  C           1     -23.287  -4.058  -9.353  0.00  0.00     0.274 C 
BRANCH  16  17
HETATM   17  N           1     -24.541  -3.302  -9.029  0.00  0.00    -0.067 N 
HETATM   18  H           1     -24.913  -3.622  -8.107  0.00  0.00     0.275 HD
HETATM   19  H           1     -24.329  -2.280  -8.985  0.00  0.00     0.275 HD
HETATM   20  H           1     -25.254  -3.478  -9.773  0.00  0.00     0.275 HD
ENDBRANCH  16  17
BRANCH  16  21
HETATM   21  C           1     -22.592  -3.404 -10.539  0.00  0.00     0.045 C 
BRANCH  21  22
HETATM   22 Se           1     -20.896  -4.305 -10.876  0.00  0.00     0.000 Se
HETATM   23  H           1     -20.869  -3.967 -12.309  0.00  0.00     0.000 HD
ENDBRANCH  21  22
ENDBRANCH  16  21
ENDBRANCH   3  16
TORSDOF 9
ENDMDL
MODEL 9
REMARK VINA RESULT:      -4.5     15.756     16.723
REMARK  9 active torsions:
REMARK  status: ('A' for Active; 'I' for Inactive)
REMARK    1  A    between atoms: C_1  and  C_19 
REMARK       I    between atoms: C_5  and  N_6 
REMARK    2  A    between atoms: C_5  and  C_7 
REMARK    3  A    between atoms: C_7  and  C_18 
REMARK    4  A    between atoms: N_12  and  C_15 
REMARK    5  A    between atoms: Se_13  and  C_14 
REMARK    6  A    between atoms: C_14  and  C_15 
REMARK    7  A    between atoms: C_15  and  C_16 
REMARK       I    between atoms: C_16  and  N_17 
REMARK    8  A    between atoms: N_17  and  C_19 
REMARK    9  A    between atoms: C_18  and  C_19 
ROOT
HETATM    1  H           1     -19.105  -8.264  -5.307  0.00  0.00     0.163 HD
HETATM    2  O           1     -20.824 -10.837  -4.790  0.00  0.00    -0.271 OA
HETATM    3  C           1     -19.881 -10.177  -5.157  0.00  0.00     0.249 C 
HETATM    4  N           1     -19.895  -8.817  -5.000  0.00  0.00    -0.345 N 
ENDROOT
BRANCH   4   5
HETATM    5  C           1     -21.042  -8.169  -4.394  0.00  0.00     0.186 C 
BRANCH   5   6
HETATM    6  C           1     -21.551  -7.087  -5.313  0.00  0.00     0.196 C 
HETATM    7  O           1     -21.163  -7.042  -6.500  0.00  0.00    -0.646 OA
HETATM    8  O           1     -22.362  -6.236  -4.888  0.00  0.00    -0.646 OA
ENDBRANCH   5   6
BRANCH   5   9
HETATM    9  C           1     -20.632  -7.554  -3.062  0.00  0.00     0.045 C 
BRANCH   9  10
HETATM   10  C           1     -21.528  -8.094  -1.955  0.00  0.00     0.105 C 
BRANCH  10  11
HETATM   11  C           1     -22.300  -6.956  -1.332  0.00  0.00     0.215 C 
HETATM   12  O           1     -22.918  -7.133  -0.309  0.00  0.00    -0.274 OA
HETATM   13  N           1     -22.301  -5.724  -1.928  0.00  0.00    -0.370 N 
HETATM   14  H           1     -21.784  -5.575  -2.785  0.00  0.00     0.159 HD
HETATM   15  H           1     -22.819  -4.960  -1.511  0.00  0.00     0.159 HD
ENDBRANCH  10  11
ENDBRANCH   9  10
ENDBRANCH   5   9
ENDBRANCH   4   5
BRANCH   3  16
HETATM   16  C           1     -18.688 -10.852  -5.788  0.00  0.00     0.274 C 
BRANCH  16  17
HETATM   17  N           1     -19.069 -11.382  -7.138  0.00  0.00    -0.067 N 
HETATM   18  H           1     -18.656 -12.333  -7.268  0.00  0.00     0.275 HD
HETATM   19  H           1     -20.110 -11.442  -7.207  0.00  0.00     0.275 HD
HETATM   20  H           1     -18.707 -10.740  -7.878  0.00  0.00     0.275 HD
ENDBRANCH  16  17
BRANCH  16  21
HETATM   21  C           1     -17.556  -9.845  -5.939  0.00  0.00     0.045 C 
BRANCH  21  22
HETATM   22 Se           1     -16.299 -10.053  -4.464  0.00  0.00     0.000 Se
HETATM   23  H           1     -16.328 -11.525  -4.495  0.00  0.00     0.000 HD
ENDBRANCH  21  22
ENDBRANCH  16  21
ENDBRANCH   3  16
TORSDOF 9
ENDMDL
