MODEL 1
REMARK VINA RESULT:      -5.3      0.000      0.000
REMARK  6 active torsions:
REMARK  status: ('A' for Active; 'I' for Inactive)
REMARK    1  A    between atoms: N_2  and  C_9 
REMARK       I    between atoms: N_2  and  C_15 
REMARK    2  A    between atoms: C_9  and  C_10 
REMARK    3  A    between atoms: C_13  and  C_14 
REMARK    4  A    between atoms: C_13  and  S_16 
REMARK    5  A    between atoms: C_14  and  C_15 
REMARK    6  A    between atoms: C_14  and  N_17 
ROOT
HETATM    1  O           1     -36.358  -1.482 -12.253  0.00  0.00    -0.271 OA
HETATM    2  N           1     -34.825  -1.299 -13.866  0.00  0.00    -0.345 N 
HETATM    3  H           1     -33.903  -1.542 -14.204  0.00  0.00     0.163 HD
HETATM    4  C           1     -35.258  -1.774 -12.657  0.00  0.00     0.249 C 
ENDROOT
BRANCH   4   5
HETATM    5  C           1     -34.360  -2.661 -11.830  0.00  0.00     0.283 C 
BRANCH   5   6
HETATM    6  C           1     -35.193  -3.753 -11.172  0.00  0.00     0.113 C 
BRANCH   6   7
HETATM    7  S           1     -34.119  -5.145 -10.720  0.00  0.00    -0.180 SA
HETATM    8  H           1     -34.341  -5.069  -9.395  0.00  0.00     0.101 HD
ENDBRANCH   6   7
ENDBRANCH   5   6
BRANCH   5   9
HETATM    9  N           1     -33.686  -1.840 -10.771  0.00  0.00    -0.066 N 
HETATM   10  H           1     -33.155  -1.060 -11.220  0.00  0.00     0.275 HD
HETATM   11  H           1     -34.407  -1.444 -10.127  0.00  0.00     0.275 HD
HETATM   12  H           1     -33.028  -2.444 -10.229  0.00  0.00     0.275 HD
ENDBRANCH   5   9
ENDBRANCH   4   5
BRANCH   2  13
HETATM   13  C           1     -35.687  -0.446 -14.661  0.00  0.00     0.181 C 
HETATM   14  C           1     -35.185   0.991 -14.590  0.00  0.00     0.043 C 
BRANCH  13  15
HETATM   15  C           1     -35.672  -0.914 -16.096  0.00  0.00     0.196 C 
HETATM   16  O           1     -34.720  -1.605 -16.517  0.00  0.00    -0.646 OA
HETATM   17  O           1     -36.612  -0.611 -16.863  0.00  0.00    -0.646 OA
ENDBRANCH  13  15
ENDBRANCH   2  13
TORSDOF 6
ENDMDL
MODEL 2
REMARK VINA RESULT:      -5.1      2.434      3.180
REMARK  6 active torsions:
REMARK  status: ('A' for Active; 'I' for Inactive)
REMARK    1  A    between atoms: N_2  and  C_9 
REMARK       I    between atoms: N_2  and  C_15 
REMARK    2  A    between atoms: C_9  and  C_10 
REMARK    3  A    between atoms: C_13  and  C_14 
REMARK    4  A    between atoms: C_13  and  S_16 
REMARK    5  A    between atoms: C_14  and  C_15 
REMARK    6  A    between atoms: C_14  and  N_17 
ROOT
HETATM    1  O           1     -33.841  -2.202 -11.174  0.00  0.00    -0.271 OA
HETATM    2  N           1     -34.901  -1.667 -13.065  0.00  0.00    -0.345 N 
HETATM    3  H           1     -35.277  -1.973 -13.953  0.00  0.00     0.163 HD
HETATM    4  C           1     -34.291  -2.568 -12.233  0.00  0.00     0.249 C 
ENDROOT
BRANCH   4   5
HETATM    5  C           1     -34.181  -4.017 -12.641  0.00  0.00     0.283 C 
BRANCH   5   6
HETATM    6  C           1     -33.226  -4.738 -11.699  0.00  0.00     0.113 C 
BRANCH   6   7
HETATM    7  S           1     -34.126  -6.028 -10.794  0.00  0.00    -0.180 SA
HETATM    8  H           1     -33.460  -5.877  -9.634  0.00  0.00     0.101 HD
ENDBRANCH   6   7
ENDBRANCH   5   6
BRANCH   5   9
HETATM    9  N           1     -33.659  -4.102 -14.044  0.00  0.00    -0.066 N 
HETATM   10  H           1     -33.088  -4.971 -14.151  0.00  0.00     0.275 HD
HETATM   11  H           1     -34.461  -4.129 -14.712  0.00  0.00     0.275 HD
HETATM   12  H           1     -33.064  -3.267 -14.245  0.00  0.00     0.275 HD
ENDBRANCH   5   9
ENDBRANCH   4   5
BRANCH   2  13
HETATM   13  C           1     -35.006  -0.275 -12.674  0.00  0.00     0.181 C 
HETATM   14  C           1     -34.972   0.605 -13.916  0.00  0.00     0.043 C 
BRANCH  13  15
HETATM   15  C           1     -36.306  -0.057 -11.938  0.00  0.00     0.196 C 
HETATM   16  O           1     -37.388  -0.383 -12.472  0.00  0.00    -0.646 OA
HETATM   17  O           1     -36.301   0.448 -10.795  0.00  0.00    -0.646 OA
ENDBRANCH  13  15
ENDBRANCH   2  13
TORSDOF 6
ENDMDL
MODEL 3
REMARK VINA RESULT:      -5.1     13.344     14.344
REMARK  6 active torsions:
REMARK  status: ('A' for Active; 'I' for Inactive)
REMARK    1  A    between atoms: N_2  and  C_9 
REMARK       I    between atoms: N_2  and  C_15 
REMARK    2  A    between atoms: C_9  and  C_10 
REMARK    3  A    between atoms: C_13  and  C_14 
REMARK    4  A    between atoms: C_13  and  S_16 
REMARK    5  A    between atoms: C_14  and  C_15 
REMARK    6  A    between atoms: C_14  and  N_17 
ROOT
HETATM    1  O           1     -21.591  -3.381  -7.283  0.00  0.00    -0.271 OA
HETATM    2  N           1     -22.176  -4.748  -8.948  0.00  0.00    -0.345 N 
HETATM    3  H           1     -22.235  -5.696  -9.299  0.00  0.00     0.163 HD
HETATM    4  C           1     -21.663  -4.511  -7.701  0.00  0.00     0.249 C 
ENDROOT
BRANCH   4   5
HETATM    5  C           1     -21.186  -5.663  -6.850  0.00  0.00     0.283 C 
BRANCH   5   6
HETATM    6  C           1     -20.872  -5.161  -5.447  0.00  0.00     0.113 C 
BRANCH   6   7
HETATM    7  S           1     -21.396  -6.400  -4.229  0.00  0.00    -0.180 SA
HETATM    8  H           1     -20.878  -5.773  -3.158  0.00  0.00     0.101 HD
ENDBRANCH   6   7
ENDBRANCH   5   6
BRANCH   5   9
HETATM    9  N           1     -19.949  -6.254  -7.458  0.00  0.00    -0.066 N 
HETATM   10  H           1     -19.395  -6.741  -6.718  0.00  0.00     0.275 HD
HETATM   11  H           1     -20.220  -6.941  -8.198  0.00  0.00     0.275 HD
HETATM   12  H           1     -19.372  -5.493  -7.883  0.00  0.00     0.275 HD
ENDBRANCH   5   9
ENDBRANCH   4   5
BRANCH   2  13
HETATM   13  C           1     -22.634  -3.642  -9.766  0.00  0.00     0.181 C 
HETATM   14  C           1     -21.776  -3.550 -11.022  0.00  0.00     0.043 C 
BRANCH  13  15
HETATM   15  C           1     -24.074  -3.868 -10.156  0.00  0.00     0.196 C 
HETATM   16  O           1     -24.622  -4.965  -9.914  0.00  0.00    -0.646 OA
HETATM   17  O           1     -24.719  -2.958 -10.721  0.00  0.00    -0.646 OA
ENDBRANCH  13  15
ENDBRANCH   2  13
TORSDOF 6
ENDMDL
MODEL 4
REMARK VINA RESULT:      -5.1     10.723     11.420
REMARK  6 active torsions:
REMARK  status: ('A' for Active; 'I' for Inactive)
REMARK    1  A    between atoms: N_2  and  C_9 
REMARK       I    between atoms: N_2  and  C_15 
REMARK    2  A    between atoms: C_9  and  C_10 
REMARK    3  A    between atoms: C_13  and  C_14 
REMARK    4  A    between atoms: C_13  and  S_16 
REMARK    5  A    between atoms: C_14  and  C_15 
REMARK    6  A    between atoms: C_14  and  N_17 
ROOT
HETATM    1  O           1     -26.169  -6.037 -17.402  0.00  0.00    -0.271 OA
HETATM    2  N           1     -27.690  -6.582 -18.943  0.00  0.00    -0.345 N 
HETATM    3  H           1     -27.881  -6.906 -19.883  0.00  0.00     0.163 HD
HETATM    4  C           1     -26.397  -6.424 -18.523  0.00  0.00     0.249 C 
ENDROOT
BRANCH   4   5
HETATM    5  C           1     -25.256  -6.733 -19.461  0.00  0.00     0.283 C 
BRANCH   5   6
HETATM    6  C           1     -25.779  -7.524 -20.653  0.00  0.00     0.113 C 
BRANCH   6   7
HETATM    7  S           1     -24.413  -7.876 -21.794  0.00  0.00    -0.180 SA
HETATM    8  H           1     -24.276  -6.615 -22.244  0.00  0.00     0.101 HD
ENDBRANCH   6   7
ENDBRANCH   5   6
BRANCH   5   9
HETATM    9  N           1     -24.221  -7.543 -18.739  0.00  0.00    -0.066 N 
HETATM   10  H           1     -24.074  -7.148 -17.782  0.00  0.00     0.275 HD
HETATM   11  H           1     -24.548  -8.533 -18.660  0.00  0.00     0.275 HD
HETATM   12  H           1     -23.322  -7.514 -19.270  0.00  0.00     0.275 HD
ENDBRANCH   5   9
ENDBRANCH   4   5
BRANCH   2  13
HETATM   13  C           1     -28.787  -6.285 -18.042  0.00  0.00     0.181 C 
HETATM   14  C           1     -29.362  -4.915 -18.377  0.00  0.00     0.043 C 
BRANCH  13  15
HETATM   15  C           1     -29.862  -7.334 -18.195  0.00  0.00     0.196 C 
HETATM   16  O           1     -30.942  -7.217 -17.577  0.00  0.00    -0.646 OA
HETATM   17  O           1     -29.671  -8.320 -18.940  0.00  0.00    -0.646 OA
ENDBRANCH  13  15
ENDBRANCH   2  13
TORSDOF 6
ENDMDL
MODEL 5
REMARK VINA RESULT:      -4.7     14.239     15.709
REMARK  6 active torsions:
REMARK  status: ('A' for Active; 'I' for Inactive)
REMARK    1  A    between atoms: N_2  and  C_9 
REMARK       I    between atoms: N_2  and  C_15 
REMARK    2  A    between atoms: C_9  and  C_10 
REMARK    3  A    between atoms: C_13  and  C_14 
REMARK    4  A    between atoms: C_13  and  S_16 
REMARK    5  A    between atoms: C_14  and  C_15 
REMARK    6  A    between atoms: C_14  and  N_17 
ROOT
HETATM    1  O           1     -19.882  -4.881 -10.209  0.00  0.00    -0.271 OA
HETATM    2  N           1     -21.251  -4.746  -8.450  0.00  0.00    -0.345 N 
HETATM    3  H           1     -22.120  -4.400  -8.064  0.00  0.00     0.163 HD
HETATM    4  C           1     -20.919  -4.467  -9.749  0.00  0.00     0.249 C 
ENDROOT
BRANCH   4   5
HETATM    5  C           1     -21.849  -3.643 -10.605  0.00  0.00     0.283 C 
BRANCH   5   6
HETATM    6  C           1     -23.164  -4.388 -10.788  0.00  0.00     0.113 C 
BRANCH   6   7
HETATM    7  S           1     -24.484  -3.518  -9.898  0.00  0.00    -0.180 SA
HETATM    8  H           1     -25.269  -4.596  -9.719  0.00  0.00     0.101 HD
ENDBRANCH   6   7
ENDBRANCH   5   6
BRANCH   5   9
HETATM    9  N           1     -21.217  -3.406 -11.944  0.00  0.00    -0.066 N 
HETATM   10  H           1     -21.412  -4.220 -12.570  0.00  0.00     0.275 HD
HETATM   11  H           1     -21.616  -2.539 -12.368  0.00  0.00     0.275 HD
HETATM   12  H           1     -20.185  -3.295 -11.827  0.00  0.00     0.275 HD
ENDBRANCH   5   9
ENDBRANCH   4   5
BRANCH   2  13
HETATM   13  C           1     -20.357  -5.539  -7.627  0.00  0.00     0.181 C 
HETATM   14  C           1     -19.333  -4.625  -6.967  0.00  0.00     0.043 C 
BRANCH  13  15
HETATM   15  C           1     -21.155  -6.253  -6.564  0.00  0.00     0.196 C 
HETATM   16  O           1     -21.014  -7.484  -6.399  0.00  0.00    -0.646 OA
HETATM   17  O           1     -21.956  -5.614  -5.848  0.00  0.00    -0.646 OA
ENDBRANCH  13  15
ENDBRANCH   2  13
TORSDOF 6
ENDMDL
MODEL 6
REMARK VINA RESULT:      -4.7      1.935      2.246
REMARK  6 active torsions:
REMARK  status: ('A' for Active; 'I' for Inactive)
REMARK    1  A    between atoms: N_2  and  C_9 
REMARK       I    between atoms: N_2  and  C_15 
REMARK    2  A    between atoms: C_9  and  C_10 
REMARK    3  A    between atoms: C_13  and  C_14 
REMARK    4  A    between atoms: C_13  and  S_16 
REMARK    5  A    between atoms: C_14  and  C_15 
REMARK    6  A    between atoms: C_14  and  N_17 
ROOT
HETATM    1  O           1     -34.493  -3.183 -13.536  0.00  0.00    -0.271 OA
HETATM    2  N           1     -34.879  -1.373 -12.286  0.00  0.00    -0.345 N 
HETATM    3  H           1     -34.694  -0.867 -11.430  0.00  0.00     0.163 HD
HETATM    4  C           1     -34.272  -2.579 -12.514  0.00  0.00     0.249 C 
ENDROOT
BRANCH   4   5
HETATM    5  C           1     -33.326  -3.152 -11.487  0.00  0.00     0.283 C 
BRANCH   5   6
HETATM    6  C           1     -32.943  -4.571 -11.887  0.00  0.00     0.113 C 
BRANCH   6   7
HETATM    7  S           1     -33.955  -5.757 -10.958  0.00  0.00    -0.180 SA
HETATM    8  H           1     -34.538  -4.847 -10.157  0.00  0.00     0.101 HD
ENDBRANCH   6   7
ENDBRANCH   5   6
BRANCH   5   9
HETATM    9  N           1     -33.999  -3.175 -10.147  0.00  0.00    -0.066 N 
HETATM   10  H           1     -34.377  -2.225  -9.930  0.00  0.00     0.275 HD
HETATM   11  H           1     -34.783  -3.865 -10.164  0.00  0.00     0.275 HD
HETATM   12  H           1     -33.307  -3.451  -9.415  0.00  0.00     0.275 HD
ENDBRANCH   5   9
ENDBRANCH   4   5
BRANCH   2  13
HETATM   13  C           1     -35.788  -0.821 -13.272  0.00  0.00     0.181 C 
HETATM   14  C           1     -36.961  -0.156 -12.565  0.00  0.00     0.043 C 
BRANCH  13  15
HETATM   15  C           1     -35.060   0.201 -14.111  0.00  0.00     0.196 C 
HETATM   16  O           1     -34.810  -0.040 -15.311  0.00  0.00    -0.646 OA
HETATM   17  O           1     -34.706   1.288 -13.605  0.00  0.00    -0.646 OA
ENDBRANCH  13  15
ENDBRANCH   2  13
TORSDOF 6
ENDMDL
MODEL 7
REMARK VINA RESULT:      -4.4     25.195     26.041
REMARK  6 active torsions:
REMARK  status: ('A' for Active; 'I' for Inactive)
REMARK    1  A    between atoms: N_2  and  C_9 
REMARK       I    between atoms: N_2  and  C_15 
REMARK    2  A    between atoms: C_9  and  C_10 
REMARK    3  A    between atoms: C_13  and  C_14 
REMARK    4  A    between atoms: C_13  and  S_16 
REMARK    5  A    between atoms: C_14  and  C_15 
REMARK    6  A    between atoms: C_14  and  N_17 
ROOT
HETATM    1  O           1     -11.914   5.313 -19.102  0.00  0.00    -0.271 OA
HETATM    2  N           1     -11.561   6.973 -20.554  0.00  0.00    -0.345 N 
HETATM    3  H           1     -11.895   7.502 -21.349  0.00  0.00     0.163 HD
HETATM    4  C           1     -12.313   5.945 -20.051  0.00  0.00     0.249 C 
ENDROOT
BRANCH   4   5
HETATM    5  C           1     -13.640   5.602 -20.683  0.00  0.00     0.283 C 
BRANCH   5   6
HETATM    6  C           1     -13.964   4.138 -20.420  0.00  0.00     0.113 C 
BRANCH   6   7
HETATM    7  S           1     -13.332   3.122 -21.785  0.00  0.00    -0.180 SA
HETATM    8  H           1     -12.178   3.796 -21.940  0.00  0.00     0.101 HD
ENDBRANCH   6   7
ENDBRANCH   5   6
BRANCH   5   9
HETATM    9  N           1     -13.564   5.840 -22.162  0.00  0.00    -0.066 N 
HETATM   10  H           1     -12.581   6.075 -22.427  0.00  0.00     0.275 HD
HETATM   11  H           1     -13.864   4.976 -22.668  0.00  0.00     0.275 HD
HETATM   12  H           1     -14.194   6.632 -22.420  0.00  0.00     0.275 HD
ENDBRANCH   5   9
ENDBRANCH   4   5
BRANCH   2  13
HETATM   13  C           1     -10.285   7.302 -19.947  0.00  0.00     0.181 C 
HETATM   14  C           1      -9.169   7.072 -20.957  0.00  0.00     0.043 C 
BRANCH  13  15
HETATM   15  C           1     -10.290   8.751 -19.523  0.00  0.00     0.196 C 
HETATM   16  O           1     -10.286   9.047 -18.309  0.00  0.00    -0.646 OA
HETATM   17  O           1     -10.299   9.655 -20.387  0.00  0.00    -0.646 OA
ENDBRANCH  13  15
ENDBRANCH   2  13
TORSDOF 6
ENDMDL
MODEL 8
REMARK VINA RESULT:      -4.4      1.635      2.258
REMARK  6 active torsions:
REMARK  status: ('A' for Active; 'I' for Inactive)
REMARK    1  A    between atoms: N_2  and  C_9 
REMARK       I    between atoms: N_2  and  C_15 
REMARK    2  A    between atoms: C_9  and  C_10 
REMARK    3  A    between atoms: C_13  and  C_14 
REMARK    4  A    between atoms: C_13  and  S_16 
REMARK    5  A    between atoms: C_14  and  C_15 
REMARK    6  A    between atoms: C_14  and  N_17 
ROOT
HETATM    1  O           1     -34.948  -2.188 -13.534  0.00  0.00    -0.271 OA
HETATM    2  N           1     -35.079  -0.494 -12.084  0.00  0.00    -0.345 N 
HETATM    3  H           1     -34.850  -0.130 -11.169  0.00  0.00     0.163 HD
HETATM    4  C           1     -34.674  -1.752 -12.442  0.00  0.00     0.249 C 
ENDROOT
BRANCH   4   5
HETATM    5  C           1     -33.886  -2.595 -11.469  0.00  0.00     0.283 C 
BRANCH   5   6
HETATM    6  C           1     -34.736  -3.776 -11.016  0.00  0.00     0.113 C 
BRANCH   6   7
HETATM    7  S           1     -33.746  -5.295 -11.081  0.00  0.00    -0.180 SA
HETATM    8  H           1     -33.335  -5.142 -12.353  0.00  0.00     0.101 HD
ENDBRANCH   6   7
ENDBRANCH   5   6
BRANCH   5   9
HETATM    9  N           1     -33.511  -1.764 -10.278  0.00  0.00    -0.066 N 
HETATM   10  H           1     -33.633  -0.752 -10.508  0.00  0.00     0.275 HD
HETATM   11  H           1     -34.126  -2.014  -9.472  0.00  0.00     0.275 HD
HETATM   12  H           1     -32.514  -1.947 -10.027  0.00  0.00     0.275 HD
ENDBRANCH   5   9
ENDBRANCH   4   5
BRANCH   2  13
HETATM   13  C           1     -35.837   0.316 -13.019  0.00  0.00     0.181 C 
HETATM   14  C           1     -35.103   0.373 -14.352  0.00  0.00     0.043 C 
BRANCH  13  15
HETATM   15  C           1     -37.202  -0.294 -13.221  0.00  0.00     0.196 C 
HETATM   16  O           1     -37.569  -0.639 -14.365  0.00  0.00    -0.646 OA
HETATM   17  O           1     -37.966  -0.455 -12.245  0.00  0.00    -0.646 OA
ENDBRANCH  13  15
ENDBRANCH   2  13
TORSDOF 6
ENDMDL
MODEL 9
REMARK VINA RESULT:      -4.3     10.310     11.159
REMARK  6 active torsions:
REMARK  status: ('A' for Active; 'I' for Inactive)
REMARK    1  A    between atoms: N_2  and  C_9 
REMARK       I    between atoms: N_2  and  C_15 
REMARK    2  A    between atoms: C_9  and  C_10 
REMARK    3  A    between atoms: C_13  and  C_14 
REMARK    4  A    between atoms: C_13  and  S_16 
REMARK    5  A    between atoms: C_14  and  C_15 
REMARK    6  A    between atoms: C_14  and  N_17 
ROOT
HETATM    1  O           1     -26.960  -4.676 -16.573  0.00  0.00    -0.271 OA
HETATM    2  N           1     -26.674  -6.622 -17.630  0.00  0.00    -0.345 N 
HETATM    3  H           1     -27.097  -7.434 -18.061  0.00  0.00     0.163 HD
HETATM    4  C           1     -27.465  -5.645 -17.088  0.00  0.00     0.249 C 
ENDROOT
BRANCH   4   5
HETATM    5  C           1     -28.967  -5.779 -17.133  0.00  0.00     0.283 C 
BRANCH   5   6
HETATM    6  C           1     -29.348  -7.252 -17.070  0.00  0.00     0.113 C 
BRANCH   6   7
HETATM    7  S           1     -30.226  -7.717 -18.588  0.00  0.00    -0.180 SA
HETATM    8  H           1     -31.130  -6.721 -18.539  0.00  0.00     0.101 HD
ENDBRANCH   6   7
ENDBRANCH   5   6
BRANCH   5   9
HETATM    9  N           1     -29.483  -5.184 -18.410  0.00  0.00    -0.066 N 
HETATM   10  H           1     -29.138  -5.745 -19.221  0.00  0.00     0.275 HD
HETATM   11  H           1     -30.528  -5.193 -18.400  0.00  0.00     0.275 HD
HETATM   12  H           1     -29.143  -4.199 -18.497  0.00  0.00     0.275 HD
ENDBRANCH   5   9
ENDBRANCH   4   5
BRANCH   2  13
HETATM   13  C           1     -25.230  -6.494 -17.586  0.00  0.00     0.181 C 
HETATM   14  C           1     -24.677  -7.373 -16.473  0.00  0.00     0.043 C 
BRANCH  13  15
HETATM   15  C           1     -24.647  -6.929 -18.909  0.00  0.00     0.196 C 
HETATM   16  O           1     -25.383  -7.024 -19.915  0.00  0.00    -0.646 OA
HETATM   17  O           1     -23.429  -7.194 -18.998  0.00  0.00    -0.646 OA
ENDBRANCH  13  15
ENDBRANCH   2  13
TORSDOF 6
ENDMDL
