MODEL 1
REMARK VINA RESULT:      -6.0      0.000      0.000
REMARK  9 active torsions:
REMARK  status: ('A' for Active; 'I' for Inactive)
REMARK    1  A    between atoms: Se_2  and  C_14 
REMARK       I    between atoms: C_3  and  N_4 
REMARK    2  A    between atoms: C_3  and  C_5 
REMARK    3  A    between atoms: C_5  and  C_6 
REMARK    4  A    between atoms: C_6  and  C_7 
REMARK    5  A    between atoms: C_6  and  N_10 
REMARK       I    between atoms: N_10  and  C_11 
REMARK    6  A    between atoms: C_11  and  C_12 
REMARK    7  A    between atoms: C_12  and  C_13 
REMARK    8  A    between atoms: C_12  and  N_19 
REMARK    9  A    between atoms: C_13  and  C_14 
ROOT
HETATM    1  N           1     -27.601  -6.500 -17.068  0.00  0.00    -0.344 N 
HETATM    2  C           1     -26.453  -6.901 -16.438  0.00  0.00     0.249 C 
HETATM    3  H           1     -27.554  -6.091 -17.992  0.00  0.00     0.163 HD
HETATM    4  O           1     -26.509  -7.389 -15.335  0.00  0.00    -0.271 OA
ENDROOT
BRANCH   1   5
HETATM    5  C           1     -28.883  -6.661 -16.410  0.00  0.00     0.194 C 
BRANCH   5   6
HETATM    6  C           1     -29.392  -5.301 -15.952  0.00  0.00     0.138 C 
BRANCH   6   7
HETATM    7  C           1     -28.899  -4.233 -16.897  0.00  0.00     0.217 C 
HETATM    8  O           1     -27.839  -3.690 -16.695  0.00  0.00    -0.274 OA
HETATM    9  N           1     -29.652  -3.880 -17.984  0.00  0.00    -0.370 N 
HETATM   10  H           1     -30.540  -4.335 -18.154  0.00  0.00     0.159 HD
HETATM   11  H           1     -29.322  -3.164 -18.618  0.00  0.00     0.159 HD
ENDBRANCH   6   7
ENDBRANCH   5   6
BRANCH   5  12
HETATM   12  C           1     -29.870  -7.268 -17.377  0.00  0.00     0.197 C 
HETATM   13  O           1     -31.054  -6.866 -17.396  0.00  0.00    -0.646 OA
HETATM   14  O           1     -29.504  -8.174 -18.157  0.00  0.00    -0.646 OA
ENDBRANCH   5  12
ENDBRANCH   1   5
BRANCH   2  15
HETATM   15  C           1     -25.119  -6.733 -17.123  0.00  0.00     0.274 C 
BRANCH  15  16
HETATM   16  C           1     -25.314  -6.773 -18.633  0.00  0.00     0.042 C 
BRANCH  16  17
HETATM   17  C           1     -24.058  -7.327 -19.294  0.00  0.00     0.003 C 
BRANCH  17  18
HETATM   18 Se           1     -24.483  -7.927 -21.098  0.00  0.00     0.000 Se
HETATM   19  C           1     -22.671  -8.515 -21.506  0.00  0.00     0.000 C 
ENDBRANCH  17  18
ENDBRANCH  16  17
ENDBRANCH  15  16
BRANCH  15  20
HETATM   20  N           1     -24.202  -7.845 -16.709  0.00  0.00    -0.067 N 
HETATM   21  H           1     -24.121  -7.861 -15.667  0.00  0.00     0.275 HD
HETATM   22  H           1     -24.588  -8.757 -17.042  0.00  0.00     0.275 HD
HETATM   23  H           1     -23.257  -7.692 -17.128  0.00  0.00     0.275 HD
ENDBRANCH  15  20
ENDBRANCH   2  15
TORSDOF 9
ENDMDL
MODEL 2
REMARK VINA RESULT:      -5.9      1.937      3.306
REMARK  9 active torsions:
REMARK  status: ('A' for Active; 'I' for Inactive)
REMARK    1  A    between atoms: Se_2  and  C_14 
REMARK       I    between atoms: C_3  and  N_4 
REMARK    2  A    between atoms: C_3  and  C_5 
REMARK    3  A    between atoms: C_5  and  C_6 
REMARK    4  A    between atoms: C_6  and  C_7 
REMARK    5  A    between atoms: C_6  and  N_10 
REMARK       I    between atoms: N_10  and  C_11 
REMARK    6  A    between atoms: C_11  and  C_12 
REMARK    7  A    between atoms: C_12  and  C_13 
REMARK    8  A    between atoms: C_12  and  N_19 
REMARK    9  A    between atoms: C_13  and  C_14 
ROOT
HETATM    1  N           1     -26.824  -6.560 -18.267  0.00  0.00    -0.344 N 
HETATM    2  C           1     -26.367  -6.515 -19.557  0.00  0.00     0.249 C 
HETATM    3  H           1     -26.208  -6.860 -17.522  0.00  0.00     0.163 HD
HETATM    4  O           1     -27.102  -6.158 -20.446  0.00  0.00    -0.271 OA
ENDROOT
BRANCH   1   5
HETATM    5  C           1     -28.190  -6.179 -17.969  0.00  0.00     0.194 C 
BRANCH   5   6
HETATM    6  C           1     -28.907  -7.343 -17.298  0.00  0.00     0.138 C 
BRANCH   6   7
HETATM    7  C           1     -30.300  -7.470 -17.862  0.00  0.00     0.217 C 
HETATM    8  O           1     -30.500  -8.172 -18.825  0.00  0.00    -0.274 OA
HETATM    9  N           1     -31.339  -6.791 -17.283  0.00  0.00    -0.370 N 
HETATM   10  H           1     -31.171  -6.203 -16.476  0.00  0.00     0.159 HD
HETATM   11  H           1     -32.273  -6.876 -17.662  0.00  0.00     0.159 HD
ENDBRANCH   6   7
ENDBRANCH   5   6
BRANCH   5  12
HETATM   12  C           1     -28.188  -4.988 -17.042  0.00  0.00     0.197 C 
HETATM   13  O           1     -27.104  -4.486 -16.672  0.00  0.00    -0.646 OA
HETATM   14  O           1     -29.270  -4.503 -16.645  0.00  0.00    -0.646 OA
ENDBRANCH   5  12
ENDBRANCH   1   5
BRANCH   2  15
HETATM   15  C           1     -24.944  -6.912 -19.867  0.00  0.00     0.274 C 
BRANCH  15  16
HETATM   16  C           1     -24.936  -7.926 -21.003  0.00  0.00     0.042 C 
BRANCH  16  17
HETATM   17  C           1     -24.197  -7.343 -22.201  0.00  0.00     0.003 C 
BRANCH  17  18
HETATM   18 Se           1     -22.945  -8.663 -22.899  0.00  0.00     0.000 Se
HETATM   19  C           1     -21.839  -8.702 -21.295  0.00  0.00     0.000 C 
ENDBRANCH  17  18
ENDBRANCH  16  17
ENDBRANCH  15  16
BRANCH  15  20
HETATM   20  N           1     -24.319  -7.523 -18.648  0.00  0.00    -0.067 N 
HETATM   21  H           1     -24.288  -6.816 -17.880  0.00  0.00     0.275 HD
HETATM   22  H           1     -24.886  -8.345 -18.341  0.00  0.00     0.275 HD
HETATM   23  H           1     -23.347  -7.834 -18.874  0.00  0.00     0.275 HD
ENDBRANCH  15  20
ENDBRANCH   2  15
TORSDOF 9
ENDMDL
MODEL 3
REMARK VINA RESULT:      -5.8     10.644     12.209
REMARK  9 active torsions:
REMARK  status: ('A' for Active; 'I' for Inactive)
REMARK    1  A    between atoms: Se_2  and  C_14 
REMARK       I    between atoms: C_3  and  N_4 
REMARK    2  A    between atoms: C_3  and  C_5 
REMARK    3  A    between atoms: C_5  and  C_6 
REMARK    4  A    between atoms: C_6  and  C_7 
REMARK    5  A    between atoms: C_6  and  N_10 
REMARK       I    between atoms: N_10  and  C_11 
REMARK    6  A    between atoms: C_11  and  C_12 
REMARK    7  A    between atoms: C_12  and  C_13 
REMARK    8  A    between atoms: C_12  and  N_19 
REMARK    9  A    between atoms: C_13  and  C_14 
ROOT
HETATM    1  N           1     -22.331  -4.991  -8.800  0.00  0.00    -0.344 N 
HETATM    2  C           1     -21.700  -4.745  -7.610  0.00  0.00     0.249 C 
HETATM    3  H           1     -22.480  -5.944  -9.106  0.00  0.00     0.163 HD
HETATM    4  O           1     -21.520  -3.608  -7.246  0.00  0.00    -0.271 OA
ENDROOT
BRANCH   1   5
HETATM    5  C           1     -22.785  -3.886  -9.622  0.00  0.00     0.194 C 
BRANCH   5   6
HETATM    6  C           1     -22.262  -4.062 -11.041  0.00  0.00     0.138 C 
BRANCH   6   7
HETATM    7  C           1     -20.765  -3.873 -11.054  0.00  0.00     0.217 C 
HETATM    8  O           1     -20.041  -4.766 -10.682  0.00  0.00    -0.274 OA
HETATM    9  N           1     -20.227  -2.692 -11.488  0.00  0.00    -0.370 N 
HETATM   10  H           1     -20.833  -1.944 -11.799  0.00  0.00     0.159 HD
HETATM   11  H           1     -19.223  -2.566 -11.496  0.00  0.00     0.159 HD
ENDBRANCH   6   7
ENDBRANCH   5   6
BRANCH   5  12
HETATM   12  C           1     -24.293  -3.861  -9.640  0.00  0.00     0.197 C 
HETATM   13  O           1     -24.902  -2.779  -9.486  0.00  0.00    -0.646 OA
HETATM   14  O           1     -24.934  -4.920  -9.810  0.00  0.00    -0.646 OA
ENDBRANCH   5  12
ENDBRANCH   1   5
BRANCH   2  15
HETATM   15  C           1     -21.227  -5.895  -6.755  0.00  0.00     0.274 C 
BRANCH  15  16
HETATM   16  C           1     -21.195  -5.463  -5.295  0.00  0.00     0.042 C 
BRANCH  16  17
HETATM   17  C           1     -21.034  -6.689  -4.405  0.00  0.00     0.003 C 
BRANCH  17  18
HETATM   18 Se           1     -21.739  -6.301  -2.630  0.00  0.00     0.000 Se
HETATM   19  C           1     -20.933  -7.863  -1.789  0.00  0.00     0.000 C 
ENDBRANCH  17  18
ENDBRANCH  16  17
ENDBRANCH  15  16
BRANCH  15  20
HETATM   20  N           1     -19.850  -6.305  -7.185  0.00  0.00    -0.067 N 
HETATM   21  H           1     -19.682  -7.300  -6.917  0.00  0.00     0.275 HD
HETATM   22  H           1     -19.765  -6.205  -8.221  0.00  0.00     0.275 HD
HETATM   23  H           1     -19.143  -5.694  -6.716  0.00  0.00     0.275 HD
ENDBRANCH  15  20
ENDBRANCH   2  15
TORSDOF 9
ENDMDL
MODEL 4
REMARK VINA RESULT:      -5.6      3.351      5.811
REMARK  9 active torsions:
REMARK  status: ('A' for Active; 'I' for Inactive)
REMARK    1  A    between atoms: Se_2  and  C_14 
REMARK       I    between atoms: C_3  and  N_4 
REMARK    2  A    between atoms: C_3  and  C_5 
REMARK    3  A    between atoms: C_5  and  C_6 
REMARK    4  A    between atoms: C_6  and  C_7 
REMARK    5  A    between atoms: C_6  and  N_10 
REMARK       I    between atoms: N_10  and  C_11 
REMARK    6  A    between atoms: C_11  and  C_12 
REMARK    7  A    between atoms: C_12  and  C_13 
REMARK    8  A    between atoms: C_12  and  N_19 
REMARK    9  A    between atoms: C_13  and  C_14 
ROOT
HETATM    1  N           1     -27.082  -7.101 -19.128  0.00  0.00    -0.344 N 
HETATM    2  C           1     -27.944  -6.237 -18.508  0.00  0.00     0.249 C 
HETATM    3  H           1     -26.718  -7.900 -18.625  0.00  0.00     0.163 HD
HETATM    4  O           1     -28.378  -5.283 -19.108  0.00  0.00    -0.271 OA
ENDROOT
BRANCH   1   5
HETATM    5  C           1     -26.690  -6.871 -20.505  0.00  0.00     0.194 C 
BRANCH   5   6
HETATM    6  C           1     -25.291  -6.271 -20.540  0.00  0.00     0.138 C 
BRANCH   6   7
HETATM    7  C           1     -24.446  -6.897 -19.458  0.00  0.00     0.217 C 
HETATM    8  O           1     -24.554  -6.522 -18.315  0.00  0.00    -0.274 OA
HETATM    9  N           1     -23.558  -7.891 -19.771  0.00  0.00    -0.370 N 
HETATM   10  H           1     -23.468  -8.205 -20.729  0.00  0.00     0.159 HD
HETATM   11  H           1     -22.991  -8.310 -19.046  0.00  0.00     0.159 HD
ENDBRANCH   6   7
ENDBRANCH   5   6
BRANCH   5  12
HETATM   12  C           1     -26.695  -8.181 -21.254  0.00  0.00     0.197 C 
HETATM   13  O           1     -25.650  -8.590 -21.805  0.00  0.00    -0.646 OA
HETATM   14  O           1     -27.745  -8.857 -21.324  0.00  0.00    -0.646 OA
ENDBRANCH   5  12
ENDBRANCH   1   5
BRANCH   2  15
HETATM   15  C           1     -28.352  -6.477 -17.075  0.00  0.00     0.274 C 
BRANCH  15  16
HETATM   16  C           1     -28.800  -5.163 -16.448  0.00  0.00     0.042 C 
BRANCH  16  17
HETATM   17  C           1     -30.090  -5.386 -15.668  0.00  0.00     0.003 C 
BRANCH  17  18
HETATM   18 Se           1     -31.613  -4.876 -16.772  0.00  0.00     0.000 Se
HETATM   19  C           1     -30.691  -3.402 -17.652  0.00  0.00     0.000 C 
ENDBRANCH  17  18
ENDBRANCH  16  17
ENDBRANCH  15  16
BRANCH  15  20
HETATM   20  N           1     -27.184  -7.023 -16.308  0.00  0.00    -0.067 N 
HETATM   21  H           1     -26.639  -6.234 -15.893  0.00  0.00     0.275 HD
HETATM   22  H           1     -27.530  -7.647 -15.545  0.00  0.00     0.275 HD
HETATM   23  H           1     -26.569  -7.569 -16.953  0.00  0.00     0.275 HD
ENDBRANCH  15  20
ENDBRANCH   2  15
TORSDOF 9
ENDMDL
MODEL 5
REMARK VINA RESULT:      -5.3     11.578     13.219
REMARK  9 active torsions:
REMARK  status: ('A' for Active; 'I' for Inactive)
REMARK    1  A    between atoms: Se_2  and  C_14 
REMARK       I    between atoms: C_3  and  N_4 
REMARK    2  A    between atoms: C_3  and  C_5 
REMARK    3  A    between atoms: C_5  and  C_6 
REMARK    4  A    between atoms: C_6  and  C_7 
REMARK    5  A    between atoms: C_6  and  N_10 
REMARK       I    between atoms: N_10  and  C_11 
REMARK    6  A    between atoms: C_11  and  C_12 
REMARK    7  A    between atoms: C_12  and  C_13 
REMARK    8  A    between atoms: C_12  and  N_19 
REMARK    9  A    between atoms: C_13  and  C_14 
ROOT
HETATM    1  N           1     -21.793  -4.830  -7.043  0.00  0.00    -0.344 N 
HETATM    2  C           1     -21.383  -5.974  -6.414  0.00  0.00     0.249 C 
HETATM    3  H           1     -22.096  -4.033  -6.496  0.00  0.00     0.163 HD
HETATM    4  O           1     -21.023  -6.925  -7.066  0.00  0.00    -0.271 OA
ENDROOT
BRANCH   1   5
HETATM    5  C           1     -21.795  -4.758  -8.491  0.00  0.00     0.194 C 
BRANCH   5   6
HETATM    6  C           1     -22.802  -3.711  -8.946  0.00  0.00     0.138 C 
BRANCH   6   7
HETATM    7  C           1     -23.898  -4.377  -9.740  0.00  0.00     0.217 C 
HETATM    8  O           1     -23.630  -5.270 -10.508  0.00  0.00    -0.274 OA
HETATM    9  N           1     -25.197  -3.971  -9.590  0.00  0.00    -0.370 N 
HETATM   10  H           1     -25.422  -3.223  -8.946  0.00  0.00     0.159 HD
HETATM   11  H           1     -25.932  -4.418 -10.122  0.00  0.00     0.159 HD
ENDBRANCH   6   7
ENDBRANCH   5   6
BRANCH   5  12
HETATM   12  C           1     -20.417  -4.376  -8.976  0.00  0.00     0.197 C 
HETATM   13  O           1     -19.655  -3.717  -8.236  0.00  0.00    -0.646 OA
HETATM   14  O           1     -20.040  -4.719 -10.117  0.00  0.00    -0.646 OA
ENDBRANCH   5  12
ENDBRANCH   1   5
BRANCH   2  15
HETATM   15  C           1     -21.382  -6.049  -4.907  0.00  0.00     0.274 C 
BRANCH  15  16
HETATM   16  C           1     -20.570  -7.256  -4.459  0.00  0.00     0.042 C 
BRANCH  16  17
HETATM   17  C           1     -21.412  -8.118  -3.525  0.00  0.00     0.003 C 
BRANCH  17  18
HETATM   18 Se           1     -20.691  -8.014  -1.718  0.00  0.00     0.000 Se
HETATM   19  C           1     -22.214  -7.042  -0.989  0.00  0.00     0.000 C 
ENDBRANCH  17  18
ENDBRANCH  16  17
ENDBRANCH  15  16
BRANCH  15  20
HETATM   20  N           1     -22.792  -6.183  -4.412  0.00  0.00    -0.067 N 
HETATM   21  H           1     -22.787  -6.610  -3.459  0.00  0.00     0.275 HD
HETATM   22  H           1     -23.237  -5.239  -4.369  0.00  0.00     0.275 HD
HETATM   23  H           1     -23.333  -6.794  -5.065  0.00  0.00     0.275 HD
ENDBRANCH  15  20
ENDBRANCH   2  15
TORSDOF 9
ENDMDL
MODEL 6
REMARK VINA RESULT:      -5.2     13.056     14.681
REMARK  9 active torsions:
REMARK  status: ('A' for Active; 'I' for Inactive)
REMARK    1  A    between atoms: Se_2  and  C_14 
REMARK       I    between atoms: C_3  and  N_4 
REMARK    2  A    between atoms: C_3  and  C_5 
REMARK    3  A    between atoms: C_5  and  C_6 
REMARK    4  A    between atoms: C_6  and  C_7 
REMARK    5  A    between atoms: C_6  and  N_10 
REMARK       I    between atoms: N_10  and  C_11 
REMARK    6  A    between atoms: C_11  and  C_12 
REMARK    7  A    between atoms: C_12  and  C_13 
REMARK    8  A    between atoms: C_12  and  N_19 
REMARK    9  A    between atoms: C_13  and  C_14 
ROOT
HETATM    1  N           1     -20.916  -5.238  -5.057  0.00  0.00    -0.344 N 
HETATM    2  C           1     -21.415  -6.279  -4.322  0.00  0.00     0.249 C 
HETATM    3  H           1     -20.427  -4.481  -4.596  0.00  0.00     0.163 HD
HETATM    4  O           1     -21.999  -7.182  -4.873  0.00  0.00    -0.271 OA
ENDROOT
BRANCH   1   5
HETATM    5  C           1     -21.089  -5.218  -6.497  0.00  0.00     0.194 C 
BRANCH   5   6
HETATM    6  C           1     -21.525  -3.826  -6.936  0.00  0.00     0.138 C 
BRANCH   6   7
HETATM    7  C           1     -22.447  -3.938  -8.124  0.00  0.00     0.217 C 
HETATM    8  O           1     -21.998  -3.888  -9.244  0.00  0.00    -0.274 OA
HETATM    9  N           1     -23.794  -4.097  -7.934  0.00  0.00    -0.370 N 
HETATM   10  H           1     -24.171  -4.139  -6.996  0.00  0.00     0.159 HD
HETATM   11  H           1     -24.412  -4.172  -8.732  0.00  0.00     0.159 HD
ENDBRANCH   6   7
ENDBRANCH   5   6
BRANCH   5  12
HETATM   12  C           1     -19.783  -5.571  -7.165  0.00  0.00     0.197 C 
HETATM   13  O           1     -19.411  -6.763  -7.219  0.00  0.00    -0.646 OA
HETATM   14  O           1     -19.073  -4.671  -7.663  0.00  0.00    -0.646 OA
ENDBRANCH   5  12
ENDBRANCH   1   5
BRANCH   2  15
HETATM   15  C           1     -21.234  -6.300  -2.824  0.00  0.00     0.274 C 
BRANCH  15  16
HETATM   16  C           1     -20.835  -7.701  -2.380  0.00  0.00     0.042 C 
BRANCH  16  17
HETATM   17  C           1     -21.304  -7.933  -0.949  0.00  0.00     0.003 C 
BRANCH  17  18
HETATM   18 Se           1     -22.344  -9.579  -0.865  0.00  0.00     0.000 Se
HETATM   19  C           1     -21.924 -10.131  -2.685  0.00  0.00     0.000 C 
ENDBRANCH  17  18
ENDBRANCH  16  17
ENDBRANCH  15  16
BRANCH  15  20
HETATM   20  N           1     -22.523  -5.914  -2.161  0.00  0.00    -0.067 N 
HETATM   21  H           1     -22.328  -5.246  -1.381  0.00  0.00     0.275 HD
HETATM   22  H           1     -23.151  -5.457  -2.860  0.00  0.00     0.275 HD
HETATM   23  H           1     -22.988  -6.768  -1.780  0.00  0.00     0.275 HD
ENDBRANCH  15  20
ENDBRANCH   2  15
TORSDOF 9
ENDMDL
MODEL 7
REMARK VINA RESULT:      -5.2      3.179      5.764
REMARK  9 active torsions:
REMARK  status: ('A' for Active; 'I' for Inactive)
REMARK    1  A    between atoms: Se_2  and  C_14 
REMARK       I    between atoms: C_3  and  N_4 
REMARK    2  A    between atoms: C_3  and  C_5 
REMARK    3  A    between atoms: C_5  and  C_6 
REMARK    4  A    between atoms: C_6  and  C_7 
REMARK    5  A    between atoms: C_6  and  N_10 
REMARK       I    between atoms: N_10  and  C_11 
REMARK    6  A    between atoms: C_11  and  C_12 
REMARK    7  A    between atoms: C_12  and  C_13 
REMARK    8  A    between atoms: C_12  and  N_19 
REMARK    9  A    between atoms: C_13  and  C_14 
ROOT
HETATM    1  N           1     -26.961  -7.027 -18.643  0.00  0.00    -0.344 N 
HETATM    2  C           1     -28.131  -6.318 -18.657  0.00  0.00     0.249 C 
HETATM    3  H           1     -26.935  -7.952 -18.232  0.00  0.00     0.163 HD
HETATM    4  O           1     -28.162  -5.214 -19.146  0.00  0.00    -0.271 OA
ENDROOT
BRANCH   1   5
HETATM    5  C           1     -25.758  -6.454 -19.215  0.00  0.00     0.194 C 
BRANCH   5   6
HETATM    6  C           1     -24.543  -6.954 -18.446  0.00  0.00     0.138 C 
BRANCH   6   7
HETATM    7  C           1     -24.796  -6.827 -16.964  0.00  0.00     0.217 C 
HETATM    8  O           1     -25.438  -5.896 -16.539  0.00  0.00    -0.274 OA
HETATM    9  N           1     -24.297  -7.765 -16.100  0.00  0.00    -0.370 N 
HETATM   10  H           1     -23.759  -8.545 -16.456  0.00  0.00     0.159 HD
HETATM   11  H           1     -24.467  -7.679 -15.107  0.00  0.00     0.159 HD
ENDBRANCH   6   7
ENDBRANCH   5   6
BRANCH   5  12
HETATM   12  C           1     -25.644  -6.867 -20.662  0.00  0.00     0.197 C 
HETATM   13  O           1     -25.997  -8.013 -21.014  0.00  0.00    -0.646 OA
HETATM   14  O           1     -25.197  -6.062 -21.508  0.00  0.00    -0.646 OA
ENDBRANCH   5  12
ENDBRANCH   1   5
BRANCH   2  15
HETATM   15  C           1     -29.383  -6.916 -18.062  0.00  0.00     0.274 C 
BRANCH  15  16
HETATM   16  C           1     -29.264  -6.935 -16.544  0.00  0.00     0.042 C 
BRANCH  16  17
HETATM   17  C           1     -29.725  -5.596 -15.980  0.00  0.00     0.003 C 
BRANCH  17  18
HETATM   18 Se           1     -31.394  -5.070 -16.838  0.00  0.00     0.000 Se
HETATM   19  C           1     -30.675  -3.427 -17.601  0.00  0.00     0.000 C 
ENDBRANCH  17  18
ENDBRANCH  16  17
ENDBRANCH  15  16
BRANCH  15  20
HETATM   20  N           1     -29.556  -8.317 -18.566  0.00  0.00    -0.067 N 
HETATM   21  H           1     -30.382  -8.359 -19.204  0.00  0.00     0.275 HD
HETATM   22  H           1     -28.699  -8.608 -19.089  0.00  0.00     0.275 HD
HETATM   23  H           1     -29.707  -8.962 -17.758  0.00  0.00     0.275 HD
ENDBRANCH  15  20
ENDBRANCH   2  15
TORSDOF 9
ENDMDL
MODEL 8
REMARK VINA RESULT:      -5.1     12.259     14.219
REMARK  9 active torsions:
REMARK  status: ('A' for Active; 'I' for Inactive)
REMARK    1  A    between atoms: Se_2  and  C_14 
REMARK       I    between atoms: C_3  and  N_4 
REMARK    2  A    between atoms: C_3  and  C_5 
REMARK    3  A    between atoms: C_5  and  C_6 
REMARK    4  A    between atoms: C_6  and  C_7 
REMARK    5  A    between atoms: C_6  and  N_10 
REMARK       I    between atoms: N_10  and  C_11 
REMARK    6  A    between atoms: C_11  and  C_12 
REMARK    7  A    between atoms: C_12  and  C_13 
REMARK    8  A    between atoms: C_12  and  N_19 
REMARK    9  A    between atoms: C_13  and  C_14 
ROOT
HETATM    1  N           1     -20.880  -6.255  -4.847  0.00  0.00    -0.344 N 
HETATM    2  C           1     -21.423  -5.403  -5.770  0.00  0.00     0.249 C 
HETATM    3  H           1     -19.879  -6.265  -4.696  0.00  0.00     0.163 HD
HETATM    4  O           1     -22.618  -5.392  -5.951  0.00  0.00    -0.271 OA
ENDROOT
BRANCH   1   5
HETATM    5  C           1     -21.737  -7.143  -4.087  0.00  0.00     0.194 C 
BRANCH   5   6
HETATM    6  C           1     -21.304  -8.585  -4.317  0.00  0.00     0.138 C 
BRANCH   6   7
HETATM    7  C           1     -19.861  -8.614  -4.757  0.00  0.00     0.217 C 
HETATM    8  O           1     -19.575  -8.370  -5.905  0.00  0.00    -0.274 OA
HETATM    9  N           1     -18.876  -8.918  -3.857  0.00  0.00    -0.370 N 
HETATM   10  H           1     -19.115  -9.123  -2.895  0.00  0.00     0.159 HD
HETATM   11  H           1     -17.908  -8.937  -4.152  0.00  0.00     0.159 HD
ENDBRANCH   6   7
ENDBRANCH   5   6
BRANCH   5  12
HETATM   12  C           1     -21.626  -6.813  -2.618  0.00  0.00     0.197 C 
HETATM   13  O           1     -20.850  -7.467  -1.888  0.00  0.00    -0.646 OA
HETATM   14  O           1     -22.311  -5.887  -2.133  0.00  0.00    -0.646 OA
ENDBRANCH   5  12
ENDBRANCH   1   5
BRANCH   2  15
HETATM   15  C           1     -20.531  -4.478  -6.561  0.00  0.00     0.274 C 
BRANCH  15  16
HETATM   16  C           1     -21.347  -3.791  -7.648  0.00  0.00     0.042 C 
BRANCH  16  17
HETATM   17  C           1     -21.114  -4.492  -8.980  0.00  0.00     0.003 C 
BRANCH  17  18
HETATM   18 Se           1     -22.283  -3.721 -10.335  0.00  0.00     0.000 Se
HETATM   19  C           1     -23.889  -3.810  -9.235  0.00  0.00     0.000 C 
ENDBRANCH  17  18
ENDBRANCH  16  17
ENDBRANCH  15  16
BRANCH  15  20
HETATM   20  N           1     -19.426  -5.271  -7.193  0.00  0.00    -0.067 N 
HETATM   21  H           1     -19.039  -4.742  -8.007  0.00  0.00     0.275 HD
HETATM   22  H           1     -18.668  -5.431  -6.492  0.00  0.00     0.275 HD
HETATM   23  H           1     -19.799  -6.190  -7.520  0.00  0.00     0.275 HD
ENDBRANCH  15  20
ENDBRANCH   2  15
TORSDOF 9
ENDMDL
MODEL 9
REMARK VINA RESULT:      -5.0     12.479     14.189
REMARK  9 active torsions:
REMARK  status: ('A' for Active; 'I' for Inactive)
REMARK    1  A    between atoms: Se_2  and  C_14 
REMARK       I    between atoms: C_3  and  N_4 
REMARK    2  A    between atoms: C_3  and  C_5 
REMARK    3  A    between atoms: C_5  and  C_6 
REMARK    4  A    between atoms: C_6  and  C_7 
REMARK    5  A    between atoms: C_6  and  N_10 
REMARK       I    between atoms: N_10  and  C_11 
REMARK    6  A    between atoms: C_11  and  C_12 
REMARK    7  A    between atoms: C_12  and  C_13 
REMARK    8  A    between atoms: C_12  and  N_19 
REMARK    9  A    between atoms: C_13  and  C_14 
ROOT
HETATM    1  N           1     -21.536  -6.854  -5.181  0.00  0.00    -0.344 N 
HETATM    2  C           1     -21.312  -5.613  -5.711  0.00  0.00     0.249 C 
HETATM    3  H           1     -22.250  -7.452  -5.576  0.00  0.00     0.163 HD
HETATM    4  O           1     -20.460  -4.899  -5.239  0.00  0.00    -0.271 OA
ENDROOT
BRANCH   1   5
HETATM    5  C           1     -20.749  -7.313  -4.052  0.00  0.00     0.194 C 
BRANCH   5   6
HETATM    6  C           1     -21.676  -7.880  -2.985  0.00  0.00     0.138 C 
BRANCH   6   7
HETATM    7  C           1     -22.015  -6.801  -1.987  0.00  0.00     0.217 C 
HETATM    8  O           1     -21.999  -5.640  -2.323  0.00  0.00    -0.274 OA
HETATM    9  N           1     -22.342  -7.135  -0.700  0.00  0.00    -0.370 N 
HETATM   10  H           1     -22.355  -8.107  -0.418  0.00  0.00     0.159 HD
HETATM   11  H           1     -22.569  -6.411  -0.031  0.00  0.00     0.159 HD
ENDBRANCH   6   7
ENDBRANCH   5   6
BRANCH   5  12
HETATM   12  C           1     -19.793  -8.387  -4.510  0.00  0.00     0.197 C 
HETATM   13  O           1     -19.023  -8.930  -3.688  0.00  0.00    -0.646 OA
HETATM   14  O           1     -19.770  -8.733  -5.711  0.00  0.00    -0.646 OA
ENDBRANCH   5  12
ENDBRANCH   1   5
BRANCH   2  15
HETATM   15  C           1     -22.131  -5.135  -6.885  0.00  0.00     0.274 C 
BRANCH  15  16
HETATM   16  C           1     -21.512  -3.865  -7.454  0.00  0.00     0.042 C 
BRANCH  16  17
HETATM   17  C           1     -21.075  -4.111  -8.892  0.00  0.00     0.003 C 
BRANCH  17  18
HETATM   18 Se           1     -22.597  -3.872 -10.085  0.00  0.00     0.000 Se
HETATM   19  C           1     -21.565  -4.122 -11.719  0.00  0.00     0.000 C 
ENDBRANCH  17  18
ENDBRANCH  16  17
ENDBRANCH  15  16
BRANCH  15  20
HETATM   20  N           1     -23.532  -4.849  -6.434  0.00  0.00    -0.067 N 
HETATM   21  H           1     -23.651  -3.820  -6.296  0.00  0.00     0.275 HD
HETATM   22  H           1     -24.206  -5.182  -7.159  0.00  0.00     0.275 HD
HETATM   23  H           1     -23.716  -5.345  -5.533  0.00  0.00     0.275 HD
ENDBRANCH  15  20
ENDBRANCH   2  15
TORSDOF 9
ENDMDL
