MODEL 1
REMARK VINA RESULT:      -6.4      0.000      0.000
REMARK  6 active torsions:
REMARK  status: ('A' for Active; 'I' for Inactive)
REMARK    1  A    between atoms: N_5  and  C_6 
REMARK    2  A    between atoms: C_6  and  C_13 
REMARK    3  A    between atoms: C_7  and  C_9 
REMARK    4  A    between atoms: C_9  and  C_17 
REMARK    5  A    between atoms: C_9  and  N_14 
REMARK       I    between atoms: C_13  and  N_14 
REMARK    6  A    between atoms: C_17  and  C_18 
ROOT
HETATM    1  C           1     -29.841  -7.141 -17.358  0.00  0.00     0.191 C 
ENDROOT
BRANCH   1   2
HETATM    2  C           1     -30.407  -7.883 -18.545  0.00  0.00     0.197 C 
HETATM    3  O           1     -31.610  -7.741 -18.854  0.00  0.00    -0.646 OA
HETATM    4  O           1     -29.674  -8.638 -19.218  0.00  0.00    -0.646 OA
ENDBRANCH   1   2
BRANCH   1   5
HETATM    5  C           1     -29.576  -5.692 -17.744  0.00  0.00     0.094 C 
BRANCH   5   6
HETATM    6  C           1     -30.787  -4.865 -17.440  0.00  0.00     0.028 A 
HETATM    7  C           1     -30.938  -3.544 -17.791  0.00  0.00     0.114 A 
HETATM    8  N           1     -32.175  -3.194 -17.324  0.00  0.00    -0.360 N 
HETATM    9  C           1     -32.713  -4.295 -16.720  0.00  0.00     0.180 A 
HETATM   10  H           1     -32.628  -2.251 -17.412  0.00  0.00     0.166 HD
HETATM   11  N           1     -31.895  -5.320 -16.776  0.00  0.00    -0.354 N 
ATOM     12  HN          1     -32.052  -6.257 -16.403  1.00  0.00     0.166 HD
ENDBRANCH   5   6
ENDBRANCH   1   5
BRANCH   1  13
HETATM   13  N           1     -28.599  -7.766 -16.947  0.00  0.00    -0.345 N 
HETATM   14  C           1     -27.853  -7.209 -15.943  0.00  0.00     0.243 C 
HETATM   15  O           1     -28.046  -7.536 -14.795  0.00  0.00    -0.272 OA
HETATM   16  H           1     -28.283  -8.613 -17.402  0.00  0.00     0.163 HD
BRANCH  14  17
HETATM   17  C           1     -26.792  -6.188 -16.268  0.00  0.00     0.332 C 
BRANCH  17  18
HETATM   18  N           1     -26.038  -6.621 -17.490  0.00  0.00    -0.071 N 
HETATM   19  H           1     -26.228  -5.955 -18.273  0.00  0.00     0.274 HD
HETATM   20  H           1     -25.014  -6.629 -17.282  0.00  0.00     0.274 HD
HETATM   21  H           1     -26.345  -7.580 -17.768  0.00  0.00     0.274 HD
ENDBRANCH  17  18
ENDBRANCH  14  17
ENDBRANCH   1  13
TORSDOF 6
ENDMDL
MODEL 2
REMARK VINA RESULT:      -6.3      2.069      5.150
REMARK  6 active torsions:
REMARK  status: ('A' for Active; 'I' for Inactive)
REMARK    1  A    between atoms: N_5  and  C_6 
REMARK    2  A    between atoms: C_6  and  C_13 
REMARK    3  A    between atoms: C_7  and  C_9 
REMARK    4  A    between atoms: C_9  and  C_17 
REMARK    5  A    between atoms: C_9  and  N_14 
REMARK       I    between atoms: C_13  and  N_14 
REMARK    6  A    between atoms: C_17  and  C_18 
ROOT
HETATM    1  C           1     -28.497  -6.321 -18.132  0.00  0.00     0.191 C 
ENDROOT
BRANCH   1   2
HETATM    2  C           1     -29.504  -7.428 -17.934  0.00  0.00     0.197 C 
HETATM    3  O           1     -29.436  -8.161 -16.924  0.00  0.00    -0.646 OA
HETATM    4  O           1     -30.405  -7.612 -18.780  0.00  0.00    -0.646 OA
ENDBRANCH   1   2
BRANCH   1   5
HETATM    5  C           1     -27.802  -6.024 -16.810  0.00  0.00     0.094 C 
BRANCH   5   6
HETATM    6  C           1     -26.376  -6.474 -16.884  0.00  0.00     0.028 A 
HETATM    7  C           1     -25.575  -6.714 -15.792  0.00  0.00     0.114 A 
HETATM    8  N           1     -24.372  -7.100 -16.314  0.00  0.00    -0.360 N 
HETATM    9  C           1     -24.489  -7.078 -17.676  0.00  0.00     0.180 A 
HETATM   10  H           1     -23.514  -7.364 -15.770  0.00  0.00     0.166 HD
HETATM   11  N           1     -25.690  -6.704 -18.048  0.00  0.00    -0.354 N 
ATOM     12  HN          1     -26.040  -6.605 -19.002  1.00  0.00     0.166 HD
ENDBRANCH   5   6
ENDBRANCH   1   5
BRANCH   1  13
HETATM   13  N           1     -29.178  -5.128 -18.597  0.00  0.00    -0.345 N 
HETATM   14  C           1     -29.602  -4.187 -17.697  0.00  0.00     0.243 C 
HETATM   15  O           1     -28.868  -3.280 -17.381  0.00  0.00    -0.272 OA
HETATM   16  H           1     -29.340  -4.990 -19.586  0.00  0.00     0.163 HD
BRANCH  14  17
HETATM   17  C           1     -30.983  -4.284 -17.099  0.00  0.00     0.332 C 
BRANCH  17  18
HETATM   18  N           1     -31.815  -3.127 -17.569  0.00  0.00    -0.071 N 
HETATM   19  H           1     -32.493  -3.456 -18.292  0.00  0.00     0.274 HD
HETATM   20  H           1     -32.338  -2.723 -16.760  0.00  0.00     0.274 HD
HETATM   21  H           1     -31.193  -2.396 -17.982  0.00  0.00     0.274 HD
ENDBRANCH  17  18
ENDBRANCH  14  17
ENDBRANCH   1  13
TORSDOF 6
ENDMDL
MODEL 3
REMARK VINA RESULT:      -5.9      2.269      2.897
REMARK  6 active torsions:
REMARK  status: ('A' for Active; 'I' for Inactive)
REMARK    1  A    between atoms: N_5  and  C_6 
REMARK    2  A    between atoms: C_6  and  C_13 
REMARK    3  A    between atoms: C_7  and  C_9 
REMARK    4  A    between atoms: C_9  and  C_17 
REMARK    5  A    between atoms: C_9  and  N_14 
REMARK       I    between atoms: C_13  and  N_14 
REMARK    6  A    between atoms: C_17  and  C_18 
ROOT
HETATM    1  C           1     -27.867  -6.027 -16.697  0.00  0.00     0.191 C 
ENDROOT
BRANCH   1   2
HETATM    2  C           1     -28.370  -5.494 -15.378  0.00  0.00     0.197 C 
HETATM    3  O           1     -29.051  -6.224 -14.627  0.00  0.00    -0.646 OA
HETATM    4  O           1     -28.105  -4.321 -15.036  0.00  0.00    -0.646 OA
ENDBRANCH   1   2
BRANCH   1   5
HETATM    5  C           1     -29.052  -6.399 -17.579  0.00  0.00     0.094 C 
BRANCH   5   6
HETATM    6  C           1     -30.063  -5.294 -17.548  0.00  0.00     0.028 A 
HETATM    7  C           1     -29.896  -4.067 -18.145  0.00  0.00     0.114 A 
HETATM    8  N           1     -31.047  -3.381 -17.871  0.00  0.00    -0.360 N 
HETATM    9  C           1     -31.850  -4.205 -17.133  0.00  0.00     0.180 A 
HETATM   10  H           1     -31.273  -2.401 -18.172  0.00  0.00     0.166 HD
HETATM   11  N           1     -31.280  -5.369 -16.923  0.00  0.00    -0.354 N 
ATOM     12  HN          1     -31.662  -6.160 -16.405  1.00  0.00     0.166 HD
ENDBRANCH   5   6
ENDBRANCH   1   5
BRANCH   1  13
HETATM   13  N           1     -27.053  -7.204 -16.463  0.00  0.00    -0.345 N 
HETATM   14  C           1     -25.733  -7.066 -16.128  0.00  0.00     0.243 C 
HETATM   15  O           1     -25.410  -6.982 -14.966  0.00  0.00    -0.272 OA
HETATM   16  H           1     -27.460  -8.126 -16.547  0.00  0.00     0.163 HD
BRANCH  14  17
HETATM   17  C           1     -24.681  -7.018 -17.208  0.00  0.00     0.332 C 
BRANCH  17  18
HETATM   18  N           1     -23.528  -7.896 -16.825  0.00  0.00    -0.071 N 
HETATM   19  H           1     -22.630  -7.432 -17.092  0.00  0.00     0.274 HD
HETATM   20  H           1     -23.542  -8.058 -15.792  0.00  0.00     0.274 HD
HETATM   21  H           1     -23.607  -8.812 -17.322  0.00  0.00     0.274 HD
ENDBRANCH  17  18
ENDBRANCH  14  17
ENDBRANCH   1  13
TORSDOF 6
ENDMDL
MODEL 4
REMARK VINA RESULT:      -5.8      2.793      3.678
REMARK  6 active torsions:
REMARK  status: ('A' for Active; 'I' for Inactive)
REMARK    1  A    between atoms: N_5  and  C_6 
REMARK    2  A    between atoms: C_6  and  C_13 
REMARK    3  A    between atoms: C_7  and  C_9 
REMARK    4  A    between atoms: C_9  and  C_17 
REMARK    5  A    between atoms: C_9  and  N_14 
REMARK       I    between atoms: C_13  and  N_14 
REMARK    6  A    between atoms: C_17  and  C_18 
ROOT
HETATM    1  C           1     -27.478  -5.901 -18.256  0.00  0.00     0.191 C 
ENDROOT
BRANCH   1   2
HETATM    2  C           1     -27.262  -5.477 -16.824  0.00  0.00     0.197 C 
HETATM    3  O           1     -27.384  -4.275 -16.503  0.00  0.00    -0.646 OA
HETATM    4  O           1     -26.960  -6.326 -15.959  0.00  0.00    -0.646 OA
ENDBRANCH   1   2
BRANCH   1   5
HETATM    5  C           1     -28.914  -6.375 -18.434  0.00  0.00     0.094 C 
BRANCH   5   6
HETATM    6  C           1     -29.853  -5.324 -17.930  0.00  0.00     0.028 A 
HETATM    7  C           1     -30.840  -5.540 -16.997  0.00  0.00     0.114 A 
HETATM    8  N           1     -31.446  -4.325 -16.835  0.00  0.00    -0.360 N 
HETATM    9  C           1     -30.813  -3.437 -17.660  0.00  0.00     0.180 A 
HETATM   10  H           1     -32.249  -4.112 -16.194  0.00  0.00     0.166 HD
HETATM   11  N           1     -29.846  -4.014 -18.334  0.00  0.00    -0.354 N 
ATOM     12  HN          1     -29.222  -3.580 -19.014  1.00  0.00     0.166 HD
ENDBRANCH   5   6
ENDBRANCH   1   5
BRANCH   1  13
HETATM   13  N           1     -26.569  -6.983 -18.581  0.00  0.00    -0.345 N 
HETATM   14  C           1     -25.428  -6.728 -19.292  0.00  0.00     0.243 C 
HETATM   15  O           1     -24.405  -6.446 -18.713  0.00  0.00    -0.272 OA
HETATM   16  H           1     -26.777  -7.927 -18.281  0.00  0.00     0.163 HD
BRANCH  14  17
HETATM   17  C           1     -25.446  -6.797 -20.799  0.00  0.00     0.332 C 
BRANCH  17  18
HETATM   18  N           1     -25.080  -8.182 -21.242  0.00  0.00    -0.071 N 
HETATM   19  H           1     -25.138  -8.243 -22.283  0.00  0.00     0.274 HD
HETATM   20  H           1     -24.106  -8.399 -20.934  0.00  0.00     0.274 HD
HETATM   21  H           1     -25.742  -8.870 -20.816  0.00  0.00     0.274 HD
ENDBRANCH  17  18
ENDBRANCH  14  17
ENDBRANCH   1  13
TORSDOF 6
ENDMDL
MODEL 5
REMARK VINA RESULT:      -5.8      3.495      5.191
REMARK  6 active torsions:
REMARK  status: ('A' for Active; 'I' for Inactive)
REMARK    1  A    between atoms: N_5  and  C_6 
REMARK    2  A    between atoms: C_6  and  C_13 
REMARK    3  A    between atoms: C_7  and  C_9 
REMARK    4  A    between atoms: C_9  and  C_17 
REMARK    5  A    between atoms: C_9  and  N_14 
REMARK       I    between atoms: C_13  and  N_14 
REMARK    6  A    between atoms: C_17  and  C_18 
ROOT
HETATM    1  C           1     -27.201  -5.668 -17.824  0.00  0.00     0.191 C 
ENDROOT
BRANCH   1   2
HETATM    2  C           1     -28.186  -4.873 -17.001  0.00  0.00     0.197 C 
HETATM    3  O           1     -29.348  -5.301 -16.832  0.00  0.00    -0.646 OA
HETATM    4  O           1     -27.840  -3.787 -16.490  0.00  0.00    -0.646 OA
ENDBRANCH   1   2
BRANCH   1   5
HETATM    5  C           1     -27.876  -6.142 -19.105  0.00  0.00     0.094 C 
BRANCH   5   6
HETATM    6  C           1     -26.882  -6.874 -19.952  0.00  0.00     0.028 A 
HETATM    7  C           1     -27.129  -8.065 -20.592  0.00  0.00     0.114 A 
HETATM    8  N           1     -25.964  -8.366 -21.241  0.00  0.00    -0.360 N 
HETATM    9  C           1     -25.074  -7.363 -20.973  0.00  0.00     0.180 A 
HETATM   10  H           1     -25.784  -9.212 -21.836  0.00  0.00     0.166 HD
HETATM   11  N           1     -25.603  -6.448 -20.196  0.00  0.00    -0.354 N 
ATOM     12  HN          1     -25.156  -5.599 -19.848  1.00  0.00     0.166 HD
ENDBRANCH   5   6
ENDBRANCH   1   5
BRANCH   1  13
HETATM   13  N           1     -26.752  -6.817 -17.061  0.00  0.00    -0.345 N 
HETATM   14  C           1     -25.538  -6.787 -16.430  0.00  0.00     0.243 C 
HETATM   15  O           1     -25.458  -6.382 -15.294  0.00  0.00    -0.272 OA
HETATM   16  H           1     -27.336  -7.641 -16.996  0.00  0.00     0.163 HD
BRANCH  14  17
HETATM   17  C           1     -24.300  -7.258 -17.152  0.00  0.00     0.332 C 
BRANCH  17  18
HETATM   18  N           1     -23.616  -8.315 -16.336  0.00  0.00    -0.071 N 
HETATM   19  H           1     -22.581  -8.180 -16.387  0.00  0.00     0.274 HD
HETATM   20  H           1     -23.928  -8.243 -15.342  0.00  0.00     0.274 HD
HETATM   21  H           1     -23.863  -9.258 -16.712  0.00  0.00     0.274 HD
ENDBRANCH  17  18
ENDBRANCH  14  17
ENDBRANCH   1  13
TORSDOF 6
ENDMDL
MODEL 6
REMARK VINA RESULT:      -5.6      2.991      5.862
REMARK  6 active torsions:
REMARK  status: ('A' for Active; 'I' for Inactive)
REMARK    1  A    between atoms: N_5  and  C_6 
REMARK    2  A    between atoms: C_6  and  C_13 
REMARK    3  A    between atoms: C_7  and  C_9 
REMARK    4  A    between atoms: C_9  and  C_17 
REMARK    5  A    between atoms: C_9  and  N_14 
REMARK       I    between atoms: C_13  and  N_14 
REMARK    6  A    between atoms: C_17  and  C_18 
ROOT
HETATM    1  C           1     -26.339  -6.691 -17.469  0.00  0.00     0.191 C 
ENDROOT
BRANCH   1   2
HETATM    2  C           1     -25.772  -6.625 -16.071  0.00  0.00     0.197 C 
HETATM    3  O           1     -26.048  -7.518 -15.242  0.00  0.00    -0.646 OA
HETATM    4  O           1     -25.028  -5.676 -15.742  0.00  0.00    -0.646 OA
ENDBRANCH   1   2
BRANCH   1   5
HETATM    5  C           1     -25.250  -6.339 -18.475  0.00  0.00     0.094 C 
BRANCH   5   6
HETATM    6  C           1     -25.412  -7.182 -19.701  0.00  0.00     0.028 A 
HETATM    7  C           1     -24.373  -7.728 -20.417  0.00  0.00     0.114 A 
HETATM    8  N           1     -24.969  -8.411 -21.441  0.00  0.00    -0.360 N 
HETATM    9  C           1     -26.320  -8.255 -21.307  0.00  0.00     0.180 A 
HETATM   10  H           1     -24.478  -8.955 -22.193  0.00  0.00     0.166 HD
HETATM   11  N           1     -26.617  -7.517 -20.263  0.00  0.00    -0.354 N 
ATOM     12  HN          1     -27.546  -7.249 -19.939  1.00  0.00     0.166 HD
ENDBRANCH   5   6
ENDBRANCH   1   5
BRANCH   1  13
HETATM   13  N           1     -27.432  -5.746 -17.591  0.00  0.00    -0.345 N 
HETATM   14  C           1     -28.699  -6.116 -17.227  0.00  0.00     0.243 C 
HETATM   15  O           1     -29.075  -5.942 -16.091  0.00  0.00    -0.272 OA
HETATM   16  H           1     -27.259  -4.814 -17.945  0.00  0.00     0.163 HD
BRANCH  14  17
HETATM   17  C           1     -29.624  -6.739 -18.241  0.00  0.00     0.332 C 
BRANCH  17  18
HETATM   18  N           1     -29.554  -8.233 -18.132  0.00  0.00    -0.071 N 
HETATM   19  H           1     -28.711  -8.504 -17.577  0.00  0.00     0.274 HD
HETATM   20  H           1     -30.413  -8.588 -17.656  0.00  0.00     0.274 HD
HETATM   21  H           1     -29.488  -8.650 -19.088  0.00  0.00     0.274 HD
ENDBRANCH  17  18
ENDBRANCH  14  17
ENDBRANCH   1  13
TORSDOF 6
ENDMDL
MODEL 7
REMARK VINA RESULT:      -5.6      9.626     12.470
REMARK  6 active torsions:
REMARK  status: ('A' for Active; 'I' for Inactive)
REMARK    1  A    between atoms: N_5  and  C_6 
REMARK    2  A    between atoms: C_6  and  C_13 
REMARK    3  A    between atoms: C_7  and  C_9 
REMARK    4  A    between atoms: C_9  and  C_17 
REMARK    5  A    between atoms: C_9  and  N_14 
REMARK       I    between atoms: C_13  and  N_14 
REMARK    6  A    between atoms: C_17  and  C_18 
ROOT
HETATM    1  C           1     -21.342  -3.981  -9.793  0.00  0.00     0.191 C 
ENDROOT
BRANCH   1   2
HETATM    2  C           1     -21.017  -3.433 -11.161  0.00  0.00     0.197 C 
HETATM    3  O           1     -20.222  -4.046 -11.906  0.00  0.00    -0.646 OA
HETATM    4  O           1     -21.540  -2.367 -11.549  0.00  0.00    -0.646 OA
ENDBRANCH   1   2
BRANCH   1   5
HETATM    5  C           1     -20.157  -4.784  -9.272  0.00  0.00     0.094 C 
BRANCH   5   6
HETATM    6  C           1     -20.358  -5.085  -7.820  0.00  0.00     0.028 A 
HETATM    7  C           1     -20.688  -4.151  -6.866  0.00  0.00     0.114 A 
HETATM    8  N           1     -20.770  -4.854  -5.696  0.00  0.00    -0.360 N 
HETATM    9  C           1     -20.493  -6.161  -5.982  0.00  0.00     0.180 A 
HETATM   10  H           1     -21.003  -4.462  -4.750  0.00  0.00     0.166 HD
HETATM   11  N           1     -20.240  -6.330  -7.258  0.00  0.00    -0.354 N 
ATOM     12  HN          1     -20.006  -7.203  -7.733  1.00  0.00     0.166 HD
ENDBRANCH   5   6
ENDBRANCH   1   5
BRANCH   1  13
HETATM   13  N           1     -22.506  -4.841  -9.882  0.00  0.00    -0.345 N 
HETATM   14  C           1     -23.555  -4.490 -10.688  0.00  0.00     0.243 C 
HETATM   15  O           1     -23.577  -4.849 -11.842  0.00  0.00    -0.272 OA
HETATM   16  H           1     -22.543  -5.700  -9.349  0.00  0.00     0.163 HD
BRANCH  14  17
HETATM   17  C           1     -24.685  -3.656 -10.137  0.00  0.00     0.332 C 
BRANCH  17  18
HETATM   18  N           1     -24.533  -3.526  -8.651  0.00  0.00    -0.071 N 
HETATM   19  H           1     -23.714  -2.914  -8.435  0.00  0.00     0.274 HD
HETATM   20  H           1     -25.399  -3.103  -8.249  0.00  0.00     0.274 HD
HETATM   21  H           1     -24.380  -4.471  -8.233  0.00  0.00     0.274 HD
ENDBRANCH  17  18
ENDBRANCH  14  17
ENDBRANCH   1  13
TORSDOF 6
ENDMDL
MODEL 8
REMARK VINA RESULT:      -5.5     10.318     12.650
REMARK  6 active torsions:
REMARK  status: ('A' for Active; 'I' for Inactive)
REMARK    1  A    between atoms: N_5  and  C_6 
REMARK    2  A    between atoms: C_6  and  C_13 
REMARK    3  A    between atoms: C_7  and  C_9 
REMARK    4  A    between atoms: C_9  and  C_17 
REMARK    5  A    between atoms: C_9  and  N_14 
REMARK       I    between atoms: C_13  and  N_14 
REMARK    6  A    between atoms: C_17  and  C_18 
ROOT
HETATM    1  C           1     -21.188  -5.053  -7.840  0.00  0.00     0.191 C 
ENDROOT
BRANCH   1   2
HETATM    2  C           1     -20.033  -4.534  -8.661  0.00  0.00     0.197 C 
HETATM    3  O           1     -19.165  -3.808  -8.130  0.00  0.00    -0.646 OA
HETATM    4  O           1     -19.945  -4.828  -9.873  0.00  0.00    -0.646 OA
ENDBRANCH   1   2
BRANCH   1   5
HETATM    5  C           1     -22.284  -3.997  -7.781  0.00  0.00     0.094 C 
BRANCH   5   6
HETATM    6  C           1     -23.149  -4.107  -8.998  0.00  0.00     0.028 A 
HETATM    7  C           1     -24.285  -3.364  -9.218  0.00  0.00     0.114 A 
HETATM    8  N           1     -24.751  -3.782 -10.434  0.00  0.00    -0.360 N 
HETATM    9  C           1     -23.895  -4.744 -10.893  0.00  0.00     0.180 A 
HETATM   10  H           1     -25.609  -3.430 -10.925  0.00  0.00     0.166 HD
HETATM   11  N           1     -22.917  -4.960 -10.045  0.00  0.00    -0.354 N 
ATOM     12  HN          1     -22.148  -5.623 -10.144  1.00  0.00     0.166 HD
ENDBRANCH   5   6
ENDBRANCH   1   5
BRANCH   1  13
HETATM   13  N           1     -20.730  -5.349  -6.496  0.00  0.00    -0.345 N 
HETATM   14  C           1     -20.659  -6.647  -6.068  0.00  0.00     0.243 C 
HETATM   15  O           1     -19.643  -7.282  -6.229  0.00  0.00    -0.272 OA
HETATM   16  H           1     -20.462  -4.596  -5.876  0.00  0.00     0.163 HD
BRANCH  14  17
HETATM   17  C           1     -21.849  -7.286  -5.396  0.00  0.00     0.332 C 
BRANCH  17  18
HETATM   18  N           1     -22.691  -6.224  -4.753  0.00  0.00    -0.071 N 
HETATM   19  H           1     -23.509  -6.007  -5.366  0.00  0.00     0.274 HD
HETATM   20  H           1     -23.032  -6.564  -3.826  0.00  0.00     0.274 HD
HETATM   21  H           1     -22.119  -5.360  -4.618  0.00  0.00     0.274 HD
ENDBRANCH  17  18
ENDBRANCH  14  17
ENDBRANCH   1  13
TORSDOF 6
ENDMDL
MODEL 9
REMARK VINA RESULT:      -5.5      2.610      4.106
REMARK  6 active torsions:
REMARK  status: ('A' for Active; 'I' for Inactive)
REMARK    1  A    between atoms: N_5  and  C_6 
REMARK    2  A    between atoms: C_6  and  C_13 
REMARK    3  A    between atoms: C_7  and  C_9 
REMARK    4  A    between atoms: C_9  and  C_17 
REMARK    5  A    between atoms: C_9  and  N_14 
REMARK       I    between atoms: C_13  and  N_14 
REMARK    6  A    between atoms: C_17  and  C_18 
ROOT
HETATM    1  C           1     -28.840  -6.357 -17.560  0.00  0.00     0.191 C 
ENDROOT
BRANCH   1   2
HETATM    2  C           1     -30.110  -7.104 -17.889  0.00  0.00     0.197 C 
HETATM    3  O           1     -30.060  -8.156 -18.562  0.00  0.00    -0.646 OA
HETATM    4  O           1     -31.212  -6.670 -17.490  0.00  0.00    -0.646 OA
ENDBRANCH   1   2
BRANCH   1   5
HETATM    5  C           1     -28.327  -5.654 -18.810  0.00  0.00     0.094 C 
BRANCH   5   6
HETATM    6  C           1     -27.356  -6.544 -19.521  0.00  0.00     0.028 A 
HETATM    7  C           1     -25.987  -6.441 -19.426  0.00  0.00     0.114 A 
HETATM    8  N           1     -25.501  -7.438 -20.226  0.00  0.00    -0.360 N 
HETATM    9  C           1     -26.574  -8.093 -20.763  0.00  0.00     0.180 A 
HETATM   10  H           1     -24.490  -7.659 -20.397  0.00  0.00     0.166 HD
HETATM   11  N           1     -27.708  -7.574 -20.354  0.00  0.00    -0.354 N 
ATOM     12  HN          1     -28.651  -7.874 -20.602  1.00  0.00     0.166 HD
ENDBRANCH   5   6
ENDBRANCH   1   5
BRANCH   1  13
HETATM   13  N           1     -27.839  -7.294 -17.088  0.00  0.00    -0.345 N 
HETATM   14  C           1     -27.243  -7.101 -15.871  0.00  0.00     0.243 C 
HETATM   15  O           1     -27.730  -7.586 -14.876  0.00  0.00    -0.272 OA
HETATM   16  H           1     -27.581  -8.090 -17.657  0.00  0.00     0.163 HD
BRANCH  14  17
HETATM   17  C           1     -25.979  -6.284 -15.770  0.00  0.00     0.332 C 
BRANCH  17  18
HETATM   18  N           1     -24.793  -7.160 -16.043  0.00  0.00    -0.071 N 
HETATM   19  H           1     -23.914  -6.619 -15.876  0.00  0.00     0.274 HD
HETATM   20  H           1     -24.818  -7.987 -15.405  0.00  0.00     0.274 HD
HETATM   21  H           1     -24.819  -7.483 -17.036  0.00  0.00     0.274 HD
ENDBRANCH  17  18
ENDBRANCH  14  17
ENDBRANCH   1  13
TORSDOF 6
ENDMDL
