MODEL 1
REMARK VINA RESULT:      -6.2      0.000      0.000
REMARK  12 active torsions:
REMARK  status: ('A' for Active; 'I' for Inactive)
REMARK    1  A    between atoms: C_3  and  C_23 
REMARK    2  A    between atoms: C_3  and  S_21 
REMARK    3  A    between atoms: C_6  and  C_15 
REMARK    4  A    between atoms: C_6  and  C_9 
REMARK    5  A    between atoms: C_6  and  N_10 
REMARK       I    between atoms: N_10  and  C_13 
REMARK    6  A    between atoms: C_13  and  C_14 
REMARK    7  A    between atoms: C_14  and  C_23 
REMARK    8  A    between atoms: C_14  and  N_25 
REMARK    9  A    between atoms: C_15  and  C_19 
REMARK   10  A    between atoms: N_16  and  C_17 
REMARK   11  A    between atoms: C_17  and  C_18 
REMARK   12  A    between atoms: C_18  and  C_19 
ROOT
HETATM    1  H           1     -32.496  -3.450 -14.350  0.00  0.00     0.163 HD
HETATM    2  N           1     -33.394  -3.912 -14.287  0.00  0.00    -0.345 N 
HETATM    3  C           1     -33.957  -4.469 -15.403  0.00  0.00     0.249 C 
HETATM    4  O           1     -35.029  -5.022 -15.327  0.00  0.00    -0.271 OA
ENDROOT
BRANCH   2   5
HETATM    5  C           1     -34.083  -3.987 -13.013  0.00  0.00     0.185 C 
BRANCH   5   6
HETATM    6  C           1     -33.085  -4.329 -11.915  0.00  0.00     0.036 C 
BRANCH   6   7
HETATM    7  C           1     -33.420  -5.696 -11.332  0.00  0.00     0.004 C 
BRANCH   7   8
HETATM    8  C           1     -34.600  -5.566 -10.379  0.00  0.00     0.027 C 
BRANCH   8   9
HETATM    9  C           1     -34.956  -6.938  -9.821  0.00  0.00     0.229 C 
BRANCH   9  10
HETATM   10  N           1     -34.732  -7.981 -10.876  0.00  0.00    -0.079 N 
HETATM   11  H           1     -33.739  -7.937 -11.203  0.00  0.00     0.274 HD
HETATM   12  H           1     -35.373  -7.805 -11.681  0.00  0.00     0.274 HD
HETATM   13  H           1     -34.925  -8.927 -10.478  0.00  0.00     0.274 HD
ENDBRANCH   9  10
ENDBRANCH   8   9
ENDBRANCH   7   8
ENDBRANCH   6   7
ENDBRANCH   5   6
BRANCH   5  14
HETATM   14  C           1     -34.727  -2.656 -12.712  0.00  0.00     0.196 C 
HETATM   15  O           1     -35.023  -2.357 -11.534  0.00  0.00    -0.646 OA
HETATM   16  O           1     -34.965  -1.852 -13.638  0.00  0.00    -0.646 OA
ENDBRANCH   5  14
ENDBRANCH   2   5
BRANCH   3  17
HETATM   17  C           1     -33.240  -4.392 -16.728  0.00  0.00     0.275 C 
BRANCH  17  18
HETATM   18  C           1     -31.741  -4.541 -16.504  0.00  0.00     0.053 C 
BRANCH  18  19
HETATM   19  C           1     -30.988  -3.708 -17.532  0.00  0.00     0.076 C 
BRANCH  19  20
HETATM   20  S           1     -29.538  -4.631 -18.116  0.00  0.00    -0.173 SA
HETATM   21  C           1     -28.363  -3.931 -16.924  0.00  0.00     0.089 C 
ENDBRANCH  19  20
ENDBRANCH  18  19
ENDBRANCH  17  18
BRANCH  17  22
HETATM   22  N           1     -33.519  -3.066 -17.371  0.00  0.00    -0.066 N 
HETATM   23  H           1     -33.837  -3.215 -18.354  0.00  0.00     0.275 HD
HETATM   24  H           1     -32.648  -2.487 -17.368  0.00  0.00     0.275 HD
HETATM   25  H           1     -34.267  -2.569 -16.835  0.00  0.00     0.275 HD
ENDBRANCH  17  22
ENDBRANCH   3  17
TORSDOF 12
ENDMDL
MODEL 2
REMARK VINA RESULT:      -5.8      4.384      6.369
REMARK  12 active torsions:
REMARK  status: ('A' for Active; 'I' for Inactive)
REMARK    1  A    between atoms: C_3  and  C_23 
REMARK    2  A    between atoms: C_3  and  S_21 
REMARK    3  A    between atoms: C_6  and  C_15 
REMARK    4  A    between atoms: C_6  and  C_9 
REMARK    5  A    between atoms: C_6  and  N_10 
REMARK       I    between atoms: N_10  and  C_13 
REMARK    6  A    between atoms: C_13  and  C_14 
REMARK    7  A    between atoms: C_14  and  C_23 
REMARK    8  A    between atoms: C_14  and  N_25 
REMARK    9  A    between atoms: C_15  and  C_19 
REMARK   10  A    between atoms: N_16  and  C_17 
REMARK   11  A    between atoms: C_17  and  C_18 
REMARK   12  A    between atoms: C_18  and  C_19 
ROOT
HETATM    1  H           1     -34.802  -0.690 -11.436  0.00  0.00     0.163 HD
HETATM    2  N           1     -34.984  -1.267 -12.247  0.00  0.00    -0.345 N 
HETATM    3  C           1     -34.347  -2.470 -12.389  0.00  0.00     0.249 C 
HETATM    4  O           1     -34.566  -3.159 -13.357  0.00  0.00    -0.271 OA
ENDROOT
BRANCH   2   5
HETATM    5  C           1     -35.921  -0.819 -13.259  0.00  0.00     0.185 C 
BRANCH   5   6
HETATM    6  C           1     -37.084  -0.098 -12.590  0.00  0.00     0.036 C 
BRANCH   6   7
HETATM    7  C           1     -36.775   0.103 -11.113  0.00  0.00     0.004 C 
BRANCH   7   8
HETATM    8  C           1     -38.075   0.128 -10.320  0.00  0.00     0.027 C 
BRANCH   8   9
HETATM    9  C           1     -37.986   1.190  -9.231  0.00  0.00     0.229 C 
BRANCH   9  10
HETATM   10  N           1     -36.553   1.378  -8.832  0.00  0.00    -0.079 N 
HETATM   11  H           1     -35.982   1.605  -9.678  0.00  0.00     0.274 HD
HETATM   12  H           1     -36.195   0.499  -8.396  0.00  0.00     0.274 HD
HETATM   13  H           1     -36.482   2.161  -8.144  0.00  0.00     0.274 HD
ENDBRANCH   9  10
ENDBRANCH   8   9
ENDBRANCH   7   8
ENDBRANCH   6   7
ENDBRANCH   5   6
BRANCH   5  14
HETATM   14  C           1     -35.224   0.124 -14.209  0.00  0.00     0.196 C 
HETATM   15  O           1     -34.850   1.249 -13.811  0.00  0.00    -0.646 OA
HETATM   16  O           1     -35.019  -0.219 -15.393  0.00  0.00    -0.646 OA
ENDBRANCH   5  14
ENDBRANCH   2   5
BRANCH   3  17
HETATM   17  C           1     -33.372  -2.936 -11.336  0.00  0.00     0.275 C 
BRANCH  17  18
HETATM   18  C           1     -33.985  -4.087 -10.550  0.00  0.00     0.053 C 
BRANCH  18  19
HETATM   19  C           1     -33.485  -5.410 -11.112  0.00  0.00     0.076 C 
BRANCH  19  20
HETATM   20  S           1     -34.895  -6.508 -11.428  0.00  0.00    -0.173 SA
HETATM   21  C           1     -34.834  -7.376  -9.835  0.00  0.00     0.089 C 
ENDBRANCH  19  20
ENDBRANCH  18  19
ENDBRANCH  17  18
BRANCH  17  22
HETATM   22  N           1     -33.066  -1.802 -10.403  0.00  0.00    -0.066 N 
HETATM   23  H           1     -33.795  -1.757  -9.658  0.00  0.00     0.275 HD
HETATM   24  H           1     -33.057  -0.904 -10.938  0.00  0.00     0.275 HD
HETATM   25  H           1     -32.129  -1.954  -9.965  0.00  0.00     0.275 HD
ENDBRANCH  17  22
ENDBRANCH   3  17
TORSDOF 12
ENDMDL
MODEL 3
REMARK VINA RESULT:      -5.4     14.333     16.187
REMARK  12 active torsions:
REMARK  status: ('A' for Active; 'I' for Inactive)
REMARK    1  A    between atoms: C_3  and  C_23 
REMARK    2  A    between atoms: C_3  and  S_21 
REMARK    3  A    between atoms: C_6  and  C_15 
REMARK    4  A    between atoms: C_6  and  C_9 
REMARK    5  A    between atoms: C_6  and  N_10 
REMARK       I    between atoms: N_10  and  C_13 
REMARK    6  A    between atoms: C_13  and  C_14 
REMARK    7  A    between atoms: C_14  and  C_23 
REMARK    8  A    between atoms: C_14  and  N_25 
REMARK    9  A    between atoms: C_15  and  C_19 
REMARK   10  A    between atoms: N_16  and  C_17 
REMARK   11  A    between atoms: C_17  and  C_18 
REMARK   12  A    between atoms: C_18  and  C_19 
ROOT
HETATM    1  H           1     -20.602  -4.534  -4.647  0.00  0.00     0.163 HD
HETATM    2  N           1     -21.030  -5.346  -5.071  0.00  0.00    -0.345 N 
HETATM    3  C           1     -21.437  -6.393  -4.288  0.00  0.00     0.249 C 
HETATM    4  O           1     -21.950  -7.362  -4.794  0.00  0.00    -0.271 OA
ENDROOT
BRANCH   2   5
HETATM    5  C           1     -21.215  -5.402  -6.508  0.00  0.00     0.185 C 
BRANCH   5   6
HETATM    6  C           1     -21.809  -4.087  -6.994  0.00  0.00     0.036 C 
BRANCH   6   7
HETATM    7  C           1     -23.003  -4.372  -7.897  0.00  0.00     0.004 C 
BRANCH   7   8
HETATM    8  C           1     -22.551  -4.374  -9.351  0.00  0.00     0.027 C 
BRANCH   8   9
HETATM    9  C           1     -23.724  -4.748 -10.248  0.00  0.00     0.229 C 
BRANCH   9  10
HETATM   10  N           1     -25.011  -4.408  -9.555  0.00  0.00    -0.079 N 
HETATM   11  H           1     -25.016  -3.392  -9.310  0.00  0.00     0.274 HD
HETATM   12  H           1     -25.098  -4.978  -8.684  0.00  0.00     0.274 HD
HETATM   13  H           1     -25.815  -4.618 -10.190  0.00  0.00     0.274 HD
ENDBRANCH   9  10
ENDBRANCH   8   9
ENDBRANCH   7   8
ENDBRANCH   6   7
ENDBRANCH   5   6
BRANCH   5  14
HETATM   14  C           1     -19.882  -5.630  -7.178  0.00  0.00     0.196 C 
HETATM   15  O           1     -19.387  -6.778  -7.211  0.00  0.00    -0.646 OA
HETATM   16  O           1     -19.272  -4.672  -7.699  0.00  0.00    -0.646 OA
ENDBRANCH   5  14
ENDBRANCH   2   5
BRANCH   3  17
HETATM   17  C           1     -21.246  -6.335  -2.793  0.00  0.00     0.275 C 
BRANCH  17  18
HETATM   18  C           1     -20.852  -7.712  -2.277  0.00  0.00     0.053 C 
BRANCH  18  19
HETATM   19  C           1     -21.967  -8.265  -1.401  0.00  0.00     0.076 C 
BRANCH  19  20
HETATM   20  S           1     -21.353  -8.491   0.292  0.00  0.00    -0.173 SA
HETATM   21  C           1     -21.424 -10.305   0.290  0.00  0.00     0.089 C 
ENDBRANCH  19  20
ENDBRANCH  18  19
ENDBRANCH  17  18
BRANCH  17  22
HETATM   22  N           1     -22.527  -5.906  -2.141  0.00  0.00    -0.066 N 
HETATM   23  H           1     -22.710  -4.902  -2.360  0.00  0.00     0.275 HD
HETATM   24  H           1     -22.450  -6.030  -1.106  0.00  0.00     0.275 HD
HETATM   25  H           1     -23.315  -6.490  -2.503  0.00  0.00     0.275 HD
ENDBRANCH  17  22
ENDBRANCH   3  17
TORSDOF 12
ENDMDL
MODEL 4
REMARK VINA RESULT:      -5.4     13.942     15.081
REMARK  12 active torsions:
REMARK  status: ('A' for Active; 'I' for Inactive)
REMARK    1  A    between atoms: C_3  and  C_23 
REMARK    2  A    between atoms: C_3  and  S_21 
REMARK    3  A    between atoms: C_6  and  C_15 
REMARK    4  A    between atoms: C_6  and  C_9 
REMARK    5  A    between atoms: C_6  and  N_10 
REMARK       I    between atoms: N_10  and  C_13 
REMARK    6  A    between atoms: C_13  and  C_14 
REMARK    7  A    between atoms: C_14  and  C_23 
REMARK    8  A    between atoms: C_14  and  N_25 
REMARK    9  A    between atoms: C_15  and  C_19 
REMARK   10  A    between atoms: N_16  and  C_17 
REMARK   11  A    between atoms: C_17  and  C_18 
REMARK   12  A    between atoms: C_18  and  C_19 
ROOT
HETATM    1  H           1     -21.966  -6.976  -6.715  0.00  0.00     0.163 HD
HETATM    2  N           1     -21.379  -6.392  -6.135  0.00  0.00    -0.345 N 
HETATM    3  C           1     -20.977  -5.163  -6.584  0.00  0.00     0.249 C 
HETATM    4  O           1     -20.277  -4.465  -5.890  0.00  0.00    -0.271 OA
ENDROOT
BRANCH   2   5
HETATM    5  C           1     -20.962  -6.856  -4.825  0.00  0.00     0.185 C 
BRANCH   5   6
HETATM    6  C           1     -22.102  -6.665  -3.834  0.00  0.00     0.036 C 
BRANCH   6   7
HETATM    7  C           1     -21.557  -6.071  -2.542  0.00  0.00     0.004 C 
BRANCH   7   8
HETATM    8  C           1     -22.219  -6.750  -1.350  0.00  0.00     0.027 C 
BRANCH   8   9
HETATM    9  C           1     -21.380  -7.944  -0.914  0.00  0.00     0.229 C 
BRANCH   9  10
HETATM   10  N           1     -22.087  -9.214  -1.285  0.00  0.00    -0.079 N 
HETATM   11  H           1     -21.500  -9.755  -1.961  0.00  0.00     0.274 HD
HETATM   12  H           1     -23.006  -8.985  -1.725  0.00  0.00     0.274 HD
HETATM   13  H           1     -22.246  -9.788  -0.426  0.00  0.00     0.274 HD
ENDBRANCH   9  10
ENDBRANCH   8   9
ENDBRANCH   7   8
ENDBRANCH   6   7
ENDBRANCH   5   6
BRANCH   5  14
HETATM   14  C           1     -20.601  -8.319  -4.902  0.00  0.00     0.196 C 
HETATM   15  O           1     -21.318  -9.171  -4.331  0.00  0.00    -0.646 OA
HETATM   16  O           1     -19.587  -8.681  -5.535  0.00  0.00    -0.646 OA
ENDBRANCH   5  14
ENDBRANCH   2   5
BRANCH   3  17
HETATM   17  C           1     -21.410  -4.680  -7.946  0.00  0.00     0.275 C 
BRANCH  17  18
HETATM   18  C           1     -20.215  -4.087  -8.679  0.00  0.00     0.053 C 
BRANCH  18  19
HETATM   19  C           1     -20.170  -4.628 -10.101  0.00  0.00     0.076 C 
BRANCH  19  20
HETATM   20  S           1     -21.024  -3.479 -11.216  0.00  0.00    -0.173 SA
HETATM   21  C           1     -22.487  -4.518 -11.491  0.00  0.00     0.089 C 
ENDBRANCH  19  20
ENDBRANCH  18  19
ENDBRANCH  17  18
BRANCH  17  22
HETATM   22  N           1     -22.471  -3.630  -7.790  0.00  0.00    -0.066 N 
HETATM   23  H           1     -23.257  -4.012  -7.219  0.00  0.00     0.275 HD
HETATM   24  H           1     -22.826  -3.351  -8.733  0.00  0.00     0.275 HD
HETATM   25  H           1     -22.066  -2.795  -7.310  0.00  0.00     0.275 HD
ENDBRANCH  17  22
ENDBRANCH   3  17
TORSDOF 12
ENDMDL
MODEL 5
REMARK VINA RESULT:      -5.2      3.629      4.564
REMARK  12 active torsions:
REMARK  status: ('A' for Active; 'I' for Inactive)
REMARK    1  A    between atoms: C_3  and  C_23 
REMARK    2  A    between atoms: C_3  and  S_21 
REMARK    3  A    between atoms: C_6  and  C_15 
REMARK    4  A    between atoms: C_6  and  C_9 
REMARK    5  A    between atoms: C_6  and  N_10 
REMARK       I    between atoms: N_10  and  C_13 
REMARK    6  A    between atoms: C_13  and  C_14 
REMARK    7  A    between atoms: C_14  and  C_23 
REMARK    8  A    between atoms: C_14  and  N_25 
REMARK    9  A    between atoms: C_15  and  C_19 
REMARK   10  A    between atoms: N_16  and  C_17 
REMARK   11  A    between atoms: C_17  and  C_18 
REMARK   12  A    between atoms: C_18  and  C_19 
ROOT
HETATM    1  H           1     -33.851  -0.316 -12.259  0.00  0.00     0.163 HD
HETATM    2  N           1     -34.698  -0.865 -12.325  0.00  0.00    -0.345 N 
HETATM    3  C           1     -35.698  -0.482 -13.178  0.00  0.00     0.249 C 
HETATM    4  O           1     -36.709  -1.138 -13.258  0.00  0.00    -0.271 OA
ENDROOT
BRANCH   2   5
HETATM    5  C           1     -34.852  -2.061 -11.519  0.00  0.00     0.185 C 
BRANCH   5   6
HETATM    6  C           1     -33.510  -2.432 -10.901  0.00  0.00     0.036 C 
BRANCH   6   7
HETATM    7  C           1     -33.059  -3.782 -11.440  0.00  0.00     0.004 C 
BRANCH   7   8
HETATM    8  C           1     -33.757  -4.896 -10.671  0.00  0.00     0.027 C 
BRANCH   8   9
HETATM    9  C           1     -34.539  -5.772 -11.642  0.00  0.00     0.229 C 
BRANCH   9  10
HETATM   10  N           1     -34.653  -7.159 -11.083  0.00  0.00    -0.079 N 
HETATM   11  H           1     -33.915  -7.766 -11.507  0.00  0.00     0.274 HD
HETATM   12  H           1     -35.596  -7.548 -11.307  0.00  0.00     0.274 HD
HETATM   13  H           1     -34.527  -7.129 -10.046  0.00  0.00     0.274 HD
ENDBRANCH   9  10
ENDBRANCH   8   9
ENDBRANCH   7   8
ENDBRANCH   6   7
ENDBRANCH   5   6
BRANCH   5  14
HETATM   14  C           1     -35.857  -1.803 -10.424  0.00  0.00     0.196 C 
HETATM   15  O           1     -36.837  -2.566 -10.282  0.00  0.00    -0.646 OA
HETATM   16  O           1     -35.711  -0.826  -9.659  0.00  0.00    -0.646 OA
ENDBRANCH   5  14
ENDBRANCH   2   5
BRANCH   3  17
HETATM   17  C           1     -35.538   0.762 -14.017  0.00  0.00     0.275 C 
BRANCH  17  18
HETATM   18  C           1     -36.563   0.752 -15.142  0.00  0.00     0.053 C 
BRANCH  18  19
HETATM   19  C           1     -35.897   0.299 -16.434  0.00  0.00     0.076 C 
BRANCH  19  20
HETATM   20  S           1     -36.478  -1.364 -16.867  0.00  0.00    -0.173 SA
HETATM   21  C           1     -34.875  -2.193 -16.673  0.00  0.00     0.089 C 
ENDBRANCH  19  20
ENDBRANCH  18  19
ENDBRANCH  17  18
BRANCH  17  22
HETATM   22  N           1     -34.156   0.796 -14.601  0.00  0.00    -0.066 N 
HETATM   23  H           1     -33.827  -0.180 -14.772  0.00  0.00     0.275 HD
HETATM   24  H           1     -33.508   1.272 -13.933  0.00  0.00     0.275 HD
HETATM   25  H           1     -34.172   1.321 -15.504  0.00  0.00     0.275 HD
ENDBRANCH  17  22
ENDBRANCH   3  17
TORSDOF 12
ENDMDL
MODEL 6
REMARK VINA RESULT:      -5.1     15.136     16.600
REMARK  12 active torsions:
REMARK  status: ('A' for Active; 'I' for Inactive)
REMARK    1  A    between atoms: C_3  and  C_23 
REMARK    2  A    between atoms: C_3  and  S_21 
REMARK    3  A    between atoms: C_6  and  C_15 
REMARK    4  A    between atoms: C_6  and  C_9 
REMARK    5  A    between atoms: C_6  and  N_10 
REMARK       I    between atoms: N_10  and  C_13 
REMARK    6  A    between atoms: C_13  and  C_14 
REMARK    7  A    between atoms: C_14  and  C_23 
REMARK    8  A    between atoms: C_14  and  N_25 
REMARK    9  A    between atoms: C_15  and  C_19 
REMARK   10  A    between atoms: N_16  and  C_17 
REMARK   11  A    between atoms: C_17  and  C_18 
REMARK   12  A    between atoms: C_18  and  C_19 
ROOT
HETATM    1  H           1     -21.335  -8.495  -6.442  0.00  0.00     0.163 HD
HETATM    2  N           1     -20.708  -8.136  -5.735  0.00  0.00    -0.345 N 
HETATM    3  C           1     -19.914  -8.994  -5.023  0.00  0.00     0.249 C 
HETATM    4  O           1     -19.165  -8.565  -4.178  0.00  0.00    -0.271 OA
ENDROOT
BRANCH   2   5
HETATM    5  C           1     -20.648  -6.710  -5.475  0.00  0.00     0.185 C 
BRANCH   5   6
HETATM    6  C           1     -20.675  -5.953  -6.795  0.00  0.00     0.036 C 
BRANCH   6   7
HETATM    7  C           1     -20.304  -4.495  -6.553  0.00  0.00     0.004 C 
BRANCH   7   8
HETATM    8  C           1     -21.358  -3.592  -7.179  0.00  0.00     0.027 C 
BRANCH   8   9
HETATM    9  C           1     -22.232  -4.407  -8.122  0.00  0.00     0.229 C 
BRANCH   9  10
HETATM   10  N           1     -23.675  -4.079  -7.877  0.00  0.00    -0.079 N 
HETATM   11  H           1     -24.018  -3.437  -8.628  0.00  0.00     0.274 HD
HETATM   12  H           1     -23.773  -3.613  -6.948  0.00  0.00     0.274 HD
HETATM   13  H           1     -24.240  -4.958  -7.886  0.00  0.00     0.274 HD
ENDBRANCH   9  10
ENDBRANCH   8   9
ENDBRANCH   7   8
ENDBRANCH   6   7
ENDBRANCH   5   6
BRANCH   5  14
HETATM   14  C           1     -21.834  -6.302  -4.636  0.00  0.00     0.196 C 
HETATM   15  O           1     -22.974  -6.251  -5.148  0.00  0.00    -0.646 OA
HETATM   16  O           1     -21.678  -6.014  -3.430  0.00  0.00    -0.646 OA
ENDBRANCH   5  14
ENDBRANCH   2   5
BRANCH   3  17
HETATM   17  C           1     -19.976 -10.478  -5.293  0.00  0.00     0.275 C 
BRANCH  17  18
HETATM   18  C           1     -18.650 -10.944  -5.876  0.00  0.00     0.053 C 
BRANCH  18  19
HETATM   19  C           1     -17.970 -11.893  -4.899  0.00  0.00     0.076 C 
BRANCH  19  20
HETATM   20  S           1     -16.455 -11.126  -4.260  0.00  0.00    -0.173 SA
HETATM   21  C           1     -16.199  -9.996  -5.658  0.00  0.00     0.089 C 
ENDBRANCH  19  20
ENDBRANCH  18  19
ENDBRANCH  17  18
BRANCH  17  22
HETATM   22  N           1     -21.078 -10.761  -6.271  0.00  0.00    -0.066 N 
HETATM   23  H           1     -21.994 -10.481  -5.855  0.00  0.00     0.275 HD
HETATM   24  H           1     -21.093 -11.783  -6.493  0.00  0.00     0.275 HD
HETATM   25  H           1     -20.914 -10.217  -7.148  0.00  0.00     0.275 HD
ENDBRANCH  17  22
ENDBRANCH   3  17
TORSDOF 12
ENDMDL
MODEL 7
REMARK VINA RESULT:      -5.0      4.035      5.009
REMARK  12 active torsions:
REMARK  status: ('A' for Active; 'I' for Inactive)
REMARK    1  A    between atoms: C_3  and  C_23 
REMARK    2  A    between atoms: C_3  and  S_21 
REMARK    3  A    between atoms: C_6  and  C_15 
REMARK    4  A    between atoms: C_6  and  C_9 
REMARK    5  A    between atoms: C_6  and  N_10 
REMARK       I    between atoms: N_10  and  C_13 
REMARK    6  A    between atoms: C_13  and  C_14 
REMARK    7  A    between atoms: C_14  and  C_23 
REMARK    8  A    between atoms: C_14  and  N_25 
REMARK    9  A    between atoms: C_15  and  C_19 
REMARK   10  A    between atoms: N_16  and  C_17 
REMARK   11  A    between atoms: C_17  and  C_18 
REMARK   12  A    between atoms: C_18  and  C_19 
ROOT
HETATM    1  H           1     -34.617  -1.512 -13.356  0.00  0.00     0.163 HD
HETATM    2  N           1     -35.122  -1.767 -12.518  0.00  0.00    -0.345 N 
HETATM    3  C           1     -36.192  -1.019 -12.108  0.00  0.00     0.249 C 
HETATM    4  O           1     -36.796  -1.324 -11.107  0.00  0.00    -0.271 OA
ENDROOT
BRANCH   2   5
HETATM    5  C           1     -34.713  -2.927 -11.750  0.00  0.00     0.185 C 
BRANCH   5   6
HETATM    6  C           1     -34.383  -4.072 -12.698  0.00  0.00     0.036 C 
BRANCH   6   7
HETATM    7  C           1     -34.961  -5.370 -12.148  0.00  0.00     0.004 C 
BRANCH   7   8
HETATM    8  C           1     -34.332  -5.672 -10.794  0.00  0.00     0.027 C 
BRANCH   8   9
HETATM    9  C           1     -34.243  -7.181 -10.600  0.00  0.00     0.229 C 
BRANCH   9  10
HETATM   10  N           1     -35.190  -7.603  -9.517  0.00  0.00    -0.079 N 
HETATM   11  H           1     -34.970  -7.080  -8.639  0.00  0.00     0.274 HD
HETATM   12  H           1     -35.089  -8.628  -9.346  0.00  0.00     0.274 HD
HETATM   13  H           1     -36.171  -7.394  -9.810  0.00  0.00     0.274 HD
ENDBRANCH   9  10
ENDBRANCH   8   9
ENDBRANCH   7   8
ENDBRANCH   6   7
ENDBRANCH   5   6
BRANCH   5  14
HETATM   14  C           1     -33.493  -2.584 -10.931  0.00  0.00     0.196 C 
HETATM   15  O           1     -32.381  -3.067 -11.234  0.00  0.00    -0.646 OA
HETATM   16  O           1     -33.594  -1.818  -9.949  0.00  0.00    -0.646 OA
ENDBRANCH   5  14
ENDBRANCH   2   5
BRANCH   3  17
HETATM   17  C           1     -36.618   0.189 -12.907  0.00  0.00     0.275 C 
BRANCH  17  18
HETATM   18  C           1     -37.696  -0.215 -13.903  0.00  0.00     0.053 C 
BRANCH  18  19
HETATM   19  C           1     -37.359   0.351 -15.276  0.00  0.00     0.076 C 
BRANCH  19  20
HETATM   20  S           1     -37.362  -0.987 -16.502  0.00  0.00    -0.173 SA
HETATM   21  C           1     -35.561  -1.202 -16.568  0.00  0.00     0.089 C 
ENDBRANCH  19  20
ENDBRANCH  18  19
ENDBRANCH  17  18
BRANCH  17  22
HETATM   22  N           1     -35.435   0.739 -13.648  0.00  0.00    -0.066 N 
HETATM   23  H           1     -35.645   1.711 -13.966  0.00  0.00     0.275 HD
HETATM   24  H           1     -35.232   0.136 -14.477  0.00  0.00     0.275 HD
HETATM   25  H           1     -34.603   0.751 -13.016  0.00  0.00     0.275 HD
ENDBRANCH  17  22
ENDBRANCH   3  17
TORSDOF 12
ENDMDL
MODEL 8
REMARK VINA RESULT:      -5.0     14.838     16.002
REMARK  12 active torsions:
REMARK  status: ('A' for Active; 'I' for Inactive)
REMARK    1  A    between atoms: C_3  and  C_23 
REMARK    2  A    between atoms: C_3  and  S_21 
REMARK    3  A    between atoms: C_6  and  C_15 
REMARK    4  A    between atoms: C_6  and  C_9 
REMARK    5  A    between atoms: C_6  and  N_10 
REMARK       I    between atoms: N_10  and  C_13 
REMARK    6  A    between atoms: C_13  and  C_14 
REMARK    7  A    between atoms: C_14  and  C_23 
REMARK    8  A    between atoms: C_14  and  N_25 
REMARK    9  A    between atoms: C_15  and  C_19 
REMARK   10  A    between atoms: N_16  and  C_17 
REMARK   11  A    between atoms: C_17  and  C_18 
REMARK   12  A    between atoms: C_18  and  C_19 
ROOT
HETATM    1  H           1     -19.798  -6.841  -4.711  0.00  0.00     0.163 HD
HETATM    2  N           1     -20.806  -6.747  -4.720  0.00  0.00    -0.345 N 
HETATM    3  C           1     -21.404  -5.869  -5.584  0.00  0.00     0.249 C 
HETATM    4  O           1     -22.607  -5.758  -5.595  0.00  0.00    -0.271 OA
ENDROOT
BRANCH   2   5
HETATM    5  C           1     -21.616  -7.544  -3.820  0.00  0.00     0.185 C 
BRANCH   5   6
HETATM    6  C           1     -21.025  -8.943  -3.709  0.00  0.00     0.036 C 
BRANCH   6   7
HETATM    7  C           1     -19.621  -8.950  -4.299  0.00  0.00     0.004 C 
BRANCH   7   8
HETATM    8  C           1     -18.615  -9.313  -3.215  0.00  0.00     0.027 C 
BRANCH   8   9
HETATM    9  C           1     -17.284  -9.679  -3.858  0.00  0.00     0.229 C 
BRANCH   9  10
HETATM   10  N           1     -16.175  -9.458  -2.873  0.00  0.00    -0.079 N 
HETATM   11  H           1     -15.499  -8.761  -3.261  0.00  0.00     0.274 HD
HETATM   12  H           1     -15.682 -10.361  -2.695  0.00  0.00     0.274 HD
HETATM   13  H           1     -16.572  -9.096  -1.976  0.00  0.00     0.274 HD
ENDBRANCH   9  10
ENDBRANCH   8   9
ENDBRANCH   7   8
ENDBRANCH   6   7
ENDBRANCH   5   6
BRANCH   5  14
HETATM   14  C           1     -21.638  -6.897  -2.457  0.00  0.00     0.196 C 
HETATM   15  O           1     -20.966  -7.385  -1.522  0.00  0.00    -0.646 OA
HETATM   16  O           1     -22.328  -5.874  -2.261  0.00  0.00    -0.646 OA
ENDBRANCH   5  14
ENDBRANCH   2   5
BRANCH   3  17
HETATM   17  C           1     -20.560  -5.040  -6.521  0.00  0.00     0.275 C 
BRANCH  17  18
HETATM   18  C           1     -21.416  -3.943  -7.138  0.00  0.00     0.053 C 
BRANCH  18  19
HETATM   19  C           1     -21.733  -4.297  -8.584  0.00  0.00     0.076 C 
BRANCH  19  20
HETATM   20  S           1     -23.497  -4.014  -8.906  0.00  0.00    -0.173 SA
HETATM   21  C           1     -23.546  -4.864 -10.509  0.00  0.00     0.089 C 
ENDBRANCH  19  20
ENDBRANCH  18  19
ENDBRANCH  17  18
BRANCH  17  22
HETATM   22  N           1     -20.014  -5.918  -7.608  0.00  0.00    -0.066 N 
HETATM   23  H           1     -20.729  -6.630  -7.874  0.00  0.00     0.275 HD
HETATM   24  H           1     -19.151  -6.399  -7.266  0.00  0.00     0.275 HD
HETATM   25  H           1     -19.778  -5.334  -8.442  0.00  0.00     0.275 HD
ENDBRANCH  17  22
ENDBRANCH   3  17
TORSDOF 12
ENDMDL
MODEL 9
REMARK VINA RESULT:      -4.9      3.821      5.499
REMARK  12 active torsions:
REMARK  status: ('A' for Active; 'I' for Inactive)
REMARK    1  A    between atoms: C_3  and  C_23 
REMARK    2  A    between atoms: C_3  and  S_21 
REMARK    3  A    between atoms: C_6  and  C_15 
REMARK    4  A    between atoms: C_6  and  C_9 
REMARK    5  A    between atoms: C_6  and  N_10 
REMARK       I    between atoms: N_10  and  C_13 
REMARK    6  A    between atoms: C_13  and  C_14 
REMARK    7  A    between atoms: C_14  and  C_23 
REMARK    8  A    between atoms: C_14  and  N_25 
REMARK    9  A    between atoms: C_15  and  C_19 
REMARK   10  A    between atoms: N_16  and  C_17 
REMARK   11  A    between atoms: C_17  and  C_18 
REMARK   12  A    between atoms: C_18  and  C_19 
ROOT
HETATM    1  H           1     -34.267  -1.621 -12.020  0.00  0.00     0.163 HD
HETATM    2  N           1     -34.785  -2.413 -11.663  0.00  0.00    -0.345 N 
HETATM    3  C           1     -35.981  -2.218 -11.025  0.00  0.00     0.249 C 
HETATM    4  O           1     -36.599  -3.164 -10.599  0.00  0.00    -0.271 OA
ENDROOT
BRANCH   2   5
HETATM    5  C           1     -34.262  -3.755 -11.827  0.00  0.00     0.185 C 
BRANCH   5   6
HETATM    6  C           1     -34.937  -4.688 -10.831  0.00  0.00     0.036 C 
BRANCH   6   7
HETATM    7  C           1     -33.948  -5.755 -10.382  0.00  0.00     0.004 C 
BRANCH   7   8
HETATM    8  C           1     -34.696  -6.879  -9.678  0.00  0.00     0.027 C 
BRANCH   8   9
HETATM    9  C           1     -34.642  -8.139 -10.531  0.00  0.00     0.229 C 
BRANCH   9  10
HETATM   10  N           1     -33.477  -8.982 -10.105  0.00  0.00    -0.079 N 
HETATM   11  H           1     -33.371  -9.787 -10.764  0.00  0.00     0.274 HD
HETATM   12  H           1     -33.642  -9.341  -9.139  0.00  0.00     0.274 HD
HETATM   13  H           1     -32.606  -8.405 -10.118  0.00  0.00     0.274 HD
ENDBRANCH   9  10
ENDBRANCH   8   9
ENDBRANCH   7   8
ENDBRANCH   6   7
ENDBRANCH   5   6
BRANCH   5  14
HETATM   14  C           1     -34.535  -4.234 -13.231  0.00  0.00     0.196 C 
HETATM   15  O           1     -34.210  -3.524 -14.208  0.00  0.00    -0.646 OA
HETATM   16  O           1     -35.087  -5.339 -13.419  0.00  0.00    -0.646 OA
ENDBRANCH   5  14
ENDBRANCH   2   5
BRANCH   3  17
HETATM   17  C           1     -36.525  -0.821 -10.854  0.00  0.00     0.275 C 
BRANCH  17  18
HETATM   18  C           1     -36.066   0.048 -12.016  0.00  0.00     0.053 C 
BRANCH  18  19
HETATM   19  C           1     -37.049  -0.085 -13.171  0.00  0.00     0.076 C 
BRANCH  19  20
HETATM   20  S           1     -36.143  -0.084 -14.743  0.00  0.00    -0.173 SA
HETATM   21  C           1     -37.599  -0.260 -15.813  0.00  0.00     0.089 C 
ENDBRANCH  19  20
ENDBRANCH  18  19
ENDBRANCH  17  18
BRANCH  17  22
HETATM   22  N           1     -36.019  -0.242  -9.567  0.00  0.00    -0.066 N 
HETATM   23  H           1     -36.761   0.353  -9.136  0.00  0.00     0.275 HD
HETATM   24  H           1     -35.171   0.339  -9.756  0.00  0.00     0.275 HD
HETATM   25  H           1     -35.769  -1.016  -8.910  0.00  0.00     0.275 HD
ENDBRANCH  17  22
ENDBRANCH   3  17
TORSDOF 12
ENDMDL
