MODEL 1
REMARK VINA RESULT:      -8.1      0.000      0.000
REMARK  11 active torsions:
REMARK  status: ('A' for Active; 'I' for Inactive)
REMARK    1  A    between atoms: C_1  and  C_2 
REMARK    2  A    between atoms: C_2  and  C_3 
REMARK    3  A    between atoms: C_3  and  C_27 
REMARK    4  A    between atoms: C_3  and  N_4 
REMARK       I    between atoms: N_4  and  C_22 
REMARK    5  A    between atoms: O_8  and  P_9 
REMARK    6  A    between atoms: P_9  and  O_10 
REMARK    7  A    between atoms: O_10  and  C_23 
REMARK    8  A    between atoms: N_14  and  C_30 
REMARK    9  A    between atoms: C_22  and  C_30 
REMARK   10  A    between atoms: C_30  and  C_31 
REMARK   11  A    between atoms: C_31  and  C_32 
ROOT
HETATM    1  C           1     -32.493  -4.341 -16.222  0.00  0.00     0.189 C 
ENDROOT
BRANCH   1   2
HETATM    2  C           1     -31.965  -5.626 -16.845  0.00  0.00     0.074 C 
BRANCH   2   3
HETATM    3  C           1     -30.468  -5.609 -16.829  0.00  0.00    -0.056 A 
HETATM    4  C           1     -29.754  -5.977 -17.969  0.00  0.00     0.010 A 
HETATM    5  C           1     -28.359  -5.962 -17.954  0.00  0.00     0.038 A 
HETATM    6  C           1     -27.679  -5.577 -16.799  0.00  0.00     0.081 A 
HETATM    7  C           1     -28.392  -5.209 -15.658  0.00  0.00     0.038 A 
HETATM    8  C           1     -29.788  -5.225 -15.674  0.00  0.00     0.010 A 
BRANCH   6   9
HETATM    9  O           1     -26.324  -5.562 -16.784  0.00  0.00    -0.247 OA
BRANCH   9  10
HETATM   10  P           1     -25.563  -6.691 -15.915  0.00  0.00     0.411 P 
HETATM   11  O           1     -26.551  -7.664 -15.397  0.00  0.00    -0.624 OA
HETATM   12  O           1     -24.580  -7.394 -16.769  0.00  0.00    -0.624 OA
BRANCH  10  13
HETATM   13  O           1     -24.796  -5.990 -14.678  0.00  0.00    -0.300 OA
HETATM   14  H           1     -25.479  -5.609 -14.151  0.00  0.00     0.223 HD
ENDBRANCH  10  13
ENDBRANCH   9  10
ENDBRANCH   6   9
ENDBRANCH   2   3
ENDBRANCH   1   2
BRANCH   1  15
HETATM   15  C           1     -32.647  -3.288 -17.293  0.00  0.00     0.197 C 
HETATM   16  O           1     -31.670  -2.979 -18.008  0.00  0.00    -0.646 OA
HETATM   17  O           1     -33.750  -2.727 -17.465  0.00  0.00    -0.646 OA
ENDBRANCH   1  15
BRANCH   1  18
HETATM   18  N           1     -33.783  -4.597 -15.609  0.00  0.00    -0.344 N 
HETATM   19  C           1     -34.064  -4.089 -14.369  0.00  0.00     0.249 C 
HETATM   20  O           1     -34.570  -2.997 -14.263  0.00  0.00    -0.271 OA
HETATM   21  H           1     -34.475  -5.150 -16.098  0.00  0.00     0.163 HD
BRANCH  19  22
HETATM   22  C           1     -33.743  -4.894 -13.134  0.00  0.00     0.280 C 
BRANCH  22  23
HETATM   23  N           1     -32.457  -4.401 -12.538  0.00  0.00    -0.066 N 
HETATM   24  H           1     -32.257  -3.438 -12.891  0.00  0.00     0.275 HD
HETATM   25  H           1     -31.678  -5.041 -12.814  0.00  0.00     0.275 HD
HETATM   26  H           1     -32.540  -4.382 -11.496  0.00  0.00     0.275 HD
ENDBRANCH  22  23
BRANCH  22  27
HETATM   27  C           1     -34.865  -4.735 -12.117  0.00  0.00     0.101 C 
BRANCH  27  28
HETATM   28  C           1     -34.852  -5.897 -11.173  0.00  0.00     0.028 A 
HETATM   29  N           1     -34.902  -7.212 -11.555  0.00  0.00    -0.355 N 
HETATM   30  C           1     -34.870  -7.899 -10.437  0.00  0.00     0.180 A 
ATOM     31  HN          1     -34.953  -7.578 -12.506  1.00  0.00     0.166 HD
HETATM   32  N           1     -34.801  -7.079  -9.347  0.00  0.00    -0.360 N 
HETATM   33  H           1     -34.765  -7.381  -8.342  0.00  0.00     0.166 HD
HETATM   34  C           1     -34.790  -5.790  -9.804  0.00  0.00     0.114 A 
ENDBRANCH  27  28
ENDBRANCH  22  27
ENDBRANCH  19  22
ENDBRANCH   1  18
TORSDOF 11
ENDMDL
MODEL 2
REMARK VINA RESULT:      -7.4     12.127     14.392
REMARK  11 active torsions:
REMARK  status: ('A' for Active; 'I' for Inactive)
REMARK    1  A    between atoms: C_1  and  C_2 
REMARK    2  A    between atoms: C_2  and  C_3 
REMARK    3  A    between atoms: C_3  and  C_27 
REMARK    4  A    between atoms: C_3  and  N_4 
REMARK       I    between atoms: N_4  and  C_22 
REMARK    5  A    between atoms: O_8  and  P_9 
REMARK    6  A    between atoms: P_9  and  O_10 
REMARK    7  A    between atoms: O_10  and  C_23 
REMARK    8  A    between atoms: N_14  and  C_30 
REMARK    9  A    between atoms: C_22  and  C_30 
REMARK   10  A    between atoms: C_30  and  C_31 
REMARK   11  A    between atoms: C_31  and  C_32 
ROOT
HETATM    1  C           1     -20.518  -7.509  -5.711  0.00  0.00     0.189 C 
ENDROOT
BRANCH   1   2
HETATM    2  C           1     -20.201  -6.020  -5.665  0.00  0.00     0.074 C 
BRANCH   2   3
HETATM    3  C           1     -20.781  -5.350  -6.872  0.00  0.00    -0.056 A 
HETATM    4  C           1     -22.001  -4.682  -6.781  0.00  0.00     0.010 A 
HETATM    5  C           1     -22.542  -4.058  -7.905  0.00  0.00     0.038 A 
HETATM    6  C           1     -21.860  -4.101  -9.121  0.00  0.00     0.081 A 
HETATM    7  C           1     -20.639  -4.769  -9.213  0.00  0.00     0.038 A 
HETATM    8  C           1     -20.099  -5.394  -8.088  0.00  0.00     0.010 A 
BRANCH   6   9
HETATM    9  O           1     -22.385  -3.496 -10.214  0.00  0.00    -0.247 OA
BRANCH   9  10
HETATM   10  P           1     -23.615  -4.224 -10.966  0.00  0.00     0.411 P 
HETATM   11  O           1     -23.967  -5.468 -10.247  0.00  0.00    -0.624 OA
HETATM   12  O           1     -24.786  -3.319 -10.989  0.00  0.00    -0.624 OA
BRANCH  10  13
HETATM   13  O           1     -23.182  -4.580 -12.481  0.00  0.00    -0.300 OA
HETATM   14  H           1     -23.692  -5.339 -12.709  0.00  0.00     0.223 HD
ENDBRANCH  10  13
ENDBRANCH   9  10
ENDBRANCH   6   9
ENDBRANCH   2   3
ENDBRANCH   1   2
BRANCH   1  15
HETATM   15  C           1     -19.244  -8.300  -5.533  0.00  0.00     0.197 C 
HETATM   16  O           1     -18.988  -8.831  -4.432  0.00  0.00    -0.646 OA
HETATM   17  O           1     -18.446  -8.423  -6.488  0.00  0.00    -0.646 OA
ENDBRANCH   1  15
BRANCH   1  18
HETATM   18  N           1     -21.443  -7.839  -4.644  0.00  0.00    -0.344 N 
HETATM   19  C           1     -22.000  -6.842  -3.890  0.00  0.00     0.249 C 
HETATM   20  O           1     -23.044  -6.337  -4.229  0.00  0.00    -0.271 OA
HETATM   21  H           1     -21.677  -8.805  -4.458  0.00  0.00     0.163 HD
BRANCH  19  22
HETATM   22  C           1     -21.310  -6.373  -2.632  0.00  0.00     0.280 C 
BRANCH  22  23
HETATM   23  N           1     -22.304  -5.681  -1.746  0.00  0.00    -0.066 N 
HETATM   24  H           1     -22.278  -6.109  -0.793  0.00  0.00     0.275 HD
HETATM   25  H           1     -23.262  -5.789  -2.149  0.00  0.00     0.275 HD
HETATM   26  H           1     -22.066  -4.666  -1.680  0.00  0.00     0.275 HD
ENDBRANCH  22  23
BRANCH  22  27
HETATM   27  C           1     -20.724  -7.571  -1.897  0.00  0.00     0.101 C 
BRANCH  27  28
HETATM   28  C           1     -21.766  -8.161  -0.996  0.00  0.00     0.028 A 
HETATM   29  N           1     -22.226  -7.573   0.152  0.00  0.00    -0.355 N 
HETATM   30  C           1     -23.119  -8.406   0.635  0.00  0.00     0.180 A 
ATOM     31  HN          1     -21.937  -6.678   0.549  1.00  0.00     0.166 HD
HETATM   32  N           1     -23.253  -9.510  -0.159  0.00  0.00    -0.360 N 
HETATM   33  H           1     -23.898 -10.322   0.008  0.00  0.00     0.166 HD
HETATM   34  C           1     -22.390  -9.367  -1.210  0.00  0.00     0.114 A 
ENDBRANCH  27  28
ENDBRANCH  22  27
ENDBRANCH  19  22
ENDBRANCH   1  18
TORSDOF 11
ENDMDL
MODEL 3
REMARK VINA RESULT:      -7.3     12.386     14.587
REMARK  11 active torsions:
REMARK  status: ('A' for Active; 'I' for Inactive)
REMARK    1  A    between atoms: C_1  and  C_2 
REMARK    2  A    between atoms: C_2  and  C_3 
REMARK    3  A    between atoms: C_3  and  C_27 
REMARK    4  A    between atoms: C_3  and  N_4 
REMARK       I    between atoms: N_4  and  C_22 
REMARK    5  A    between atoms: O_8  and  P_9 
REMARK    6  A    between atoms: P_9  and  O_10 
REMARK    7  A    between atoms: O_10  and  C_23 
REMARK    8  A    between atoms: N_14  and  C_30 
REMARK    9  A    between atoms: C_22  and  C_30 
REMARK   10  A    between atoms: C_30  and  C_31 
REMARK   11  A    between atoms: C_31  and  C_32 
ROOT
HETATM    1  C           1     -21.290  -7.898  -5.416  0.00  0.00     0.189 C 
ENDROOT
BRANCH   1   2
HETATM    2  C           1     -20.516  -6.588  -5.498  0.00  0.00     0.074 C 
BRANCH   2   3
HETATM    3  C           1     -21.070  -5.750  -6.607  0.00  0.00    -0.056 A 
HETATM    4  C           1     -20.324  -5.544  -7.767  0.00  0.00     0.010 A 
HETATM    5  C           1     -20.841  -4.761  -8.800  0.00  0.00     0.038 A 
HETATM    6  C           1     -22.106  -4.187  -8.673  0.00  0.00     0.081 A 
HETATM    7  C           1     -22.853  -4.393  -7.514  0.00  0.00     0.038 A 
HETATM    8  C           1     -22.335  -5.175  -6.480  0.00  0.00     0.010 A 
BRANCH   6   9
HETATM    9  O           1     -22.608  -3.427  -9.677  0.00  0.00    -0.247 OA
BRANCH   9  10
HETATM   10  P           1     -23.585  -4.137 -10.749  0.00  0.00     0.411 P 
HETATM   11  O           1     -24.026  -5.448 -10.223  0.00  0.00    -0.624 OA
HETATM   12  O           1     -24.767  -3.279 -10.987  0.00  0.00    -0.624 OA
BRANCH  10  13
HETATM   13  O           1     -22.790  -4.353 -12.139  0.00  0.00    -0.300 OA
HETATM   14  H           1     -21.879  -4.261 -11.916  0.00  0.00     0.223 HD
ENDBRANCH  10  13
ENDBRANCH   9  10
ENDBRANCH   6   9
ENDBRANCH   2   3
ENDBRANCH   1   2
BRANCH   1  15
HETATM   15  C           1     -20.344  -9.055  -5.625  0.00  0.00     0.197 C 
HETATM   16  O           1     -19.109  -8.858  -5.641  0.00  0.00    -0.646 OA
HETATM   17  O           1     -20.795 -10.211  -5.782  0.00  0.00    -0.646 OA
ENDBRANCH   1  15
BRANCH   1  18
HETATM   18  N           1     -21.909  -8.011  -4.110  0.00  0.00    -0.344 N 
HETATM   19  C           1     -21.150  -7.873  -2.979  0.00  0.00     0.249 C 
HETATM   20  O           1     -21.001  -6.784  -2.479  0.00  0.00    -0.271 OA
HETATM   21  H           1     -22.902  -8.190  -4.034  0.00  0.00     0.163 HD
BRANCH  19  22
HETATM   22  C           1     -20.501  -9.085  -2.355  0.00  0.00     0.280 C 
BRANCH  22  23
HETATM   23  N           1     -19.009  -8.966  -2.472  0.00  0.00    -0.066 N 
HETATM   24  H           1     -18.702  -8.048  -2.080  0.00  0.00     0.275 HD
HETATM   25  H           1     -18.734  -9.024  -3.479  0.00  0.00     0.275 HD
HETATM   26  H           1     -18.555  -9.743  -1.941  0.00  0.00     0.275 HD
ENDBRANCH  22  23
BRANCH  22  27
HETATM   27  C           1     -20.888  -9.168  -0.885  0.00  0.00     0.101 C 
BRANCH  27  28
HETATM   28  C           1     -22.159  -9.948  -0.747  0.00  0.00     0.028 A 
HETATM   29  N           1     -22.438 -11.107  -1.422  0.00  0.00    -0.355 N 
HETATM   30  C           1     -23.637 -11.462  -1.020  0.00  0.00     0.180 A 
ATOM     31  HN          1     -21.842 -11.592  -2.093  1.00  0.00     0.166 HD
HETATM   32  N           1     -24.142 -10.576  -0.111  0.00  0.00    -0.360 N 
HETATM   33  H           1     -25.080 -10.634   0.358  0.00  0.00     0.166 HD
HETATM   34  C           1     -23.205  -9.598   0.074  0.00  0.00     0.114 A 
ENDBRANCH  27  28
ENDBRANCH  22  27
ENDBRANCH  19  22
ENDBRANCH   1  18
TORSDOF 11
ENDMDL
MODEL 4
REMARK VINA RESULT:      -7.3     12.833     14.988
REMARK  11 active torsions:
REMARK  status: ('A' for Active; 'I' for Inactive)
REMARK    1  A    between atoms: C_1  and  C_2 
REMARK    2  A    between atoms: C_2  and  C_3 
REMARK    3  A    between atoms: C_3  and  C_27 
REMARK    4  A    between atoms: C_3  and  N_4 
REMARK       I    between atoms: N_4  and  C_22 
REMARK    5  A    between atoms: O_8  and  P_9 
REMARK    6  A    between atoms: P_9  and  O_10 
REMARK    7  A    between atoms: O_10  and  C_23 
REMARK    8  A    between atoms: N_14  and  C_30 
REMARK    9  A    between atoms: C_22  and  C_30 
REMARK   10  A    between atoms: C_30  and  C_31 
REMARK   11  A    between atoms: C_31  and  C_32 
ROOT
HETATM    1  C           1     -21.050  -7.871  -5.483  0.00  0.00     0.189 C 
ENDROOT
BRANCH   1   2
HETATM    2  C           1     -20.372  -6.507  -5.509  0.00  0.00     0.074 C 
BRANCH   2   3
HETATM    3  C           1     -20.951  -5.683  -6.617  0.00  0.00    -0.056 A 
HETATM    4  C           1     -20.234  -5.500  -7.799  0.00  0.00     0.010 A 
HETATM    5  C           1     -20.773  -4.731  -8.831  0.00  0.00     0.038 A 
HETATM    6  C           1     -22.032  -4.148  -8.681  0.00  0.00     0.081 A 
HETATM    7  C           1     -22.749  -4.332  -7.500  0.00  0.00     0.038 A 
HETATM    8  C           1     -22.209  -5.100  -6.467  0.00  0.00     0.010 A 
BRANCH   6   9
HETATM    9  O           1     -22.556  -3.402  -9.683  0.00  0.00    -0.247 OA
BRANCH   9  10
HETATM   10  P           1     -23.584  -4.117 -10.703  0.00  0.00     0.411 P 
HETATM   11  O           1     -22.936  -4.279 -12.024  0.00  0.00    -0.624 OA
HETATM   12  O           1     -23.962  -5.447 -10.174  0.00  0.00    -0.624 OA
BRANCH  10  13
HETATM   13  O           1     -24.907  -3.205 -10.859  0.00  0.00    -0.300 OA
HETATM   14  H           1     -25.107  -3.220 -11.780  0.00  0.00     0.223 HD
ENDBRANCH  10  13
ENDBRANCH   9  10
ENDBRANCH   6   9
ENDBRANCH   2   3
ENDBRANCH   1   2
BRANCH   1  15
HETATM   15  C           1     -20.020  -8.940  -5.208  0.00  0.00     0.197 C 
HETATM   16  O           1     -18.931  -8.635  -4.676  0.00  0.00    -0.646 OA
HETATM   17  O           1     -20.257 -10.129  -5.513  0.00  0.00    -0.646 OA
ENDBRANCH   1  15
BRANCH   1  18
HETATM   18  N           1     -22.055  -7.889  -4.438  0.00  0.00    -0.344 N 
HETATM   19  C           1     -21.821  -7.249  -3.252  0.00  0.00     0.249 C 
HETATM   20  O           1     -22.137  -6.090  -3.116  0.00  0.00    -0.271 OA
HETATM   21  H           1     -22.931  -8.375  -4.587  0.00  0.00     0.163 HD
BRANCH  19  22
HETATM   22  C           1     -21.168  -7.990  -2.111  0.00  0.00     0.280 C 
BRANCH  22  23
HETATM   23  N           1     -21.592  -7.376  -0.809  0.00  0.00    -0.066 N 
HETATM   24  H           1     -21.783  -6.358  -0.951  0.00  0.00     0.275 HD
HETATM   25  H           1     -20.829  -7.492  -0.105  0.00  0.00     0.275 HD
HETATM   26  H           1     -22.458  -7.849  -0.466  0.00  0.00     0.275 HD
ENDBRANCH  22  23
BRANCH  22  27
HETATM   27  C           1     -21.595  -9.451  -2.144  0.00  0.00     0.101 C 
BRANCH  27  28
HETATM   28  C           1     -20.472 -10.311  -1.651  0.00  0.00     0.028 A 
HETATM   29  N           1     -19.396 -10.697  -2.407  0.00  0.00    -0.355 N 
HETATM   30  C           1     -18.656 -11.431  -1.609  0.00  0.00     0.180 A 
ATOM     31  HN          1     -19.210 -10.463  -3.383  1.00  0.00     0.166 HD
HETATM   32  N           1     -19.213 -11.534  -0.366  0.00  0.00    -0.360 N 
HETATM   33  H           1     -18.819 -12.066   0.449  0.00  0.00     0.166 HD
HETATM   34  C           1     -20.379 -10.821  -0.378  0.00  0.00     0.114 A 
ENDBRANCH  27  28
ENDBRANCH  22  27
ENDBRANCH  19  22
ENDBRANCH   1  18
TORSDOF 11
ENDMDL
MODEL 5
REMARK VINA RESULT:      -7.2      1.521      2.348
REMARK  11 active torsions:
REMARK  status: ('A' for Active; 'I' for Inactive)
REMARK    1  A    between atoms: C_1  and  C_2 
REMARK    2  A    between atoms: C_2  and  C_3 
REMARK    3  A    between atoms: C_3  and  C_27 
REMARK    4  A    between atoms: C_3  and  N_4 
REMARK       I    between atoms: N_4  and  C_22 
REMARK    5  A    between atoms: O_8  and  P_9 
REMARK    6  A    between atoms: P_9  and  O_10 
REMARK    7  A    between atoms: O_10  and  C_23 
REMARK    8  A    between atoms: N_14  and  C_30 
REMARK    9  A    between atoms: C_22  and  C_30 
REMARK   10  A    between atoms: C_30  and  C_31 
REMARK   11  A    between atoms: C_31  and  C_32 
ROOT
HETATM    1  C           1     -32.438  -4.545 -16.424  0.00  0.00     0.189 C 
ENDROOT
BRANCH   1   2
HETATM    2  C           1     -31.964  -5.819 -17.112  0.00  0.00     0.074 C 
BRANCH   2   3
HETATM    3  C           1     -30.468  -5.838 -17.149  0.00  0.00    -0.056 A 
HETATM    4  C           1     -29.803  -6.384 -18.246  0.00  0.00     0.010 A 
HETATM    5  C           1     -28.409  -6.404 -18.280  0.00  0.00     0.038 A 
HETATM    6  C           1     -27.679  -5.874 -17.216  0.00  0.00     0.081 A 
HETATM    7  C           1     -28.343  -5.327 -16.118  0.00  0.00     0.038 A 
HETATM    8  C           1     -29.738  -5.309 -16.084  0.00  0.00     0.010 A 
BRANCH   6   9
HETATM    9  O           1     -26.325  -5.892 -17.248  0.00  0.00    -0.247 OA
BRANCH   9  10
HETATM   10  P           1     -25.550  -6.731 -16.106  0.00  0.00     0.411 P 
HETATM   11  O           1     -24.831  -5.797 -15.211  0.00  0.00    -0.624 OA
HETATM   12  O           1     -26.529  -7.513 -15.317  0.00  0.00    -0.624 OA
BRANCH  10  13
HETATM   13  O           1     -24.493  -7.735 -16.800  0.00  0.00    -0.300 OA
HETATM   14  H           1     -24.803  -8.600 -16.588  0.00  0.00     0.223 HD
ENDBRANCH  10  13
ENDBRANCH   9  10
ENDBRANCH   6   9
ENDBRANCH   2   3
ENDBRANCH   1   2
BRANCH   1  15
HETATM   15  C           1     -32.486  -3.419 -17.427  0.00  0.00     0.197 C 
HETATM   16  O           1     -33.558  -2.809 -17.631  0.00  0.00    -0.646 OA
HETATM   17  O           1     -31.454  -3.095 -18.054  0.00  0.00    -0.646 OA
ENDBRANCH   1  15
BRANCH   1  18
HETATM   18  N           1     -33.763  -4.759 -15.874  0.00  0.00    -0.344 N 
HETATM   19  C           1     -34.123  -4.156 -14.699  0.00  0.00     0.249 C 
HETATM   20  O           1     -34.635  -3.062 -14.713  0.00  0.00    -0.271 OA
HETATM   21  H           1     -34.423  -5.353 -16.360  0.00  0.00     0.163 HD
BRANCH  19  22
HETATM   22  C           1     -33.879  -4.858 -13.386  0.00  0.00     0.280 C 
BRANCH  22  23
HETATM   23  N           1     -32.560  -4.417 -12.821  0.00  0.00    -0.066 N 
HETATM   24  H           1     -31.806  -4.592 -13.523  0.00  0.00     0.275 HD
HETATM   25  H           1     -32.357  -4.957 -11.950  0.00  0.00     0.275 HD
HETATM   26  H           1     -32.600  -3.397 -12.598  0.00  0.00     0.275 HD
ENDBRANCH  22  23
BRANCH  22  27
HETATM   27  C           1     -34.992  -4.506 -12.408  0.00  0.00     0.101 C 
BRANCH  27  28
HETATM   28  C           1     -34.605  -3.285 -11.632  0.00  0.00     0.028 A 
HETATM   29  N           1     -33.773  -3.284 -10.543  0.00  0.00    -0.355 N 
HETATM   30  C           1     -33.697  -2.029 -10.165  0.00  0.00     0.180 A 
ATOM     31  HN          1     -33.312  -4.088 -10.116  1.00  0.00     0.166 HD
HETATM   32  N           1     -34.447  -1.219 -10.969  0.00  0.00    -0.360 N 
HETATM   33  H           1     -34.554  -0.178 -10.876  0.00  0.00     0.166 HD
HETATM   34  C           1     -35.037  -2.010 -11.914  0.00  0.00     0.114 A 
ENDBRANCH  27  28
ENDBRANCH  22  27
ENDBRANCH  19  22
ENDBRANCH   1  18
TORSDOF 11
ENDMDL
MODEL 6
REMARK VINA RESULT:      -6.9     12.533     14.785
REMARK  11 active torsions:
REMARK  status: ('A' for Active; 'I' for Inactive)
REMARK    1  A    between atoms: C_1  and  C_2 
REMARK    2  A    between atoms: C_2  and  C_3 
REMARK    3  A    between atoms: C_3  and  C_27 
REMARK    4  A    between atoms: C_3  and  N_4 
REMARK       I    between atoms: N_4  and  C_22 
REMARK    5  A    between atoms: O_8  and  P_9 
REMARK    6  A    between atoms: P_9  and  O_10 
REMARK    7  A    between atoms: O_10  and  C_23 
REMARK    8  A    between atoms: N_14  and  C_30 
REMARK    9  A    between atoms: C_22  and  C_30 
REMARK   10  A    between atoms: C_30  and  C_31 
REMARK   11  A    between atoms: C_31  and  C_32 
ROOT
HETATM    1  C           1     -20.864  -7.138  -3.914  0.00  0.00     0.189 C 
ENDROOT
BRANCH   1   2
HETATM    2  C           1     -21.971  -7.262  -4.954  0.00  0.00     0.074 C 
BRANCH   2   3
HETATM    3  C           1     -21.746  -6.259  -6.042  0.00  0.00    -0.056 A 
HETATM    4  C           1     -22.741  -5.333  -6.354  0.00  0.00     0.010 A 
HETATM    5  C           1     -22.532  -4.399  -7.369  0.00  0.00     0.038 A 
HETATM    6  C           1     -21.327  -4.391  -8.071  0.00  0.00     0.081 A 
HETATM    7  C           1     -20.332  -5.317  -7.760  0.00  0.00     0.038 A 
HETATM    8  C           1     -20.541  -6.252  -6.745  0.00  0.00     0.010 A 
BRANCH   6   9
HETATM    9  O           1     -21.124  -3.484  -9.057  0.00  0.00    -0.247 OA
BRANCH   9  10
HETATM   10  P           1     -21.458  -3.926 -10.574  0.00  0.00     0.411 P 
HETATM   11  O           1     -21.696  -2.719 -11.398  0.00  0.00    -0.624 OA
HETATM   12  O           1     -20.317  -4.686 -11.131  0.00  0.00    -0.624 OA
BRANCH  10  13
HETATM   13  O           1     -22.779  -4.855 -10.584  0.00  0.00    -0.300 OA
HETATM   14  H           1     -22.742  -5.340  -9.777  0.00  0.00     0.223 HD
ENDBRANCH  10  13
ENDBRANCH   9  10
ENDBRANCH   6   9
ENDBRANCH   2   3
ENDBRANCH   1   2
BRANCH   1  15
HETATM   15  C           1     -21.471  -6.821  -2.569  0.00  0.00     0.197 C 
HETATM   16  O           1     -22.377  -5.964  -2.479  0.00  0.00    -0.646 OA
HETATM   17  O           1     -21.068  -7.415  -1.545  0.00  0.00    -0.646 OA
ENDBRANCH   1  15
BRANCH   1  18
HETATM   18  N           1     -20.138  -8.390  -3.832  0.00  0.00    -0.344 N 
HETATM   19  C           1     -20.528  -9.459  -4.592  0.00  0.00     0.249 C 
HETATM   20  O           1     -20.070  -9.615  -5.699  0.00  0.00    -0.271 OA
HETATM   21  H           1     -19.341  -8.474  -3.214  0.00  0.00     0.163 HD
BRANCH  19  22
HETATM   22  C           1     -21.533 -10.445  -4.047  0.00  0.00     0.280 C 
BRANCH  22  23
HETATM   23  N           1     -21.618 -11.630  -4.964  0.00  0.00    -0.066 N 
HETATM   24  H           1     -22.597 -11.728  -5.315  0.00  0.00     0.275 HD
HETATM   25  H           1     -21.347 -12.494  -4.442  0.00  0.00     0.275 HD
HETATM   26  H           1     -20.969 -11.493  -5.771  0.00  0.00     0.275 HD
ENDBRANCH  22  23
BRANCH  22  27
HETATM   27  C           1     -21.093 -10.906  -2.664  0.00  0.00     0.101 C 
BRANCH  27  28
HETATM   28  C           1     -22.250 -10.818  -1.717  0.00  0.00     0.028 A 
HETATM   29  N           1     -22.392  -9.859  -0.748  0.00  0.00    -0.355 N 
HETATM   30  C           1     -23.526 -10.137  -0.148  0.00  0.00     0.180 A 
ATOM     31  HN          1     -21.753  -9.092  -0.538  1.00  0.00     0.166 HD
HETATM   32  N           1     -24.122 -11.239  -0.693  0.00  0.00    -0.360 N 
HETATM   33  H           1     -25.034 -11.666  -0.391  0.00  0.00     0.166 HD
HETATM   34  C           1     -23.314 -11.688  -1.700  0.00  0.00     0.114 A 
ENDBRANCH  27  28
ENDBRANCH  22  27
ENDBRANCH  19  22
ENDBRANCH   1  18
TORSDOF 11
ENDMDL
MODEL 7
REMARK VINA RESULT:      -6.9     12.833     15.432
REMARK  11 active torsions:
REMARK  status: ('A' for Active; 'I' for Inactive)
REMARK    1  A    between atoms: C_1  and  C_2 
REMARK    2  A    between atoms: C_2  and  C_3 
REMARK    3  A    between atoms: C_3  and  C_27 
REMARK    4  A    between atoms: C_3  and  N_4 
REMARK       I    between atoms: N_4  and  C_22 
REMARK    5  A    between atoms: O_8  and  P_9 
REMARK    6  A    between atoms: P_9  and  O_10 
REMARK    7  A    between atoms: O_10  and  C_23 
REMARK    8  A    between atoms: N_14  and  C_30 
REMARK    9  A    between atoms: C_22  and  C_30 
REMARK   10  A    between atoms: C_30  and  C_31 
REMARK   11  A    between atoms: C_31  and  C_32 
ROOT
HETATM    1  C           1     -21.141  -7.141  -5.806  0.00  0.00     0.189 C 
ENDROOT
BRANCH   1   2
HETATM    2  C           1     -19.929  -7.896  -5.273  0.00  0.00     0.074 C 
BRANCH   2   3
HETATM    3  C           1     -20.376  -8.903  -4.259  0.00  0.00    -0.056 A 
HETATM    4  C           1     -19.691  -9.029  -3.052  0.00  0.00     0.010 A 
HETATM    5  C           1     -20.106  -9.969  -2.108  0.00  0.00     0.038 A 
HETATM    6  C           1     -21.209 -10.781  -2.372  0.00  0.00     0.081 A 
HETATM    7  C           1     -21.894 -10.656  -3.580  0.00  0.00     0.038 A 
HETATM    8  C           1     -21.478  -9.716  -4.524  0.00  0.00     0.010 A 
BRANCH   6   9
HETATM    9  O           1     -21.612 -11.694  -1.456  0.00  0.00    -0.247 OA
BRANCH   9  10
HETATM   10  P           1     -22.288 -11.152  -0.093  0.00  0.00     0.411 P 
HETATM   11  O           1     -23.018  -9.895  -0.370  0.00  0.00    -0.624 OA
HETATM   12  O           1     -23.232 -12.165   0.429  0.00  0.00    -0.624 OA
BRANCH  10  13
HETATM   13  O           1     -21.136 -10.875   1.005  0.00  0.00    -0.300 OA
HETATM   14  H           1     -21.431 -10.118   1.483  0.00  0.00     0.223 HD
ENDBRANCH  10  13
ENDBRANCH   9  10
ENDBRANCH   6   9
ENDBRANCH   2   3
ENDBRANCH   1   2
BRANCH   1  15
HETATM   15  C           1     -21.728  -6.292  -4.705  0.00  0.00     0.197 C 
HETATM   16  O           1     -20.975  -5.715  -3.892  0.00  0.00    -0.646 OA
HETATM   17  O           1     -22.968  -6.166  -4.607  0.00  0.00    -0.646 OA
ENDBRANCH   1  15
BRANCH   1  18
HETATM   18  N           1     -20.733  -6.290  -6.906  0.00  0.00    -0.344 N 
HETATM   19  C           1     -21.249  -5.028  -7.023  0.00  0.00     0.249 C 
HETATM   20  O           1     -20.694  -4.095  -6.493  0.00  0.00    -0.271 OA
HETATM   21  H           1     -20.065  -6.628  -7.587  0.00  0.00     0.163 HD
BRANCH  19  22
HETATM   22  C           1     -22.514  -4.801  -7.816  0.00  0.00     0.280 C 
BRANCH  22  23
HETATM   23  N           1     -23.630  -4.437  -6.881  0.00  0.00    -0.066 N 
HETATM   24  H           1     -24.169  -5.297  -6.631  0.00  0.00     0.275 HD
HETATM   25  H           1     -24.265  -3.752  -7.348  0.00  0.00     0.275 HD
HETATM   26  H           1     -23.233  -4.009  -6.014  0.00  0.00     0.275 HD
ENDBRANCH  22  23
BRANCH  22  27
HETATM   27  C           1     -22.295  -3.667  -8.808  0.00  0.00     0.101 C 
BRANCH  27  28
HETATM   28  C           1     -22.560  -4.161 -10.197  0.00  0.00     0.028 A 
HETATM   29  N           1     -23.729  -4.749 -10.604  0.00  0.00    -0.355 N 
HETATM   30  C           1     -23.552  -5.031 -11.874  0.00  0.00     0.180 A 
ATOM     31  HN          1     -24.560  -4.929 -10.041  1.00  0.00     0.166 HD
HETATM   32  N           1     -22.313  -4.647 -12.303  0.00  0.00    -0.360 N 
HETATM   33  H           1     -21.927  -4.762 -13.273  0.00  0.00     0.166 HD
HETATM   34  C           1     -21.664  -4.088 -11.237  0.00  0.00     0.114 A 
ENDBRANCH  27  28
ENDBRANCH  22  27
ENDBRANCH  19  22
ENDBRANCH   1  18
TORSDOF 11
ENDMDL
MODEL 8
REMARK VINA RESULT:      -6.7     13.779     16.223
REMARK  11 active torsions:
REMARK  status: ('A' for Active; 'I' for Inactive)
REMARK    1  A    between atoms: C_1  and  C_2 
REMARK    2  A    between atoms: C_2  and  C_3 
REMARK    3  A    between atoms: C_3  and  C_27 
REMARK    4  A    between atoms: C_3  and  N_4 
REMARK       I    between atoms: N_4  and  C_22 
REMARK    5  A    between atoms: O_8  and  P_9 
REMARK    6  A    between atoms: P_9  and  O_10 
REMARK    7  A    between atoms: O_10  and  C_23 
REMARK    8  A    between atoms: N_14  and  C_30 
REMARK    9  A    between atoms: C_22  and  C_30 
REMARK   10  A    between atoms: C_30  and  C_31 
REMARK   11  A    between atoms: C_31  and  C_32 
ROOT
HETATM    1  C           1     -21.377  -7.710  -2.416  0.00  0.00     0.189 C 
ENDROOT
BRANCH   1   2
HETATM    2  C           1     -19.920  -8.012  -2.092  0.00  0.00     0.074 C 
BRANCH   2   3
HETATM    3  C           1     -19.471  -9.205  -2.878  0.00  0.00    -0.056 A 
HETATM    4  C           1     -18.118  -9.385  -3.162  0.00  0.00     0.010 A 
HETATM    5  C           1     -17.700 -10.496  -3.896  0.00  0.00     0.038 A 
HETATM    6  C           1     -18.637 -11.427  -4.343  0.00  0.00     0.081 A 
HETATM    7  C           1     -19.990 -11.248  -4.060  0.00  0.00     0.038 A 
HETATM    8  C           1     -20.408 -10.136  -3.326  0.00  0.00     0.010 A 
BRANCH   6   9
HETATM    9  O           1     -18.231 -12.506  -5.056  0.00  0.00    -0.247 OA
BRANCH   9  10
HETATM   10  P           1     -17.846 -12.288  -6.609  0.00  0.00     0.411 P 
HETATM   11  O           1     -18.096 -13.538  -7.360  0.00  0.00    -0.624 OA
HETATM   12  O           1     -18.672 -11.199  -7.175  0.00  0.00    -0.624 OA
BRANCH  10  13
HETATM   13  O           1     -16.284 -11.893  -6.724  0.00  0.00    -0.300 OA
HETATM   14  H           1     -16.051 -12.075  -7.619  0.00  0.00     0.223 HD
ENDBRANCH  10  13
ENDBRANCH   9  10
ENDBRANCH   6   9
ENDBRANCH   2   3
ENDBRANCH   1   2
BRANCH   1  15
HETATM   15  C           1     -22.190  -7.728  -1.145  0.00  0.00     0.197 C 
HETATM   16  O           1     -22.687  -6.669  -0.706  0.00  0.00    -0.646 OA
HETATM   17  O           1     -22.366  -8.803  -0.531  0.00  0.00    -0.646 OA
ENDBRANCH   1  15
BRANCH   1  18
HETATM   18  N           1     -21.472  -6.399  -3.031  0.00  0.00    -0.344 N 
HETATM   19  C           1     -21.697  -6.289  -4.376  0.00  0.00     0.249 C 
HETATM   20  O           1     -22.827  -6.235  -4.799  0.00  0.00    -0.271 OA
HETATM   21  H           1     -21.373  -5.567  -2.464  0.00  0.00     0.163 HD
BRANCH  19  22
HETATM   22  C           1     -20.531  -6.235  -5.334  0.00  0.00     0.280 C 
BRANCH  22  23
HETATM   23  N           1     -20.874  -6.997  -6.580  0.00  0.00    -0.066 N 
HETATM   24  H           1     -21.780  -6.645  -6.964  0.00  0.00     0.275 HD
HETATM   25  H           1     -20.963  -8.013  -6.353  0.00  0.00     0.275 HD
HETATM   26  H           1     -20.119  -6.862  -7.290  0.00  0.00     0.275 HD
ENDBRANCH  22  23
BRANCH  22  27
HETATM   27  C           1     -20.236  -4.784  -5.692  0.00  0.00     0.101 C 
BRANCH  27  28
HETATM   28  C           1     -20.927  -4.437  -6.975  0.00  0.00     0.028 A 
HETATM   29  N           1     -22.269  -4.191  -7.094  0.00  0.00    -0.355 N 
HETATM   30  C           1     -22.462  -3.929  -8.366  0.00  0.00     0.180 A 
ATOM     31  HN          1     -22.970  -4.207  -6.353  1.00  0.00     0.166 HD
HETATM   32  N           1     -21.295  -3.996  -9.073  0.00  0.00    -0.360 N 
HETATM   33  H           1     -21.182  -3.831 -10.104  0.00  0.00     0.166 HD
HETATM   34  C           1     -20.300  -4.322  -8.193  0.00  0.00     0.114 A 
ENDBRANCH  27  28
ENDBRANCH  22  27
ENDBRANCH  19  22
ENDBRANCH   1  18
TORSDOF 11
ENDMDL
MODEL 9
REMARK VINA RESULT:      -6.5     13.291     15.542
REMARK  11 active torsions:
REMARK  status: ('A' for Active; 'I' for Inactive)
REMARK    1  A    between atoms: C_1  and  C_2 
REMARK    2  A    between atoms: C_2  and  C_3 
REMARK    3  A    between atoms: C_3  and  C_27 
REMARK    4  A    between atoms: C_3  and  N_4 
REMARK       I    between atoms: N_4  and  C_22 
REMARK    5  A    between atoms: O_8  and  P_9 
REMARK    6  A    between atoms: P_9  and  O_10 
REMARK    7  A    between atoms: O_10  and  C_23 
REMARK    8  A    between atoms: N_14  and  C_30 
REMARK    9  A    between atoms: C_22  and  C_30 
REMARK   10  A    between atoms: C_30  and  C_31 
REMARK   11  A    between atoms: C_31  and  C_32 
ROOT
HETATM    1  C           1     -20.798  -8.091  -4.219  0.00  0.00     0.189 C 
ENDROOT
BRANCH   1   2
HETATM    2  C           1     -19.835  -7.649  -5.313  0.00  0.00     0.074 C 
BRANCH   2   3
HETATM    3  C           1     -20.445  -6.524  -6.090  0.00  0.00    -0.056 A 
HETATM    4  C           1     -19.746  -5.948  -7.150  0.00  0.00     0.010 A 
HETATM    5  C           1     -20.314  -4.899  -7.873  0.00  0.00     0.038 A 
HETATM    6  C           1     -21.583  -4.427  -7.536  0.00  0.00     0.081 A 
HETATM    7  C           1     -22.282  -5.002  -6.476  0.00  0.00     0.038 A 
HETATM    8  C           1     -21.713  -6.051  -5.752  0.00  0.00     0.010 A 
BRANCH   6   9
HETATM    9  O           1     -22.135  -3.408  -8.238  0.00  0.00    -0.247 OA
BRANCH   9  10
HETATM   10  P           1     -23.152  -3.777  -9.437  0.00  0.00     0.411 P 
HETATM   11  O           1     -22.761  -3.042 -10.661  0.00  0.00    -0.624 OA
HETATM   12  O           1     -23.101  -5.233  -9.699  0.00  0.00    -0.624 OA
BRANCH  10  13
HETATM   13  O           1     -24.654  -3.360  -9.015  0.00  0.00    -0.300 OA
HETATM   14  H           1     -24.547  -2.692  -8.359  0.00  0.00     0.223 HD
ENDBRANCH  10  13
ENDBRANCH   9  10
ENDBRANCH   6   9
ENDBRANCH   2   3
ENDBRANCH   1   2
BRANCH   1  15
HETATM   15  C           1     -21.443  -9.397  -4.614  0.00  0.00     0.197 C 
HETATM   16  O           1     -21.071  -9.989  -5.649  0.00  0.00    -0.646 OA
HETATM   17  O           1     -22.350  -9.885  -3.906  0.00  0.00    -0.646 OA
ENDBRANCH   1  15
BRANCH   1  18
HETATM   18  N           1     -20.069  -8.269  -2.978  0.00  0.00    -0.344 N 
HETATM   19  C           1     -19.179  -9.300  -2.849  0.00  0.00     0.249 C 
HETATM   20  O           1     -18.021  -9.143  -3.155  0.00  0.00    -0.271 OA
HETATM   21  H           1     -20.217  -7.629  -2.208  0.00  0.00     0.163 HD
BRANCH  19  22
HETATM   22  C           1     -19.645 -10.637  -2.325  0.00  0.00     0.280 C 
BRANCH  22  23
HETATM   23  N           1     -18.572 -11.662  -2.548  0.00  0.00    -0.066 N 
HETATM   24  H           1     -17.932 -11.336  -3.307  0.00  0.00     0.275 HD
HETATM   25  H           1     -19.010 -12.568  -2.828  0.00  0.00     0.275 HD
HETATM   26  H           1     -18.028 -11.795  -1.666  0.00  0.00     0.275 HD
ENDBRANCH  22  23
BRANCH  22  27
HETATM   27  C           1     -19.935 -10.524  -0.834  0.00  0.00     0.101 C 
BRANCH  27  28
HETATM   28  C           1     -21.395 -10.754  -0.592  0.00  0.00     0.028 A 
HETATM   29  N           1     -22.381  -9.837  -0.848  0.00  0.00    -0.355 N 
HETATM   30  C           1     -23.502 -10.426  -0.499  0.00  0.00     0.180 A 
ATOM     31  HN          1     -22.268  -8.897  -1.228  1.00  0.00     0.166 HD
HETATM   32  N           1     -23.277 -11.688  -0.029  0.00  0.00    -0.360 N 
HETATM   33  H           1     -24.006 -12.363   0.314  0.00  0.00     0.166 HD
HETATM   34  C           1     -21.930 -11.913  -0.081  0.00  0.00     0.114 A 
ENDBRANCH  27  28
ENDBRANCH  22  27
ENDBRANCH  19  22
ENDBRANCH   1  18
TORSDOF 11
ENDMDL
