MODEL 1
REMARK VINA RESULT:      -7.5      0.000      0.000
REMARK  7 active torsions:
REMARK  status: ('A' for Active; 'I' for Inactive)
REMARK    1  A    between atoms: C_6  and  C_7 
REMARK    2  A    between atoms: C_6  and  C_17 
REMARK    3  A    between atoms: C_7  and  C_16 
REMARK    4  A    between atoms: C_7  and  N_8 
REMARK       I    between atoms: N_8  and  C_15 
REMARK    5  A    between atoms: N_12  and  C_25 
REMARK    6  A    between atoms: C_15  and  C_25 
REMARK    7  A    between atoms: C_21  and  C_25 
ROOT
HETATM    1  C           1     -21.478  -6.396  -5.313  0.00  0.00     0.190 C 
ENDROOT
BRANCH   1   2
HETATM    2  C           1     -21.007  -5.081  -5.918  0.00  0.00     0.077 C 
BRANCH   2   3
HETATM    3  C           1     -21.896  -4.713  -7.066  0.00  0.00    -0.028 A 
HETATM    4  C           1     -21.492  -4.547  -8.419  0.00  0.00    -0.002 A 
HETATM    5  C           1     -22.632  -4.207  -9.149  0.00  0.00     0.042 A 
HETATM    6  C           1     -20.261  -4.653  -9.095  0.00  0.00     0.014 A 
HETATM    7  N           1     -23.684  -4.171  -8.262  0.00  0.00    -0.365 N 
HETATM    8  C           1     -22.602  -3.967 -10.528  0.00  0.00     0.030 A 
HETATM    9  C           1     -23.250  -4.475  -6.999  0.00  0.00     0.096 A 
HETATM   10  H           1     -24.677  -3.943  -8.517  0.00  0.00     0.165 HD
HETATM   11  C           1     -21.369  -4.078 -11.177  0.00  0.00     0.002 A 
HETATM   12  C           1     -20.214  -4.416 -10.474  0.00  0.00     0.001 A 
ENDBRANCH   2   3
ENDBRANCH   1   2
BRANCH   1  13
HETATM   13  C           1     -20.745  -7.543  -5.967  0.00  0.00     0.197 C 
HETATM   14  O           1     -21.296  -8.660  -6.068  0.00  0.00    -0.646 OA
HETATM   15  O           1     -19.589  -7.374  -6.409  0.00  0.00    -0.646 OA
ENDBRANCH   1  13
BRANCH   1  16
HETATM   16  N           1     -21.202  -6.399  -3.889  0.00  0.00    -0.344 N 
HETATM   17  C           1     -20.908  -7.575  -3.252  0.00  0.00     0.249 C 
HETATM   18  O           1     -19.761  -7.946  -3.167  0.00  0.00    -0.271 OA
HETATM   19  H           1     -21.227  -5.534  -3.366  0.00  0.00     0.163 HD
BRANCH  17  20
HETATM   20  C           1     -22.016  -8.408  -2.655  0.00  0.00     0.278 C 
BRANCH  20  21
HETATM   21  N           1     -21.926  -9.809  -3.183  0.00  0.00    -0.066 N 
HETATM   22  H           1     -20.923 -10.063  -3.330  0.00  0.00     0.275 HD
HETATM   23  H           1     -22.353 -10.469  -2.495  0.00  0.00     0.275 HD
HETATM   24  H           1     -22.438  -9.872  -4.092  0.00  0.00     0.275 HD
ENDBRANCH  20  21
BRANCH  20  25
HETATM   25  C           1     -21.876  -8.427  -1.139  0.00  0.00     0.017 C 
HETATM   26  C           1     -22.394  -7.116  -0.564  0.00  0.00     0.012 C 
HETATM   27  C           1     -22.686  -9.585  -0.569  0.00  0.00     0.012 C 
ENDBRANCH  20  25
ENDBRANCH  17  20
ENDBRANCH   1  16
TORSDOF 7
ENDMDL
MODEL 2
REMARK VINA RESULT:      -7.4      2.020      2.879
REMARK  7 active torsions:
REMARK  status: ('A' for Active; 'I' for Inactive)
REMARK    1  A    between atoms: C_6  and  C_7 
REMARK    2  A    between atoms: C_6  and  C_17 
REMARK    3  A    between atoms: C_7  and  C_16 
REMARK    4  A    between atoms: C_7  and  N_8 
REMARK       I    between atoms: N_8  and  C_15 
REMARK    5  A    between atoms: N_12  and  C_25 
REMARK    6  A    between atoms: C_15  and  C_25 
REMARK    7  A    between atoms: C_21  and  C_25 
ROOT
HETATM    1  C           1     -20.790  -9.187  -4.301  0.00  0.00     0.190 C 
ENDROOT
BRANCH   1   2
HETATM    2  C           1     -20.041  -7.925  -4.706  0.00  0.00     0.077 C 
BRANCH   2   3
HETATM    3  C           1     -21.011  -6.920  -5.246  0.00  0.00    -0.028 A 
HETATM    4  C           1     -20.744  -5.959  -6.260  0.00  0.00    -0.002 A 
HETATM    5  C           1     -21.919  -5.231  -6.455  0.00  0.00     0.042 A 
HETATM    6  C           1     -19.612  -5.638  -7.034  0.00  0.00     0.014 A 
HETATM    7  N           1     -22.857  -5.738  -5.584  0.00  0.00    -0.365 N 
HETATM    8  C           1     -22.018  -4.193  -7.388  0.00  0.00     0.030 A 
HETATM    9  C           1     -22.319  -6.760  -4.849  0.00  0.00     0.096 A 
HETATM   10  H           1     -23.846  -5.392  -5.498  0.00  0.00     0.165 HD
HETATM   11  C           1     -20.881  -3.893  -8.144  0.00  0.00     0.002 A 
HETATM   12  C           1     -19.694  -4.603  -7.973  0.00  0.00     0.001 A 
ENDBRANCH   2   3
ENDBRANCH   1   2
BRANCH   1  13
HETATM   13  C           1     -20.388 -10.324  -5.208  0.00  0.00     0.197 C 
HETATM   14  O           1     -19.367 -10.998  -4.952  0.00  0.00    -0.646 OA
HETATM   15  O           1     -21.077 -10.593  -6.216  0.00  0.00    -0.646 OA
ENDBRANCH   1  13
BRANCH   1  16
HETATM   16  N           1     -20.461  -9.526  -2.930  0.00  0.00    -0.344 N 
HETATM   17  C           1     -21.392 -10.141  -2.136  0.00  0.00     0.249 C 
HETATM   18  O           1     -21.453 -11.348  -2.100  0.00  0.00    -0.271 OA
HETATM   19  H           1     -19.546  -9.308  -2.560  0.00  0.00     0.163 HD
BRANCH  17  20
HETATM   20  C           1     -22.341  -9.313  -1.305  0.00  0.00     0.278 C 
BRANCH  20  21
HETATM   21  N           1     -22.934 -10.169  -0.225  0.00  0.00    -0.066 N 
HETATM   22  H           1     -23.662 -10.796  -0.637  0.00  0.00     0.275 HD
HETATM   23  H           1     -22.183 -10.749   0.212  0.00  0.00     0.275 HD
HETATM   24  H           1     -23.372  -9.559   0.502  0.00  0.00     0.275 HD
ENDBRANCH  20  21
BRANCH  20  25
HETATM   25  C           1     -21.585  -8.152  -0.674  0.00  0.00     0.017 C 
HETATM   26  C           1     -22.206  -6.836  -1.123  0.00  0.00     0.012 C 
HETATM   27  C           1     -21.664  -8.259   0.843  0.00  0.00     0.012 C 
ENDBRANCH  20  25
ENDBRANCH  17  20
ENDBRANCH   1  16
TORSDOF 7
ENDMDL
MODEL 3
REMARK VINA RESULT:      -7.3      1.625      2.244
REMARK  7 active torsions:
REMARK  status: ('A' for Active; 'I' for Inactive)
REMARK    1  A    between atoms: C_6  and  C_7 
REMARK    2  A    between atoms: C_6  and  C_17 
REMARK    3  A    between atoms: C_7  and  C_16 
REMARK    4  A    between atoms: C_7  and  N_8 
REMARK       I    between atoms: N_8  and  C_15 
REMARK    5  A    between atoms: N_12  and  C_25 
REMARK    6  A    between atoms: C_15  and  C_25 
REMARK    7  A    between atoms: C_21  and  C_25 
ROOT
HETATM    1  C           1     -21.766  -6.642  -5.172  0.00  0.00     0.190 C 
ENDROOT
BRANCH   1   2
HETATM    2  C           1     -20.910  -5.384  -5.109  0.00  0.00     0.077 C 
BRANCH   2   3
HETATM    3  C           1     -20.583  -4.933  -6.499  0.00  0.00    -0.028 A 
HETATM    4  C           1     -21.520  -4.550  -7.498  0.00  0.00    -0.002 A 
HETATM    5  C           1     -20.790  -4.205  -8.636  0.00  0.00     0.042 A 
HETATM    6  C           1     -22.925  -4.464  -7.543  0.00  0.00     0.014 A 
HETATM    7  N           1     -19.458  -4.376  -8.328  0.00  0.00    -0.365 N 
HETATM    8  C           1     -21.397  -3.776  -9.822  0.00  0.00     0.030 A 
HETATM    9  C           1     -19.322  -4.816  -7.039  0.00  0.00     0.096 A 
HETATM   10  H           1     -18.661  -4.194  -8.989  0.00  0.00     0.165 HD
HETATM   11  C           1     -22.793  -3.699  -9.842  0.00  0.00     0.002 A 
HETATM   12  C           1     -23.548  -4.037  -8.722  0.00  0.00     0.001 A 
ENDBRANCH   2   3
ENDBRANCH   1   2
BRANCH   1  13
HETATM   13  C           1     -20.872  -7.855  -5.265  0.00  0.00     0.197 C 
HETATM   14  O           1     -21.326  -8.934  -5.700  0.00  0.00    -0.646 OA
HETATM   15  O           1     -19.676  -7.779  -4.908  0.00  0.00    -0.646 OA
ENDBRANCH   1  13
BRANCH   1  16
HETATM   16  N           1     -22.578  -6.734  -3.974  0.00  0.00    -0.344 N 
HETATM   17  C           1     -21.984  -6.704  -2.741  0.00  0.00     0.249 C 
HETATM   18  O           1     -21.813  -5.648  -2.178  0.00  0.00    -0.271 OA
HETATM   19  H           1     -23.583  -6.821  -4.049  0.00  0.00     0.163 HD
BRANCH  17  20
HETATM   20  C           1     -21.542  -7.989  -2.084  0.00  0.00     0.278 C 
BRANCH  20  21
HETATM   21  N           1     -20.087  -7.895  -1.732  0.00  0.00    -0.066 N 
HETATM   22  H           1     -19.529  -7.725  -2.600  0.00  0.00     0.275 HD
HETATM   23  H           1     -19.941  -7.104  -1.065  0.00  0.00     0.275 HD
HETATM   24  H           1     -19.777  -8.789  -1.289  0.00  0.00     0.275 HD
ENDBRANCH  20  21
BRANCH  20  25
HETATM   25  C           1     -22.356  -8.218  -0.818  0.00  0.00     0.017 C 
HETATM   26  C           1     -22.836  -9.663  -0.776  0.00  0.00     0.012 C 
HETATM   27  C           1     -21.488  -7.936   0.402  0.00  0.00     0.012 C 
ENDBRANCH  20  25
ENDBRANCH  17  20
ENDBRANCH   1  16
TORSDOF 7
ENDMDL
MODEL 4
REMARK VINA RESULT:      -7.2      1.697      7.527
REMARK  7 active torsions:
REMARK  status: ('A' for Active; 'I' for Inactive)
REMARK    1  A    between atoms: C_6  and  C_7 
REMARK    2  A    between atoms: C_6  and  C_17 
REMARK    3  A    between atoms: C_7  and  C_16 
REMARK    4  A    between atoms: C_7  and  N_8 
REMARK       I    between atoms: N_8  and  C_15 
REMARK    5  A    between atoms: N_12  and  C_25 
REMARK    6  A    between atoms: C_15  and  C_25 
REMARK    7  A    between atoms: C_21  and  C_25 
ROOT
HETATM    1  C           1     -21.218  -7.224  -5.734  0.00  0.00     0.190 C 
ENDROOT
BRANCH   1   2
HETATM    2  C           1     -20.247  -8.004  -4.857  0.00  0.00     0.077 C 
BRANCH   2   3
HETATM    3  C           1     -21.008  -8.991  -4.026  0.00  0.00    -0.028 A 
HETATM    4  C           1     -21.265  -8.889  -2.631  0.00  0.00    -0.002 A 
HETATM    5  C           1     -22.002 -10.017  -2.266  0.00  0.00     0.042 A 
HETATM    6  C           1     -20.941  -7.942  -1.640  0.00  0.00     0.014 A 
HETATM    7  N           1     -22.178 -10.770  -3.405  0.00  0.00    -0.365 N 
HETATM    8  C           1     -22.432 -10.246  -0.954  0.00  0.00     0.030 A 
HETATM    9  C           1     -21.581 -10.158  -4.476  0.00  0.00     0.096 A 
HETATM   10  H           1     -22.698 -11.682  -3.447  0.00  0.00     0.165 HD
HETATM   11  C           1     -22.098  -9.292   0.012  0.00  0.00     0.002 A 
HETATM   12  C           1     -21.364  -8.156  -0.323  0.00  0.00     0.001 A 
ENDBRANCH   2   3
ENDBRANCH   1   2
BRANCH   1  13
HETATM   13  C           1     -21.989  -6.244  -4.884  0.00  0.00     0.197 C 
HETATM   14  O           1     -21.405  -5.603  -3.984  0.00  0.00    -0.646 OA
HETATM   15  O           1     -23.211  -6.071  -5.081  0.00  0.00    -0.646 OA
ENDBRANCH   1  13
BRANCH   1  16
HETATM   16  N           1     -20.478  -6.502  -6.750  0.00  0.00    -0.344 N 
HETATM   17  C           1     -20.823  -5.214  -7.062  0.00  0.00     0.249 C 
HETATM   18  O           1     -20.316  -4.292  -6.468  0.00  0.00    -0.271 OA
HETATM   19  H           1     -19.707  -6.948  -7.230  0.00  0.00     0.163 HD
BRANCH  17  20
HETATM   20  C           1     -21.837  -4.946  -8.147  0.00  0.00     0.278 C 
BRANCH  20  21
HETATM   21  N           1     -23.036  -4.268  -7.553  0.00  0.00    -0.066 N 
HETATM   22  H           1     -23.439  -4.871  -6.799  0.00  0.00     0.275 HD
HETATM   23  H           1     -22.751  -3.349  -7.147  0.00  0.00     0.275 HD
HETATM   24  H           1     -23.754  -4.115  -8.297  0.00  0.00     0.275 HD
ENDBRANCH  20  21
BRANCH  20  25
HETATM   25  C           1     -21.219  -4.045  -9.208  0.00  0.00     0.017 C 
HETATM   26  C           1     -20.122  -4.803  -9.943  0.00  0.00     0.012 C 
HETATM   27  C           1     -22.293  -3.619 -10.201  0.00  0.00     0.012 C 
ENDBRANCH  20  25
ENDBRANCH  17  20
ENDBRANCH   1  16
TORSDOF 7
ENDMDL
MODEL 5
REMARK VINA RESULT:      -7.1      1.697      6.946
REMARK  7 active torsions:
REMARK  status: ('A' for Active; 'I' for Inactive)
REMARK    1  A    between atoms: C_6  and  C_7 
REMARK    2  A    between atoms: C_6  and  C_17 
REMARK    3  A    between atoms: C_7  and  C_16 
REMARK    4  A    between atoms: C_7  and  N_8 
REMARK       I    between atoms: N_8  and  C_15 
REMARK    5  A    between atoms: N_12  and  C_25 
REMARK    6  A    between atoms: C_15  and  C_25 
REMARK    7  A    between atoms: C_21  and  C_25 
ROOT
HETATM    1  C           1     -19.791  -7.913  -5.243  0.00  0.00     0.190 C 
ENDROOT
BRANCH   1   2
HETATM    2  C           1     -21.174  -8.550  -5.289  0.00  0.00     0.077 C 
BRANCH   2   3
HETATM    3  C           1     -21.522  -9.085  -3.934  0.00  0.00    -0.028 A 
HETATM    4  C           1     -21.795  -8.311  -2.773  0.00  0.00    -0.002 A 
HETATM    5  C           1     -22.071  -9.206  -1.738  0.00  0.00     0.042 A 
HETATM    6  C           1     -21.835  -6.929  -2.502  0.00  0.00     0.014 A 
HETATM    7  N           1     -21.965 -10.474  -2.263  0.00  0.00    -0.365 N 
HETATM    8  C           1     -22.385  -8.786  -0.441  0.00  0.00     0.030 A 
HETATM    9  C           1     -21.633 -10.413  -3.591  0.00  0.00     0.096 A 
HETATM   10  H           1     -22.118 -11.363  -1.723  0.00  0.00     0.165 HD
HETATM   11  C           1     -22.418  -7.410  -0.196  0.00  0.00     0.002 A 
HETATM   12  C           1     -22.148  -6.493  -1.209  0.00  0.00     0.001 A 
ENDBRANCH   2   3
ENDBRANCH   1   2
BRANCH   1  13
HETATM   13  C           1     -18.739  -8.995  -5.217  0.00  0.00     0.197 C 
HETATM   14  O           1     -18.449  -9.611  -6.265  0.00  0.00    -0.646 OA
HETATM   15  O           1     -18.156  -9.274  -4.147  0.00  0.00    -0.646 OA
ENDBRANCH   1  13
BRANCH   1  16
HETATM   16  N           1     -19.601  -7.085  -6.419  0.00  0.00    -0.344 N 
HETATM   17  C           1     -20.133  -5.825  -6.461  0.00  0.00     0.249 C 
HETATM   18  O           1     -19.487  -4.883  -6.066  0.00  0.00    -0.271 OA
HETATM   19  H           1     -19.077  -7.439  -7.208  0.00  0.00     0.163 HD
BRANCH  17  20
HETATM   20  C           1     -21.526  -5.610  -7.000  0.00  0.00     0.278 C 
BRANCH  20  21
HETATM   21  N           1     -22.473  -5.381  -5.859  0.00  0.00    -0.066 N 
HETATM   22  H           1     -23.301  -4.838  -6.197  0.00  0.00     0.275 HD
HETATM   23  H           1     -22.791  -6.301  -5.481  0.00  0.00     0.275 HD
HETATM   24  H           1     -21.987  -4.842  -5.107  0.00  0.00     0.275 HD
ENDBRANCH  20  21
BRANCH  20  25
HETATM   25  C           1     -21.534  -4.396  -7.919  0.00  0.00     0.017 C 
HETATM   26  C           1     -20.653  -4.669  -9.130  0.00  0.00     0.012 C 
HETATM   27  C           1     -22.959  -4.119  -8.381  0.00  0.00     0.012 C 
ENDBRANCH  20  25
ENDBRANCH  17  20
ENDBRANCH   1  16
TORSDOF 7
ENDMDL
MODEL 6
REMARK VINA RESULT:      -7.0     13.729     16.809
REMARK  7 active torsions:
REMARK  status: ('A' for Active; 'I' for Inactive)
REMARK    1  A    between atoms: C_6  and  C_7 
REMARK    2  A    between atoms: C_6  and  C_17 
REMARK    3  A    between atoms: C_7  and  C_16 
REMARK    4  A    between atoms: C_7  and  N_8 
REMARK       I    between atoms: N_8  and  C_15 
REMARK    5  A    between atoms: N_12  and  C_25 
REMARK    6  A    between atoms: C_15  and  C_25 
REMARK    7  A    between atoms: C_21  and  C_25 
ROOT
HETATM    1  C           1     -35.466  -2.126 -11.337  0.00  0.00     0.190 C 
ENDROOT
BRANCH   1   2
HETATM    2  C           1     -34.453  -2.589 -10.298  0.00  0.00     0.077 C 
BRANCH   2   3
HETATM    3  C           1     -33.773  -3.832 -10.784  0.00  0.00    -0.028 A 
HETATM    4  C           1     -34.124  -5.167 -10.440  0.00  0.00    -0.002 A 
HETATM    5  C           1     -33.236  -6.010 -11.110  0.00  0.00     0.042 A 
HETATM    6  C           1     -35.115  -5.741  -9.620  0.00  0.00     0.014 A 
HETATM    7  N           1     -32.382  -5.205 -11.831  0.00  0.00    -0.365 N 
HETATM    8  C           1     -33.290  -7.404 -11.001  0.00  0.00     0.030 A 
HETATM    9  C           1     -32.698  -3.887 -11.641  0.00  0.00     0.096 A 
HETATM   10  H           1     -31.600  -5.554 -12.441  0.00  0.00     0.165 HD
HETATM   11  C           1     -34.282  -7.950 -10.181  0.00  0.00     0.002 A 
HETATM   12  C           1     -35.182  -7.134  -9.500  0.00  0.00     0.001 A 
ENDBRANCH   2   3
ENDBRANCH   1   2
BRANCH   1  13
HETATM   13  C           1     -36.469  -1.204 -10.687  0.00  0.00     0.197 C 
HETATM   14  O           1     -37.650  -1.178 -11.094  0.00  0.00    -0.646 OA
HETATM   15  O           1     -36.119  -0.469  -9.739  0.00  0.00    -0.646 OA
ENDBRANCH   1  13
BRANCH   1  16
HETATM   16  N           1     -34.780  -1.417 -12.400  0.00  0.00    -0.344 N 
HETATM   17  C           1     -35.352  -0.308 -12.962  0.00  0.00     0.249 C 
HETATM   18  O           1     -35.130   0.786 -12.500  0.00  0.00    -0.271 OA
HETATM   19  H           1     -33.880  -1.742 -12.726  0.00  0.00     0.163 HD
BRANCH  17  20
HETATM   20  C           1     -36.261  -0.451 -14.159  0.00  0.00     0.278 C 
BRANCH  20  21
HETATM   21  N           1     -37.506   0.356 -13.939  0.00  0.00    -0.066 N 
HETATM   22  H           1     -38.251   0.034 -14.598  0.00  0.00     0.275 HD
HETATM   23  H           1     -37.834   0.227 -12.955  0.00  0.00     0.275 HD
HETATM   24  H           1     -37.302   1.366 -14.111  0.00  0.00     0.275 HD
ENDBRANCH  20  21
BRANCH  20  25
HETATM   25  C           1     -35.544   0.052 -15.404  0.00  0.00     0.017 C 
HETATM   26  C           1     -35.857  -0.867 -16.578  0.00  0.00     0.012 C 
HETATM   27  C           1     -36.015   1.464 -15.726  0.00  0.00     0.012 C 
ENDBRANCH  20  25
ENDBRANCH  17  20
ENDBRANCH   1  16
TORSDOF 7
ENDMDL
MODEL 7
REMARK VINA RESULT:      -7.0      2.194      7.411
REMARK  7 active torsions:
REMARK  status: ('A' for Active; 'I' for Inactive)
REMARK    1  A    between atoms: C_6  and  C_7 
REMARK    2  A    between atoms: C_6  and  C_17 
REMARK    3  A    between atoms: C_7  and  C_16 
REMARK    4  A    between atoms: C_7  and  N_8 
REMARK       I    between atoms: N_8  and  C_15 
REMARK    5  A    between atoms: N_12  and  C_25 
REMARK    6  A    between atoms: C_15  and  C_25 
REMARK    7  A    between atoms: C_21  and  C_25 
ROOT
HETATM    1  C           1     -20.206  -8.269  -4.662  0.00  0.00     0.190 C 
ENDROOT
BRANCH   1   2
HETATM    2  C           1     -21.252  -9.022  -3.850  0.00  0.00     0.077 C 
BRANCH   2   3
HETATM    3  C           1     -21.553  -8.260  -2.596  0.00  0.00    -0.028 A 
HETATM    4  C           1     -21.344  -8.719  -1.267  0.00  0.00    -0.002 A 
HETATM    5  C           1     -21.759  -7.698  -0.409  0.00  0.00     0.042 A 
HETATM    6  C           1     -20.838  -9.909  -0.708  0.00  0.00     0.014 A 
HETATM    7  N           1     -22.203  -6.663  -1.201  0.00  0.00    -0.365 N 
HETATM    8  C           1     -21.693  -7.809   0.984  0.00  0.00     0.030 A 
HETATM    9  C           1     -22.084  -6.992  -2.525  0.00  0.00     0.096 A 
HETATM   10  H           1     -22.580  -5.750  -0.840  0.00  0.00     0.165 HD
HETATM   11  C           1     -21.189  -9.000   1.515  0.00  0.00     0.002 A 
HETATM   12  C           1     -20.766 -10.036   0.685  0.00  0.00     0.001 A 
ENDBRANCH   2   3
ENDBRANCH   1   2
BRANCH   1  13
HETATM   13  C           1     -19.033  -9.177  -4.935  0.00  0.00     0.197 C 
HETATM   14  O           1     -18.126  -9.301  -4.084  0.00  0.00    -0.646 OA
HETATM   15  O           1     -18.968  -9.808  -6.012  0.00  0.00    -0.646 OA
ENDBRANCH   1  13
BRANCH   1  16
HETATM   16  N           1     -20.787  -7.841  -5.920  0.00  0.00    -0.344 N 
HETATM   17  C           1     -20.425  -6.639  -6.466  0.00  0.00     0.249 C 
HETATM   18  O           1     -19.488  -6.579  -7.226  0.00  0.00    -0.271 OA
HETATM   19  H           1     -21.460  -8.430  -6.393  0.00  0.00     0.163 HD
BRANCH  17  20
HETATM   20  C           1     -21.197  -5.389  -6.119  0.00  0.00     0.278 C 
BRANCH  20  21
HETATM   21  N           1     -20.305  -4.446  -5.366  0.00  0.00    -0.066 N 
HETATM   22  H           1     -20.874  -3.905  -4.675  0.00  0.00     0.275 HD
HETATM   23  H           1     -19.571  -4.990  -4.860  0.00  0.00     0.275 HD
HETATM   24  H           1     -19.851  -3.786  -6.037  0.00  0.00     0.275 HD
ENDBRANCH  20  21
BRANCH  20  25
HETATM   25  C           1     -21.680  -4.719  -7.398  0.00  0.00     0.017 C 
HETATM   26  C           1     -23.190  -4.528  -7.333  0.00  0.00     0.012 C 
HETATM   27  C           1     -21.004  -3.362  -7.546  0.00  0.00     0.012 C 
ENDBRANCH  20  25
ENDBRANCH  17  20
ENDBRANCH   1  16
TORSDOF 7
ENDMDL
MODEL 8
REMARK VINA RESULT:      -7.0      4.199      7.403
REMARK  7 active torsions:
REMARK  status: ('A' for Active; 'I' for Inactive)
REMARK    1  A    between atoms: C_6  and  C_7 
REMARK    2  A    between atoms: C_6  and  C_17 
REMARK    3  A    between atoms: C_7  and  C_16 
REMARK    4  A    between atoms: C_7  and  N_8 
REMARK       I    between atoms: N_8  and  C_15 
REMARK    5  A    between atoms: N_12  and  C_25 
REMARK    6  A    between atoms: C_15  and  C_25 
REMARK    7  A    between atoms: C_21  and  C_25 
ROOT
HETATM    1  C           1     -21.035  -7.814  -3.458  0.00  0.00     0.190 C 
ENDROOT
BRANCH   1   2
HETATM    2  C           1     -20.506  -7.926  -2.035  0.00  0.00     0.077 C 
BRANCH   2   3
HETATM    3  C           1     -21.596  -8.420  -1.135  0.00  0.00    -0.028 A 
HETATM    4  C           1     -22.283  -9.659  -1.254  0.00  0.00    -0.002 A 
HETATM    5  C           1     -23.214  -9.715  -0.215  0.00  0.00     0.042 A 
HETATM    6  C           1     -22.203 -10.743  -2.150  0.00  0.00     0.014 A 
HETATM    7  N           1     -23.088  -8.546   0.502  0.00  0.00    -0.365 N 
HETATM    8  C           1     -24.072 -10.805  -0.027  0.00  0.00     0.030 A 
HETATM    9  C           1     -22.112  -7.756  -0.045  0.00  0.00     0.096 A 
HETATM   10  H           1     -23.658  -8.297   1.349  0.00  0.00     0.165 HD
HETATM   11  C           1     -23.973 -11.868  -0.929  0.00  0.00     0.002 A 
HETATM   12  C           1     -23.054 -11.842  -1.975  0.00  0.00     0.001 A 
ENDBRANCH   2   3
ENDBRANCH   1   2
BRANCH   1  13
HETATM   13  C           1     -21.518  -6.406  -3.707  0.00  0.00     0.197 C 
HETATM   14  O           1     -20.945  -5.689  -4.555  0.00  0.00    -0.646 OA
HETATM   15  O           1     -22.491  -5.956  -3.065  0.00  0.00    -0.646 OA
ENDBRANCH   1  13
BRANCH   1  16
HETATM   16  N           1     -19.974  -8.131  -4.394  0.00  0.00    -0.344 N 
HETATM   17  C           1     -19.746  -9.432  -4.754  0.00  0.00     0.249 C 
HETATM   18  O           1     -20.317  -9.904  -5.710  0.00  0.00    -0.271 OA
HETATM   19  H           1     -19.401  -7.392  -4.781  0.00  0.00     0.163 HD
BRANCH  17  20
HETATM   20  C           1     -18.782 -10.278  -3.959  0.00  0.00     0.278 C 
BRANCH  20  21
HETATM   21  N           1     -18.647 -11.624  -4.607  0.00  0.00    -0.066 N 
HETATM   22  H           1     -18.903 -12.370  -3.921  0.00  0.00     0.275 HD
HETATM   23  H           1     -19.285 -11.678  -5.433  0.00  0.00     0.275 HD
HETATM   24  H           1     -17.659 -11.763  -4.920  0.00  0.00     0.275 HD
ENDBRANCH  20  21
BRANCH  20  25
HETATM   25  C           1     -17.421  -9.596  -3.918  0.00  0.00     0.017 C 
HETATM   26  C           1     -16.684 -10.005  -2.650  0.00  0.00     0.012 C 
HETATM   27  C           1     -16.607 -10.015  -5.135  0.00  0.00     0.012 C 
ENDBRANCH  20  25
ENDBRANCH  17  20
ENDBRANCH   1  16
TORSDOF 7
ENDMDL
MODEL 9
REMARK VINA RESULT:      -7.0      3.557      7.258
REMARK  7 active torsions:
REMARK  status: ('A' for Active; 'I' for Inactive)
REMARK    1  A    between atoms: C_6  and  C_7 
REMARK    2  A    between atoms: C_6  and  C_17 
REMARK    3  A    between atoms: C_7  and  C_16 
REMARK    4  A    between atoms: C_7  and  N_8 
REMARK       I    between atoms: N_8  and  C_15 
REMARK    5  A    between atoms: N_12  and  C_25 
REMARK    6  A    between atoms: C_15  and  C_25 
REMARK    7  A    between atoms: C_21  and  C_25 
ROOT
HETATM    1  C           1     -20.321  -8.429  -5.058  0.00  0.00     0.190 C 
ENDROOT
BRANCH   1   2
HETATM    2  C           1     -20.085  -8.228  -3.566  0.00  0.00     0.077 C 
BRANCH   2   3
HETATM    3  C           1     -21.002  -9.123  -2.791  0.00  0.00    -0.028 A 
HETATM    4  C           1     -21.751  -8.759  -1.639  0.00  0.00    -0.002 A 
HETATM    5  C           1     -22.465  -9.890  -1.239  0.00  0.00     0.042 A 
HETATM    6  C           1     -21.890  -7.572  -0.894  0.00  0.00     0.014 A 
HETATM    7  N           1     -22.153 -10.898  -2.124  0.00  0.00    -0.365 N 
HETATM    8  C           1     -23.316  -9.892  -0.128  0.00  0.00     0.030 A 
HETATM    9  C           1     -21.269 -10.445  -3.067  0.00  0.00     0.096 A 
HETATM   10  H           1     -22.539 -11.874  -2.082  0.00  0.00     0.165 HD
HETATM   11  C           1     -23.437  -8.702   0.596  0.00  0.00     0.002 A 
HETATM   12  C           1     -22.737  -7.558   0.221  0.00  0.00     0.001 A 
ENDBRANCH   2   3
ENDBRANCH   1   2
BRANCH   1  13
HETATM   13  C           1     -20.808  -7.138  -5.669  0.00  0.00     0.197 C 
HETATM   14  O           1     -20.530  -6.864  -6.856  0.00  0.00    -0.646 OA
HETATM   15  O           1     -21.492  -6.344  -4.989  0.00  0.00    -0.646 OA
ENDBRANCH   1  13
BRANCH   1  16
HETATM   16  N           1     -19.079  -8.824  -5.694  0.00  0.00    -0.344 N 
HETATM   17  C           1     -18.683 -10.134  -5.665  0.00  0.00     0.249 C 
HETATM   18  O           1     -19.021 -10.887  -6.548  0.00  0.00    -0.271 OA
HETATM   19  H           1     -18.505  -8.132  -6.158  0.00  0.00     0.163 HD
BRANCH  17  20
HETATM   20  C           1     -17.822 -10.639  -4.532  0.00  0.00     0.278 C 
BRANCH  20  21
HETATM   21  N           1     -17.349 -12.027  -4.846  0.00  0.00    -0.066 N 
HETATM   22  H           1     -17.670 -12.682  -4.097  0.00  0.00     0.275 HD
HETATM   23  H           1     -17.743 -12.330  -5.764  0.00  0.00     0.275 HD
HETATM   24  H           1     -16.305 -12.036  -4.893  0.00  0.00     0.275 HD
ENDBRANCH  20  21
BRANCH  20  25
HETATM   25  C           1     -16.621  -9.720  -4.359  0.00  0.00     0.017 C 
HETATM   26  C           1     -16.181  -9.727  -2.901  0.00  0.00     0.012 C 
HETATM   27  C           1     -15.476 -10.209  -5.236  0.00  0.00     0.012 C 
ENDBRANCH  20  25
ENDBRANCH  17  20
ENDBRANCH   1  16
TORSDOF 7
ENDMDL
