MODEL 1
REMARK VINA RESULT:      -7.6      0.000      0.000
REMARK  13 active torsions:
REMARK  status: ('A' for Active; 'I' for Inactive)
REMARK    1  A    between atoms: C_2  and  C_4 
REMARK    2  A    between atoms: C_4  and  C_5 
REMARK    3  A    between atoms: C_4  and  N_11 
REMARK    4  A    between atoms: C_5  and  O_6 
REMARK    5  A    between atoms: O_6  and  P_7 
REMARK    6  A    between atoms: P_7  and  O_9 
REMARK       I    between atoms: N_11  and  C_12 
REMARK    7  A    between atoms: C_12  and  C_13 
REMARK    8  A    between atoms: C_13  and  C_14 
REMARK    9  A    between atoms: C_13  and  N_26 
REMARK   10  A    between atoms: C_14  and  C_15 
REMARK   11  A    between atoms: C_18  and  O_19 
REMARK   12  A    between atoms: O_19  and  P_20 
REMARK   13  A    between atoms: P_20  and  O_21 
ROOT
HETATM    1  C           1     -33.636  -4.773 -15.531  0.00  0.00     0.278 C 
ENDROOT
BRANCH   1   2
HETATM    2  C           1     -34.165  -3.844 -14.466  0.00  0.00     0.249 C 
HETATM    3  N           1     -34.030  -4.171 -13.144  0.00  0.00    -0.343 N 
HETATM    4  H           1     -33.575  -5.036 -12.880  0.00  0.00     0.163 HD
HETATM    5  O           1     -34.708  -2.811 -14.780  0.00  0.00    -0.271 OA
BRANCH   3   6
HETATM    6  C           1     -34.538  -3.279 -12.120  0.00  0.00     0.210 C 
BRANCH   6   7
HETATM    7  C           1     -33.386  -2.724 -11.319  0.00  0.00     0.198 C 
HETATM    8  O           1     -32.266  -3.277 -11.368  0.00  0.00    -0.646 OA
HETATM    9  O           1     -33.551  -1.711 -10.605  0.00  0.00    -0.646 OA
ENDBRANCH   6   7
BRANCH   6  10
HETATM   10  C           1     -35.473  -4.048 -11.196  0.00  0.00     0.217 C 
BRANCH  10  11
HETATM   11  O           1     -34.719  -4.841 -10.321  0.00  0.00    -0.287 OA
BRANCH  11  12
HETATM   12  P           1     -34.388  -6.338 -10.828  0.00  0.00     0.406 P 
HETATM   13  O           1     -35.234  -6.660 -12.000  0.00  0.00    -0.624 OA
HETATM   14  O           1     -34.667  -7.300  -9.740  0.00  0.00    -0.624 OA
BRANCH  12  15
HETATM   15  O           1     -32.831  -6.432 -11.247  0.00  0.00    -0.300 OA
HETATM   16  H           1     -32.838  -6.585 -12.177  0.00  0.00     0.223 HD
ENDBRANCH  12  15
ENDBRANCH  11  12
ENDBRANCH  10  11
ENDBRANCH   6  10
ENDBRANCH   3   6
ENDBRANCH   1   2
BRANCH   1  17
HETATM   17  C           1     -33.096  -3.955 -16.697  0.00  0.00     0.081 C 
BRANCH  17  18
HETATM   18  C           1     -31.775  -4.511 -17.128  0.00  0.00    -0.056 A 
HETATM   19  C           1     -31.518  -5.875 -17.000  0.00  0.00     0.010 A 
HETATM   20  C           1     -30.286  -6.392 -17.403  0.00  0.00     0.038 A 
HETATM   21  C           1     -29.313  -5.546 -17.934  0.00  0.00     0.081 A 
HETATM   22  C           1     -29.571  -4.181 -18.063  0.00  0.00     0.038 A 
HETATM   23  C           1     -30.803  -3.663 -17.660  0.00  0.00     0.010 A 
BRANCH  21  24
HETATM   24  O           1     -28.118  -6.048 -18.325  0.00  0.00    -0.247 OA
BRANCH  24  25
HETATM   25  P           1     -26.937  -6.141 -17.227  0.00  0.00     0.411 P 
HETATM   26  O           1     -25.645  -6.370 -17.910  0.00  0.00    -0.624 OA
HETATM   27  O           1     -26.875  -4.875 -16.462  0.00  0.00    -0.624 OA
BRANCH  25  28
HETATM   28  O           1     -27.236  -7.366 -16.216  0.00  0.00    -0.300 OA
HETATM   29  H           1     -27.251  -6.975 -15.359  0.00  0.00     0.223 HD
ENDBRANCH  25  28
ENDBRANCH  24  25
ENDBRANCH  21  24
ENDBRANCH  17  18
ENDBRANCH   1  17
BRANCH   1  30
HETATM   30  N           1     -34.743  -5.661 -16.014  0.00  0.00    -0.066 N 
HETATM   31  H           1     -34.414  -6.213 -16.838  0.00  0.00     0.275 HD
HETATM   32  H           1     -35.026  -6.313 -15.249  0.00  0.00     0.275 HD
HETATM   33  H           1     -35.563  -5.075 -16.294  0.00  0.00     0.275 HD
ENDBRANCH   1  30
TORSDOF 13
ENDMDL
MODEL 2
REMARK VINA RESULT:      -7.4     13.580     14.842
REMARK  13 active torsions:
REMARK  status: ('A' for Active; 'I' for Inactive)
REMARK    1  A    between atoms: C_2  and  C_4 
REMARK    2  A    between atoms: C_4  and  C_5 
REMARK    3  A    between atoms: C_4  and  N_11 
REMARK    4  A    between atoms: C_5  and  O_6 
REMARK    5  A    between atoms: O_6  and  P_7 
REMARK    6  A    between atoms: P_7  and  O_9 
REMARK       I    between atoms: N_11  and  C_12 
REMARK    7  A    between atoms: C_12  and  C_13 
REMARK    8  A    between atoms: C_13  and  C_14 
REMARK    9  A    between atoms: C_13  and  N_26 
REMARK   10  A    between atoms: C_14  and  C_15 
REMARK   11  A    between atoms: C_18  and  O_19 
REMARK   12  A    between atoms: O_19  and  P_20 
REMARK   13  A    between atoms: P_20  and  O_21 
ROOT
HETATM    1  C           1     -21.514  -6.756  -4.907  0.00  0.00     0.278 C 
ENDROOT
BRANCH   1   2
HETATM    2  C           1     -20.900  -8.042  -4.413  0.00  0.00     0.249 C 
HETATM    3  N           1     -21.477  -8.722  -3.374  0.00  0.00    -0.343 N 
HETATM    4  H           1     -22.315  -8.362  -2.936  0.00  0.00     0.163 HD
HETATM    5  O           1     -19.898  -8.473  -4.934  0.00  0.00    -0.271 OA
BRANCH   3   6
HETATM    6  C           1     -20.886  -9.958  -2.898  0.00  0.00     0.210 C 
BRANCH   6   7
HETATM    7  C           1     -21.682 -11.129  -3.421  0.00  0.00     0.198 C 
HETATM    8  O           1     -21.163 -12.266  -3.471  0.00  0.00    -0.646 OA
HETATM    9  O           1     -22.860 -10.964  -3.804  0.00  0.00    -0.646 OA
ENDBRANCH   6   7
BRANCH   6  10
HETATM   10  C           1     -20.901  -9.975  -1.376  0.00  0.00     0.217 C 
BRANCH  10  11
HETATM   11  O           1     -22.171  -9.600  -0.916  0.00  0.00    -0.287 OA
BRANCH  11  12
HETATM   12  P           1     -22.232  -8.257  -0.021  0.00  0.00     0.406 P 
HETATM   13  O           1     -21.979  -7.079  -0.880  0.00  0.00    -0.624 OA
HETATM   14  O           1     -21.203  -8.325   1.040  0.00  0.00    -0.624 OA
BRANCH  12  15
HETATM   15  O           1     -23.694  -8.127   0.653  0.00  0.00    -0.300 OA
HETATM   16  H           1     -23.759  -7.226   0.923  0.00  0.00     0.223 HD
ENDBRANCH  12  15
ENDBRANCH  11  12
ENDBRANCH  10  11
ENDBRANCH   6  10
ENDBRANCH   3   6
ENDBRANCH   1   2
BRANCH   1  17
HETATM   17  C           1     -20.434  -5.884  -5.533  0.00  0.00     0.081 C 
BRANCH  17  18
HETATM   18  C           1     -20.953  -5.278  -6.800  0.00  0.00    -0.056 A 
HETATM   19  C           1     -20.174  -5.307  -7.956  0.00  0.00     0.010 A 
HETATM   20  C           1     -20.659  -4.743  -9.136  0.00  0.00     0.038 A 
HETATM   21  C           1     -21.921  -4.151  -9.160  0.00  0.00     0.081 A 
HETATM   22  C           1     -22.701  -4.123  -8.003  0.00  0.00     0.038 A 
HETATM   23  C           1     -22.216  -4.687  -6.823  0.00  0.00     0.010 A 
BRANCH  21  24
HETATM   24  O           1     -22.392  -3.604 -10.306  0.00  0.00    -0.247 OA
BRANCH  24  25
HETATM   25  P           1     -23.686  -4.281 -10.995  0.00  0.00     0.411 P 
HETATM   26  O           1     -24.026  -5.532 -10.283  0.00  0.00    -0.624 OA
HETATM   27  O           1     -24.830  -3.344 -10.923  0.00  0.00    -0.624 OA
BRANCH  25  28
HETATM   28  O           1     -23.361  -4.614 -12.543  0.00  0.00    -0.300 OA
HETATM   29  H           1     -23.335  -5.554 -12.588  0.00  0.00     0.223 HD
ENDBRANCH  25  28
ENDBRANCH  24  25
ENDBRANCH  21  24
ENDBRANCH  17  18
ENDBRANCH   1  17
BRANCH   1  30
HETATM   30  N           1     -22.140  -6.027  -3.756  0.00  0.00    -0.066 N 
HETATM   31  H           1     -21.679  -6.320  -2.864  0.00  0.00     0.275 HD
HETATM   32  H           1     -22.019  -4.997  -3.888  0.00  0.00     0.275 HD
HETATM   33  H           1     -23.159  -6.255  -3.711  0.00  0.00     0.275 HD
ENDBRANCH   1  30
TORSDOF 13
ENDMDL
MODEL 3
REMARK VINA RESULT:      -7.1      2.591      3.844
REMARK  13 active torsions:
REMARK  status: ('A' for Active; 'I' for Inactive)
REMARK    1  A    between atoms: C_2  and  C_4 
REMARK    2  A    between atoms: C_4  and  C_5 
REMARK    3  A    between atoms: C_4  and  N_11 
REMARK    4  A    between atoms: C_5  and  O_6 
REMARK    5  A    between atoms: O_6  and  P_7 
REMARK    6  A    between atoms: P_7  and  O_9 
REMARK       I    between atoms: N_11  and  C_12 
REMARK    7  A    between atoms: C_12  and  C_13 
REMARK    8  A    between atoms: C_13  and  C_14 
REMARK    9  A    between atoms: C_13  and  N_26 
REMARK   10  A    between atoms: C_14  and  C_15 
REMARK   11  A    between atoms: C_18  and  O_19 
REMARK   12  A    between atoms: O_19  and  P_20 
REMARK   13  A    between atoms: P_20  and  O_21 
ROOT
HETATM    1  C           1     -32.742  -3.981 -17.379  0.00  0.00     0.278 C 
ENDROOT
BRANCH   1   2
HETATM    2  C           1     -33.869  -3.531 -16.482  0.00  0.00     0.249 C 
HETATM    3  N           1     -34.401  -2.279 -16.627  0.00  0.00    -0.343 N 
HETATM    4  H           1     -34.039  -1.653 -17.335  0.00  0.00     0.163 HD
HETATM    5  O           1     -34.303  -4.277 -15.635  0.00  0.00    -0.271 OA
BRANCH   3   6
HETATM    6  C           1     -35.485  -1.846 -15.765  0.00  0.00     0.210 C 
BRANCH   6   7
HETATM    7  C           1     -36.360  -0.868 -16.509  0.00  0.00     0.198 C 
HETATM    8  O           1     -35.960   0.299 -16.715  0.00  0.00    -0.646 OA
HETATM    9  O           1     -37.485  -1.223 -16.921  0.00  0.00    -0.646 OA
ENDBRANCH   6   7
BRANCH   6  10
HETATM   10  C           1     -34.909  -1.170 -14.527  0.00  0.00     0.217 C 
BRANCH  10  11
HETATM   11  O           1     -35.635  -1.568 -13.396  0.00  0.00    -0.287 OA
BRANCH  11  12
HETATM   12  P           1     -34.788  -2.306 -12.235  0.00  0.00     0.406 P 
HETATM   13  O           1     -35.710  -3.043 -11.343  0.00  0.00    -0.624 OA
HETATM   14  O           1     -34.044  -1.296 -11.450  0.00  0.00    -0.624 OA
BRANCH  12  15
HETATM   15  O           1     -33.746  -3.342 -12.907  0.00  0.00    -0.300 OA
HETATM   16  H           1     -33.482  -2.933 -13.714  0.00  0.00     0.223 HD
ENDBRANCH  12  15
ENDBRANCH  11  12
ENDBRANCH  10  11
ENDBRANCH   6  10
ENDBRANCH   3   6
ENDBRANCH   1   2
BRANCH   1  17
HETATM   17  C           1     -32.230  -5.337 -16.911  0.00  0.00     0.081 C 
BRANCH  17  18
HETATM   18  C           1     -30.736  -5.307 -16.833  0.00  0.00    -0.056 A 
HETATM   19  C           1     -30.104  -5.238 -15.591  0.00  0.00     0.010 A 
HETATM   20  C           1     -28.711  -5.210 -15.519  0.00  0.00     0.038 A 
HETATM   21  C           1     -27.950  -5.252 -16.688  0.00  0.00     0.081 A 
HETATM   22  C           1     -28.583  -5.322 -17.930  0.00  0.00     0.038 A 
HETATM   23  C           1     -29.976  -5.349 -18.002  0.00  0.00     0.010 A 
BRANCH  21  24
HETATM   24  O           1     -26.598  -5.225 -16.618  0.00  0.00    -0.247 OA
BRANCH  24  25
HETATM   25  P           1     -25.844  -6.516 -16.007  0.00  0.00     0.411 P 
HETATM   26  O           1     -26.848  -7.502 -15.549  0.00  0.00    -0.624 OA
HETATM   27  O           1     -24.990  -7.128 -17.050  0.00  0.00    -0.624 OA
BRANCH  25  28
HETATM   28  O           1     -24.925  -6.064 -14.758  0.00  0.00    -0.300 OA
HETATM   29  H           1     -24.101  -6.498 -14.892  0.00  0.00     0.223 HD
ENDBRANCH  25  28
ENDBRANCH  24  25
ENDBRANCH  21  24
ENDBRANCH  17  18
ENDBRANCH   1  17
BRANCH   1  30
HETATM   30  N           1     -31.628  -2.980 -17.321  0.00  0.00    -0.066 N 
HETATM   31  H           1     -30.732  -3.467 -17.093  0.00  0.00     0.275 HD
HETATM   32  H           1     -31.540  -2.503 -18.247  0.00  0.00     0.275 HD
HETATM   33  H           1     -31.836  -2.270 -16.582  0.00  0.00     0.275 HD
ENDBRANCH   1  30
TORSDOF 13
ENDMDL
MODEL 4
REMARK VINA RESULT:      -7.0     14.042     15.728
REMARK  13 active torsions:
REMARK  status: ('A' for Active; 'I' for Inactive)
REMARK    1  A    between atoms: C_2  and  C_4 
REMARK    2  A    between atoms: C_4  and  C_5 
REMARK    3  A    between atoms: C_4  and  N_11 
REMARK    4  A    between atoms: C_5  and  O_6 
REMARK    5  A    between atoms: O_6  and  P_7 
REMARK    6  A    between atoms: P_7  and  O_9 
REMARK       I    between atoms: N_11  and  C_12 
REMARK    7  A    between atoms: C_12  and  C_13 
REMARK    8  A    between atoms: C_13  and  C_14 
REMARK    9  A    between atoms: C_13  and  N_26 
REMARK   10  A    between atoms: C_14  and  C_15 
REMARK   11  A    between atoms: C_18  and  O_19 
REMARK   12  A    between atoms: O_19  and  P_20 
REMARK   13  A    between atoms: P_20  and  O_21 
ROOT
HETATM    1  C           1     -21.299  -6.102  -4.904  0.00  0.00     0.278 C 
ENDROOT
BRANCH   1   2
HETATM    2  C           1     -20.940  -7.555  -5.093  0.00  0.00     0.249 C 
HETATM    3  N           1     -20.205  -8.208  -4.140  0.00  0.00    -0.343 N 
HETATM    4  H           1     -19.902  -7.716  -3.309  0.00  0.00     0.163 HD
HETATM    5  O           1     -21.301  -8.143  -6.085  0.00  0.00    -0.271 OA
BRANCH   3   6
HETATM    6  C           1     -19.860  -9.605  -4.322  0.00  0.00     0.210 C 
BRANCH   6   7
HETATM    7  C           1     -19.977 -10.327  -3.002  0.00  0.00     0.198 C 
HETATM    8  O           1     -19.887 -11.574  -2.961  0.00  0.00    -0.646 OA
HETATM    9  O           1     -20.164  -9.680  -1.949  0.00  0.00    -0.646 OA
ENDBRANCH   6   7
BRANCH   6  10
HETATM   10  C           1     -18.429  -9.711  -4.832  0.00  0.00     0.217 C 
BRANCH  10  11
HETATM   11  O           1     -17.538  -9.425  -3.788  0.00  0.00    -0.287 OA
BRANCH  11  12
HETATM   12  P           1     -16.319 -10.467  -3.593  0.00  0.00     0.406 P 
HETATM   13  O           1     -15.598 -10.155  -2.339  0.00  0.00    -0.624 OA
HETATM   14  O           1     -15.388 -10.356  -4.738  0.00  0.00    -0.624 OA
BRANCH  12  15
HETATM   15  O           1     -16.905 -11.970  -3.517  0.00  0.00    -0.300 OA
HETATM   16  H           1     -17.798 -11.869  -3.232  0.00  0.00     0.223 HD
ENDBRANCH  12  15
ENDBRANCH  11  12
ENDBRANCH  10  11
ENDBRANCH   6  10
ENDBRANCH   3   6
ENDBRANCH   1   2
BRANCH   1  17
HETATM   17  C           1     -20.273  -5.228  -5.614  0.00  0.00     0.081 C 
BRANCH  17  18
HETATM   18  C           1     -20.814  -4.803  -6.944  0.00  0.00    -0.056 A 
HETATM   19  C           1     -20.113  -5.108  -8.110  0.00  0.00     0.010 A 
HETATM   20  C           1     -20.618  -4.712  -9.349  0.00  0.00     0.038 A 
HETATM   21  C           1     -21.822  -4.012  -9.421  0.00  0.00     0.081 A 
HETATM   22  C           1     -22.523  -3.708  -8.254  0.00  0.00     0.038 A 
HETATM   23  C           1     -22.019  -4.104  -7.015  0.00  0.00     0.010 A 
BRANCH  21  24
HETATM   24  O           1     -22.312  -3.629 -10.624  0.00  0.00    -0.247 OA
BRANCH  24  25
HETATM   25  P           1     -23.684  -4.309 -11.138  0.00  0.00     0.411 P 
HETATM   26  O           1     -23.965  -5.519 -10.334  0.00  0.00    -0.624 OA
HETATM   27  O           1     -24.798  -3.346 -10.987  0.00  0.00    -0.624 OA
BRANCH  25  28
HETATM   28  O           1     -23.534  -4.719 -12.693  0.00  0.00    -0.300 OA
HETATM   29  H           1     -22.880  -4.135 -13.036  0.00  0.00     0.223 HD
ENDBRANCH  25  28
ENDBRANCH  24  25
ENDBRANCH  21  24
ENDBRANCH  17  18
ENDBRANCH   1  17
BRANCH   1  30
HETATM   30  N           1     -21.307  -5.775  -3.441  0.00  0.00    -0.066 N 
HETATM   31  H           1     -20.357  -5.450  -3.150  0.00  0.00     0.275 HD
HETATM   32  H           1     -22.004  -5.019  -3.256  0.00  0.00     0.275 HD
HETATM   33  H           1     -21.564  -6.628  -2.895  0.00  0.00     0.275 HD
ENDBRANCH   1  30
TORSDOF 13
ENDMDL
MODEL 5
REMARK VINA RESULT:      -6.9      3.295      4.075
REMARK  13 active torsions:
REMARK  status: ('A' for Active; 'I' for Inactive)
REMARK    1  A    between atoms: C_2  and  C_4 
REMARK    2  A    between atoms: C_4  and  C_5 
REMARK    3  A    between atoms: C_4  and  N_11 
REMARK    4  A    between atoms: C_5  and  O_6 
REMARK    5  A    between atoms: O_6  and  P_7 
REMARK    6  A    between atoms: P_7  and  O_9 
REMARK       I    between atoms: N_11  and  C_12 
REMARK    7  A    between atoms: C_12  and  C_13 
REMARK    8  A    between atoms: C_13  and  C_14 
REMARK    9  A    between atoms: C_13  and  N_26 
REMARK   10  A    between atoms: C_14  and  C_15 
REMARK   11  A    between atoms: C_18  and  O_19 
REMARK   12  A    between atoms: O_19  and  P_20 
REMARK   13  A    between atoms: P_20  and  O_21 
ROOT
HETATM    1  C           1     -33.723  -3.538 -16.179  0.00  0.00     0.278 C 
ENDROOT
BRANCH   1   2
HETATM    2  C           1     -34.654  -2.358 -16.321  0.00  0.00     0.249 C 
HETATM    3  N           1     -35.067  -1.675 -15.209  0.00  0.00    -0.343 N 
HETATM    4  H           1     -34.749  -1.961 -14.291  0.00  0.00     0.163 HD
HETATM    5  O           1     -35.035  -2.017 -17.415  0.00  0.00    -0.271 OA
BRANCH   3   6
HETATM    6  C           1     -35.962  -0.542 -15.345  0.00  0.00     0.210 C 
BRANCH   6   7
HETATM    7  C           1     -35.180   0.739 -15.179  0.00  0.00     0.198 C 
HETATM    8  O           1     -35.576   1.789 -15.729  0.00  0.00    -0.646 OA
HETATM    9  O           1     -34.136   0.750 -14.493  0.00  0.00    -0.646 OA
ENDBRANCH   6   7
BRANCH   6  10
HETATM   10  C           1     -37.042  -0.617 -14.274  0.00  0.00     0.217 C 
BRANCH  10  11
HETATM   11  O           1     -36.547  -1.306 -13.158  0.00  0.00    -0.287 OA
BRANCH  11  12
HETATM   12  P           1     -36.575  -0.498 -11.759  0.00  0.00     0.406 P 
HETATM   13  O           1     -36.487  -1.456 -10.634  0.00  0.00    -0.624 OA
HETATM   14  O           1     -37.837   0.267 -11.657  0.00  0.00    -0.624 OA
BRANCH  12  15
HETATM   15  O           1     -35.321   0.518 -11.700  0.00  0.00    -0.300 OA
HETATM   16  H           1     -35.392   0.944 -10.862  0.00  0.00     0.223 HD
ENDBRANCH  12  15
ENDBRANCH  11  12
ENDBRANCH  10  11
ENDBRANCH   6  10
ENDBRANCH   3   6
ENDBRANCH   1   2
BRANCH   1  17
HETATM   17  C           1     -32.918  -3.707 -17.461  0.00  0.00     0.081 C 
BRANCH  17  18
HETATM   18  C           1     -31.495  -4.020 -17.119  0.00  0.00    -0.056 A 
HETATM   19  C           1     -30.461  -3.281 -17.693  0.00  0.00     0.010 A 
HETATM   20  C           1     -29.135  -3.572 -17.373  0.00  0.00     0.038 A 
HETATM   21  C           1     -28.843  -4.603 -16.479  0.00  0.00     0.081 A 
HETATM   22  C           1     -29.877  -5.341 -15.904  0.00  0.00     0.038 A 
HETATM   23  C           1     -31.203  -5.050 -16.224  0.00  0.00     0.010 A 
BRANCH  21  24
HETATM   24  O           1     -27.555  -4.886 -16.168  0.00  0.00    -0.247 OA
BRANCH  24  25
HETATM   25  P           1     -26.960  -6.315 -16.626  0.00  0.00     0.411 P 
HETATM   26  O           1     -25.546  -6.155 -17.030  0.00  0.00    -0.624 OA
HETATM   27  O           1     -27.047  -7.269 -15.497  0.00  0.00    -0.624 OA
BRANCH  25  28
HETATM   28  O           1     -27.816  -6.881 -17.874  0.00  0.00    -0.300 OA
HETATM   29  H           1     -27.358  -6.578 -18.639  0.00  0.00     0.223 HD
ENDBRANCH  25  28
ENDBRANCH  24  25
ENDBRANCH  21  24
ENDBRANCH  17  18
ENDBRANCH   1  17
BRANCH   1  30
HETATM   30  N           1     -34.525  -4.779 -15.925  0.00  0.00    -0.066 N 
HETATM   31  H           1     -35.414  -4.527 -15.436  0.00  0.00     0.275 HD
HETATM   32  H           1     -34.748  -5.242 -16.835  0.00  0.00     0.275 HD
HETATM   33  H           1     -33.973  -5.434 -15.327  0.00  0.00     0.275 HD
ENDBRANCH   1  30
TORSDOF 13
ENDMDL
MODEL 6
REMARK VINA RESULT:      -6.7      2.270      3.813
REMARK  13 active torsions:
REMARK  status: ('A' for Active; 'I' for Inactive)
REMARK    1  A    between atoms: C_2  and  C_4 
REMARK    2  A    between atoms: C_4  and  C_5 
REMARK    3  A    between atoms: C_4  and  N_11 
REMARK    4  A    between atoms: C_5  and  O_6 
REMARK    5  A    between atoms: O_6  and  P_7 
REMARK    6  A    between atoms: P_7  and  O_9 
REMARK       I    between atoms: N_11  and  C_12 
REMARK    7  A    between atoms: C_12  and  C_13 
REMARK    8  A    between atoms: C_13  and  C_14 
REMARK    9  A    between atoms: C_13  and  N_26 
REMARK   10  A    between atoms: C_14  and  C_15 
REMARK   11  A    between atoms: C_18  and  O_19 
REMARK   12  A    between atoms: O_19  and  P_20 
REMARK   13  A    between atoms: P_20  and  O_21 
ROOT
HETATM    1  C           1     -33.764  -4.798 -15.286  0.00  0.00     0.278 C 
ENDROOT
BRANCH   1   2
HETATM    2  C           1     -33.743  -3.943 -14.043  0.00  0.00     0.249 C 
HETATM    3  N           1     -34.719  -3.005 -13.841  0.00  0.00    -0.343 N 
HETATM    4  H           1     -35.455  -2.885 -14.525  0.00  0.00     0.163 HD
HETATM    5  O           1     -32.864  -4.085 -13.226  0.00  0.00    -0.271 OA
BRANCH   3   6
HETATM    6  C           1     -34.699  -2.182 -12.647  0.00  0.00     0.210 C 
BRANCH   6   7
HETATM    7  C           1     -35.595  -2.795 -11.598  0.00  0.00     0.198 C 
HETATM    8  O           1     -35.550  -4.025 -11.379  0.00  0.00    -0.646 OA
HETATM    9  O           1     -36.381  -2.074 -10.948  0.00  0.00    -0.646 OA
ENDBRANCH   6   7
BRANCH   6  10
HETATM   10  C           1     -35.199  -0.784 -12.986  0.00  0.00     0.217 C 
BRANCH  10  11
HETATM   11  O           1     -36.222  -0.872 -13.940  0.00  0.00    -0.287 OA
BRANCH  11  12
HETATM   12  P           1     -35.972  -0.072 -15.320  0.00  0.00     0.406 P 
HETATM   13  O           1     -37.221  -0.055 -16.115  0.00  0.00    -0.624 OA
HETATM   14  O           1     -34.905  -0.744 -16.094  0.00  0.00    -0.624 OA
BRANCH  12  15
HETATM   15  O           1     -35.525   1.445 -14.988  0.00  0.00    -0.300 OA
HETATM   16  H           1     -36.333   1.916 -14.867  0.00  0.00     0.223 HD
ENDBRANCH  12  15
ENDBRANCH  11  12
ENDBRANCH  10  11
ENDBRANCH   6  10
ENDBRANCH   3   6
ENDBRANCH   1   2
BRANCH   1  17
HETATM   17  C           1     -33.279  -3.979 -16.475  0.00  0.00     0.081 C 
BRANCH  17  18
HETATM   18  C           1     -31.962  -4.513 -16.945  0.00  0.00    -0.056 A 
HETATM   19  C           1     -31.699  -5.880 -16.877  0.00  0.00     0.010 A 
HETATM   20  C           1     -30.471  -6.376 -17.316  0.00  0.00     0.038 A 
HETATM   21  C           1     -29.507  -5.505 -17.822  0.00  0.00     0.081 A 
HETATM   22  C           1     -29.770  -4.137 -17.892  0.00  0.00     0.038 A 
HETATM   23  C           1     -30.998  -3.641 -17.453  0.00  0.00     0.010 A 
BRANCH  21  24
HETATM   24  O           1     -28.315  -5.987 -18.249  0.00  0.00    -0.247 OA
BRANCH  24  25
HETATM   25  P           1     -27.103  -6.064 -17.184  0.00  0.00     0.411 P 
HETATM   26  O           1     -26.895  -4.732 -16.576  0.00  0.00    -0.624 OA
HETATM   27  O           1     -27.438  -7.044 -16.126  0.00  0.00    -0.624 OA
BRANCH  25  28
HETATM   28  O           1     -25.752  -6.529 -17.937  0.00  0.00    -0.300 OA
HETATM   29  H           1     -25.116  -6.639 -17.251  0.00  0.00     0.223 HD
ENDBRANCH  25  28
ENDBRANCH  24  25
ENDBRANCH  21  24
ENDBRANCH  17  18
ENDBRANCH   1  17
BRANCH   1  30
HETATM   30  N           1     -35.163  -5.272 -15.542  0.00  0.00    -0.066 N 
HETATM   31  H           1     -35.706  -5.258 -14.649  0.00  0.00     0.275 HD
HETATM   32  H           1     -35.622  -4.642 -16.238  0.00  0.00     0.275 HD
HETATM   33  H           1     -35.137  -6.246 -15.918  0.00  0.00     0.275 HD
ENDBRANCH   1  30
TORSDOF 13
ENDMDL
MODEL 7
REMARK VINA RESULT:      -6.5      2.812      3.787
REMARK  13 active torsions:
REMARK  status: ('A' for Active; 'I' for Inactive)
REMARK    1  A    between atoms: C_2  and  C_4 
REMARK    2  A    between atoms: C_4  and  C_5 
REMARK    3  A    between atoms: C_4  and  N_11 
REMARK    4  A    between atoms: C_5  and  O_6 
REMARK    5  A    between atoms: O_6  and  P_7 
REMARK    6  A    between atoms: P_7  and  O_9 
REMARK       I    between atoms: N_11  and  C_12 
REMARK    7  A    between atoms: C_12  and  C_13 
REMARK    8  A    between atoms: C_13  and  C_14 
REMARK    9  A    between atoms: C_13  and  N_26 
REMARK   10  A    between atoms: C_14  and  C_15 
REMARK   11  A    between atoms: C_18  and  O_19 
REMARK   12  A    between atoms: O_19  and  P_20 
REMARK   13  A    between atoms: P_20  and  O_21 
ROOT
HETATM    1  C           1     -32.090  -4.091 -17.756  0.00  0.00     0.278 C 
ENDROOT
BRANCH   1   2
HETATM    2  C           1     -33.281  -3.868 -16.857  0.00  0.00     0.249 C 
HETATM    3  N           1     -33.639  -4.823 -15.944  0.00  0.00    -0.343 N 
HETATM    4  H           1     -33.104  -5.679 -15.872  0.00  0.00     0.163 HD
HETATM    5  O           1     -33.921  -2.846 -16.943  0.00  0.00    -0.271 OA
BRANCH   3   6
HETATM    6  C           1     -34.784  -4.609 -15.080  0.00  0.00     0.210 C 
BRANCH   6   7
HETATM    7  C           1     -34.345  -3.877 -13.835  0.00  0.00     0.198 C 
HETATM    8  O           1     -34.655  -2.677 -13.673  0.00  0.00    -0.646 OA
HETATM    9  O           1     -33.671  -4.470 -12.966  0.00  0.00    -0.646 OA
ENDBRANCH   6   7
BRANCH   6  10
HETATM   10  C           1     -35.384  -5.953 -14.692  0.00  0.00     0.217 C 
BRANCH  10  11
HETATM   11  O           1     -35.368  -6.810 -15.801  0.00  0.00    -0.287 OA
BRANCH  11  12
HETATM   12  P           1     -36.799  -7.404 -16.257  0.00  0.00     0.406 P 
HETATM   13  O           1     -37.786  -6.303 -16.343  0.00  0.00    -0.624 OA
HETATM   14  O           1     -37.259  -8.401 -15.266  0.00  0.00    -0.624 OA
BRANCH  12  15
HETATM   15  O           1     -36.652  -8.108 -17.704  0.00  0.00    -0.300 OA
HETATM   16  H           1     -37.338  -8.754 -17.731  0.00  0.00     0.223 HD
ENDBRANCH  12  15
ENDBRANCH  11  12
ENDBRANCH  10  11
ENDBRANCH   6  10
ENDBRANCH   3   6
ENDBRANCH   1   2
BRANCH   1  17
HETATM   17  C           1     -31.591  -5.520 -17.593  0.00  0.00     0.081 C 
BRANCH  17  18
HETATM   18  C           1     -30.117  -5.508 -17.331  0.00  0.00    -0.056 A 
HETATM   19  C           1     -29.641  -5.318 -16.035  0.00  0.00     0.010 A 
HETATM   20  C           1     -28.267  -5.308 -15.792  0.00  0.00     0.038 A 
HETATM   21  C           1     -27.370  -5.486 -16.845  0.00  0.00     0.081 A 
HETATM   22  C           1     -27.847  -5.677 -18.142  0.00  0.00     0.038 A 
HETATM   23  C           1     -29.221  -5.688 -18.385  0.00  0.00     0.010 A 
BRANCH  21  24
HETATM   24  O           1     -26.037  -5.476 -16.609  0.00  0.00    -0.247 OA
BRANCH  24  25
HETATM   25  P           1     -25.399  -6.720 -15.799  0.00  0.00     0.411 P 
HETATM   26  O           1     -26.469  -7.680 -15.449  0.00  0.00    -0.624 OA
HETATM   27  O           1     -24.389  -7.393 -16.646  0.00  0.00    -0.624 OA
BRANCH  25  28
HETATM   28  O           1     -24.696  -6.181 -14.449  0.00  0.00    -0.300 OA
HETATM   29  H           1     -24.064  -6.842 -14.223  0.00  0.00     0.223 HD
ENDBRANCH  25  28
ENDBRANCH  24  25
ENDBRANCH  21  24
ENDBRANCH  17  18
ENDBRANCH   1  17
BRANCH   1  30
HETATM   30  N           1     -30.997  -3.135 -17.384  0.00  0.00    -0.066 N 
HETATM   31  H           1     -31.359  -2.155 -17.430  0.00  0.00     0.275 HD
HETATM   32  H           1     -30.671  -3.340 -16.412  0.00  0.00     0.275 HD
HETATM   33  H           1     -30.199  -3.242 -18.049  0.00  0.00     0.275 HD
ENDBRANCH   1  30
TORSDOF 13
ENDMDL
MODEL 8
REMARK VINA RESULT:      -6.5     13.276     14.698
REMARK  13 active torsions:
REMARK  status: ('A' for Active; 'I' for Inactive)
REMARK    1  A    between atoms: C_2  and  C_4 
REMARK    2  A    between atoms: C_4  and  C_5 
REMARK    3  A    between atoms: C_4  and  N_11 
REMARK    4  A    between atoms: C_5  and  O_6 
REMARK    5  A    between atoms: O_6  and  P_7 
REMARK    6  A    between atoms: P_7  and  O_9 
REMARK       I    between atoms: N_11  and  C_12 
REMARK    7  A    between atoms: C_12  and  C_13 
REMARK    8  A    between atoms: C_13  and  C_14 
REMARK    9  A    between atoms: C_13  and  N_26 
REMARK   10  A    between atoms: C_14  and  C_15 
REMARK   11  A    between atoms: C_18  and  O_19 
REMARK   12  A    between atoms: O_19  and  P_20 
REMARK   13  A    between atoms: P_20  and  O_21 
ROOT
HETATM    1  C           1     -21.077  -7.022  -4.904  0.00  0.00     0.278 C 
ENDROOT
BRANCH   1   2
HETATM    2  C           1     -20.583  -8.434  -4.705  0.00  0.00     0.249 C 
HETATM    3  N           1     -21.449  -9.486  -4.835  0.00  0.00    -0.343 N 
HETATM    4  H           1     -22.420  -9.318  -5.064  0.00  0.00     0.163 HD
HETATM    5  O           1     -19.424  -8.636  -4.431  0.00  0.00    -0.271 OA
BRANCH   3   6
HETATM    6  C           1     -20.975 -10.843  -4.643  0.00  0.00     0.210 C 
BRANCH   6   7
HETATM    7  C           1     -20.636 -11.452  -5.982  0.00  0.00     0.198 C 
HETATM    8  O           1     -21.450 -11.376  -6.928  0.00  0.00    -0.646 OA
HETATM    9  O           1     -19.541 -12.032  -6.146  0.00  0.00    -0.646 OA
ENDBRANCH   6   7
BRANCH   6  10
HETATM   10  C           1     -22.064 -11.670  -3.972  0.00  0.00     0.217 C 
BRANCH  10  11
HETATM   11  O           1     -22.920 -10.823  -3.256  0.00  0.00    -0.287 OA
BRANCH  11  12
HETATM   12  P           1     -22.886 -10.978  -1.649  0.00  0.00     0.406 P 
HETATM   13  O           1     -24.212 -11.427  -1.167  0.00  0.00    -0.624 OA
HETATM   14  O           1     -22.554  -9.674  -1.034  0.00  0.00    -0.624 OA
BRANCH  12  15
HETATM   15  O           1     -21.768 -12.069  -1.238  0.00  0.00    -0.300 OA
HETATM   16  H           1     -21.020 -11.866  -1.774  0.00  0.00     0.223 HD
ENDBRANCH  12  15
ENDBRANCH  11  12
ENDBRANCH  10  11
ENDBRANCH   6  10
ENDBRANCH   3   6
ENDBRANCH   1   2
BRANCH   1  17
HETATM   17  C           1     -20.069  -6.244  -5.740  0.00  0.00     0.081 C 
BRANCH  17  18
HETATM   18  C           1     -20.790  -5.464  -6.795  0.00  0.00    -0.056 A 
HETATM   19  C           1     -20.160  -5.180  -8.006  0.00  0.00     0.010 A 
HETATM   20  C           1     -20.834  -4.454  -8.988  0.00  0.00     0.038 A 
HETATM   21  C           1     -22.136  -4.012  -8.760  0.00  0.00     0.081 A 
HETATM   22  C           1     -22.767  -4.296  -7.548  0.00  0.00     0.038 A 
HETATM   23  C           1     -22.094  -5.023  -6.566  0.00  0.00     0.010 A 
BRANCH  21  24
HETATM   24  O           1     -22.790  -3.307  -9.714  0.00  0.00    -0.247 OA
BRANCH  24  25
HETATM   25  P           1     -23.732  -4.118 -10.745  0.00  0.00     0.411 P 
HETATM   26  O           1     -23.000  -4.340 -12.011  0.00  0.00    -0.624 OA
HETATM   27  O           1     -24.103  -5.423 -10.152  0.00  0.00    -0.624 OA
BRANCH  25  28
HETATM   28  O           1     -25.070  -3.262 -11.040  0.00  0.00    -0.300 OA
HETATM   29  H           1     -24.764  -2.450 -11.406  0.00  0.00     0.223 HD
ENDBRANCH  25  28
ENDBRANCH  24  25
ENDBRANCH  21  24
ENDBRANCH  17  18
ENDBRANCH   1  17
BRANCH   1  30
HETATM   30  N           1     -21.239  -6.356  -3.571  0.00  0.00    -0.066 N 
HETATM   31  H           1     -22.242  -6.397  -3.279  0.00  0.00     0.275 HD
HETATM   32  H           1     -20.651  -6.849  -2.862  0.00  0.00     0.275 HD
HETATM   33  H           1     -20.938  -5.358  -3.640  0.00  0.00     0.275 HD
ENDBRANCH   1  30
TORSDOF 13
ENDMDL
MODEL 9
REMARK VINA RESULT:      -6.3      2.259      3.675
REMARK  13 active torsions:
REMARK  status: ('A' for Active; 'I' for Inactive)
REMARK    1  A    between atoms: C_2  and  C_4 
REMARK    2  A    between atoms: C_4  and  C_5 
REMARK    3  A    between atoms: C_4  and  N_11 
REMARK    4  A    between atoms: C_5  and  O_6 
REMARK    5  A    between atoms: O_6  and  P_7 
REMARK    6  A    between atoms: P_7  and  O_9 
REMARK       I    between atoms: N_11  and  C_12 
REMARK    7  A    between atoms: C_12  and  C_13 
REMARK    8  A    between atoms: C_13  and  C_14 
REMARK    9  A    between atoms: C_13  and  N_26 
REMARK   10  A    between atoms: C_14  and  C_15 
REMARK   11  A    between atoms: C_18  and  O_19 
REMARK   12  A    between atoms: O_19  and  P_20 
REMARK   13  A    between atoms: P_20  and  O_21 
ROOT
HETATM    1  C           1     -32.405  -4.311 -16.958  0.00  0.00     0.278 C 
ENDROOT
BRANCH   1   2
HETATM    2  C           1     -32.516  -4.405 -15.456  0.00  0.00     0.249 C 
HETATM    3  N           1     -33.690  -4.075 -14.834  0.00  0.00    -0.343 N 
HETATM    4  H           1     -34.484  -3.767 -15.381  0.00  0.00     0.163 HD
HETATM    5  O           1     -31.569  -4.771 -14.802  0.00  0.00    -0.271 OA
BRANCH   3   6
HETATM    6  C           1     -33.797  -4.165 -13.390  0.00  0.00     0.210 C 
BRANCH   6   7
HETATM    7  C           1     -34.681  -5.331 -13.023  0.00  0.00     0.198 C 
HETATM    8  O           1     -35.398  -5.871 -13.893  0.00  0.00    -0.646 OA
HETATM    9  O           1     -34.697  -5.758 -11.848  0.00  0.00    -0.646 OA
ENDBRANCH   6   7
BRANCH   6  10
HETATM   10  C           1     -34.403  -2.878 -12.846  0.00  0.00     0.217 C 
BRANCH  10  11
HETATM   11  O           1     -34.786  -2.053 -13.913  0.00  0.00    -0.287 OA
BRANCH  11  12
HETATM   12  P           1     -35.513  -0.669 -13.510  0.00  0.00     0.406 P 
HETATM   13  O           1     -35.618   0.200 -14.704  0.00  0.00    -0.624 OA
HETATM   14  O           1     -34.721   0.020 -12.467  0.00  0.00    -0.624 OA
BRANCH  12  15
HETATM   15  O           1     -36.993  -0.984 -12.944  0.00  0.00    -0.300 OA
HETATM   16  H           1     -37.139  -0.340 -12.272  0.00  0.00     0.223 HD
ENDBRANCH  12  15
ENDBRANCH  11  12
ENDBRANCH  10  11
ENDBRANCH   6  10
ENDBRANCH   3   6
ENDBRANCH   1   2
BRANCH   1  17
HETATM   17  C           1     -31.235  -3.409 -17.326  0.00  0.00     0.081 C 
BRANCH  17  18
HETATM   18  C           1     -29.976  -4.218 -17.371  0.00  0.00    -0.056 A 
HETATM   19  C           1     -29.990  -5.501 -17.918  0.00  0.00     0.010 A 
HETATM   20  C           1     -28.816  -6.253 -17.960  0.00  0.00     0.038 A 
HETATM   21  C           1     -27.629  -5.724 -17.455  0.00  0.00     0.081 A 
HETATM   22  C           1     -27.615  -4.440 -16.908  0.00  0.00     0.038 A 
HETATM   23  C           1     -28.789  -3.688 -16.866  0.00  0.00     0.010 A 
BRANCH  21  24
HETATM   24  O           1     -26.489  -6.455 -17.496  0.00  0.00    -0.247 OA
BRANCH  24  25
HETATM   25  P           1     -25.821  -6.898 -16.094  0.00  0.00     0.411 P 
HETATM   26  O           1     -24.845  -7.984 -16.335  0.00  0.00    -0.624 OA
HETATM   27  O           1     -25.129  -5.737 -15.489  0.00  0.00    -0.624 OA
BRANCH  25  28
HETATM   28  O           1     -26.972  -7.421 -15.089  0.00  0.00    -0.300 OA
HETATM   29  H           1     -27.602  -7.849 -15.643  0.00  0.00     0.223 HD
ENDBRANCH  25  28
ENDBRANCH  24  25
ENDBRANCH  21  24
ENDBRANCH  17  18
ENDBRANCH   1  17
BRANCH   1  30
HETATM   30  N           1     -33.673  -3.738 -17.517  0.00  0.00    -0.066 N 
HETATM   31  H           1     -34.476  -3.998 -16.901  0.00  0.00     0.275 HD
HETATM   32  H           1     -33.593  -2.697 -17.564  0.00  0.00     0.275 HD
HETATM   33  H           1     -33.834  -4.119 -18.477  0.00  0.00     0.275 HD
ENDBRANCH   1  30
TORSDOF 13
ENDMDL
