MODEL 1
REMARK VINA RESULT:      -4.8      0.000      0.000
REMARK  4 active torsions:
REMARK  status: ('A' for Active; 'I' for Inactive)
REMARK    1  A    between atoms: N_1  and  C_9 
REMARK       I    between atoms: C_2  and  N_3 
REMARK    2  A    between atoms: C_2  and  C_9 
REMARK    3  A    between atoms: N_3  and  C_6 
REMARK    4  A    between atoms: C_6  and  C_8 
ROOT
HETATM    1  C           1     -35.260  -1.721 -12.596  0.00  0.00     0.243 C 
HETATM    2  N           1     -34.785  -1.158 -13.749  0.00  0.00    -0.345 N 
HETATM    3  H           1     -33.819  -1.293 -14.018  0.00  0.00     0.163 HD
HETATM    4  O           1     -36.414  -1.560 -12.274  0.00  0.00    -0.272 OA
ENDROOT
BRANCH   1   5
HETATM    5  C           1     -34.343  -2.546 -11.726  0.00  0.00     0.332 C 
BRANCH   5   6
HETATM    6  N           1     -33.668  -1.656 -10.724  0.00  0.00    -0.071 N 
HETATM    7  H           1     -32.978  -1.043 -11.214  0.00  0.00     0.274 HD
HETATM    8  H           1     -34.385  -1.063 -10.249  0.00  0.00     0.274 HD
HETATM    9  H           1     -33.173  -2.242 -10.016  0.00  0.00     0.274 HD
ENDBRANCH   5   6
ENDBRANCH   1   5
BRANCH   2  10
HETATM   10  C           1     -35.667  -0.365 -14.585  0.00  0.00     0.181 C 
HETATM   11  C           1     -35.149   1.065 -14.655  0.00  0.00     0.043 C 
BRANCH  10  12
HETATM   12  C           1     -35.706  -0.955 -15.974  0.00  0.00     0.196 C 
HETATM   13  O           1     -35.100  -2.021 -16.218  0.00  0.00    -0.646 OA
HETATM   14  O           1     -36.345  -0.378 -16.880  0.00  0.00    -0.646 OA
ENDBRANCH  10  12
ENDBRANCH   2  10
TORSDOF 4
ENDMDL
MODEL 2
REMARK VINA RESULT:      -4.8     13.037     14.222
REMARK  4 active torsions:
REMARK  status: ('A' for Active; 'I' for Inactive)
REMARK    1  A    between atoms: N_1  and  C_9 
REMARK       I    between atoms: C_2  and  N_3 
REMARK    2  A    between atoms: C_2  and  C_9 
REMARK    3  A    between atoms: N_3  and  C_6 
REMARK    4  A    between atoms: C_6  and  C_8 
ROOT
HETATM    1  C           1     -21.713  -4.498  -7.592  0.00  0.00     0.243 C 
HETATM    2  N           1     -22.309  -4.745  -8.799  0.00  0.00    -0.345 N 
HETATM    3  H           1     -22.490  -5.697  -9.089  0.00  0.00     0.163 HD
HETATM    4  O           1     -21.497  -3.360  -7.245  0.00  0.00    -0.272 OA
ENDROOT
BRANCH   1   5
HETATM    5  C           1     -21.325  -5.647  -6.693  0.00  0.00     0.332 C 
BRANCH   5   6
HETATM    6  N           1     -20.110  -6.328  -7.247  0.00  0.00    -0.071 N 
HETATM    7  H           1     -20.318  -7.341  -7.400  0.00  0.00     0.274 HD
HETATM    8  H           1     -19.848  -5.886  -8.156  0.00  0.00     0.274 HD
HETATM    9  H           1     -19.319  -6.234  -6.571  0.00  0.00     0.274 HD
ENDBRANCH   5   6
ENDBRANCH   1   5
BRANCH   2  10
HETATM   10  C           1     -22.681  -3.641  -9.663  0.00  0.00     0.181 C 
HETATM   11  C           1     -21.749  -3.603 -10.867  0.00  0.00     0.043 C 
BRANCH  10  12
HETATM   12  C           1     -24.103  -3.828 -10.132  0.00  0.00     0.196 C 
HETATM   13  O           1     -24.666  -2.930 -10.796  0.00  0.00    -0.646 OA
HETATM   14  O           1     -24.718  -4.880  -9.857  0.00  0.00    -0.646 OA
ENDBRANCH  10  12
ENDBRANCH   2  10
TORSDOF 4
ENDMDL
MODEL 3
REMARK VINA RESULT:      -4.8      1.962      4.700
REMARK  4 active torsions:
REMARK  status: ('A' for Active; 'I' for Inactive)
REMARK    1  A    between atoms: N_1  and  C_9 
REMARK       I    between atoms: C_2  and  N_3 
REMARK    2  A    between atoms: C_2  and  C_9 
REMARK    3  A    between atoms: N_3  and  C_6 
REMARK    4  A    between atoms: C_6  and  C_8 
ROOT
HETATM    1  C           1     -35.114  -0.255 -13.375  0.00  0.00     0.243 C 
HETATM    2  N           1     -34.524  -0.537 -12.173  0.00  0.00    -0.345 N 
HETATM    3  H           1     -33.940   0.155 -11.722  0.00  0.00     0.163 HD
HETATM    4  O           1     -35.812  -1.081 -13.914  0.00  0.00    -0.272 OA
ENDROOT
BRANCH   1   5
HETATM    5  C           1     -34.893   1.087 -14.028  0.00  0.00     0.332 C 
BRANCH   5   6
HETATM    6  N           1     -35.903   1.285 -15.119  0.00  0.00    -0.071 N 
HETATM    7  H           1     -35.408   1.452 -16.025  0.00  0.00     0.274 HD
HETATM    8  H           1     -36.499   0.432 -15.200  0.00  0.00     0.274 HD
HETATM    9  H           1     -36.502   2.111 -14.893  0.00  0.00     0.274 HD
ENDBRANCH   5   6
ENDBRANCH   1   5
BRANCH   2  10
HETATM   10  C           1     -34.737  -1.827 -11.545  0.00  0.00     0.181 C 
HETATM   11  C           1     -33.465  -2.257 -10.826  0.00  0.00     0.043 C 
BRANCH  10  12
HETATM   12  C           1     -35.867  -1.722 -10.551  0.00  0.00     0.196 C 
HETATM   13  O           1     -35.893  -0.779  -9.731  0.00  0.00    -0.646 OA
HETATM   14  O           1     -36.778  -2.578 -10.547  0.00  0.00    -0.646 OA
ENDBRANCH  10  12
ENDBRANCH   2  10
TORSDOF 4
ENDMDL
MODEL 4
REMARK VINA RESULT:      -4.7      2.373      4.688
REMARK  4 active torsions:
REMARK  status: ('A' for Active; 'I' for Inactive)
REMARK    1  A    between atoms: N_1  and  C_9 
REMARK       I    between atoms: C_2  and  N_3 
REMARK    2  A    between atoms: C_2  and  C_9 
REMARK    3  A    between atoms: N_3  and  C_6 
REMARK    4  A    between atoms: C_6  and  C_8 
ROOT
HETATM    1  C           1     -34.989  -1.302 -12.913  0.00  0.00     0.243 C 
HETATM    2  N           1     -34.616  -2.052 -11.831  0.00  0.00    -0.345 N 
HETATM    3  H           1     -34.550  -1.623 -10.917  0.00  0.00     0.163 HD
HETATM    4  O           1     -35.068  -1.815 -14.005  0.00  0.00    -0.272 OA
ENDROOT
BRANCH   1   5
HETATM    5  C           1     -35.302   0.165 -12.744  0.00  0.00     0.332 C 
BRANCH   5   6
HETATM    6  N           1     -35.841   0.406 -11.365  0.00  0.00    -0.071 N 
HETATM    7  H           1     -35.597  -0.403 -10.750  0.00  0.00     0.274 HD
HETATM    8  H           1     -35.419   1.278 -10.975  0.00  0.00     0.274 HD
HETATM    9  H           1     -36.879   0.508 -11.410  0.00  0.00     0.274 HD
ENDBRANCH   5   6
ENDBRANCH   1   5
BRANCH   2  10
HETATM   10  C           1     -34.314  -3.461 -11.994  0.00  0.00     0.181 C 
HETATM   11  C           1     -32.853  -3.711 -11.644  0.00  0.00     0.043 C 
BRANCH  10  12
HETATM   12  C           1     -35.198  -4.273 -11.077  0.00  0.00     0.196 C 
HETATM   13  O           1     -36.268  -3.788 -10.649  0.00  0.00    -0.646 OA
HETATM   14  O           1     -34.859  -5.429 -10.746  0.00  0.00    -0.646 OA
ENDBRANCH  10  12
ENDBRANCH   2  10
TORSDOF 4
ENDMDL
MODEL 5
REMARK VINA RESULT:      -4.6      2.131      2.648
REMARK  4 active torsions:
REMARK  status: ('A' for Active; 'I' for Inactive)
REMARK    1  A    between atoms: N_1  and  C_9 
REMARK       I    between atoms: C_2  and  N_3 
REMARK    2  A    between atoms: C_2  and  C_9 
REMARK    3  A    between atoms: N_3  and  C_6 
REMARK    4  A    between atoms: C_6  and  C_8 
ROOT
HETATM    1  C           1     -34.289  -2.004 -11.863  0.00  0.00     0.243 C 
HETATM    2  N           1     -34.810  -1.404 -12.977  0.00  0.00    -0.345 N 
HETATM    3  H           1     -34.775  -1.877 -13.870  0.00  0.00     0.163 HD
HETATM    4  O           1     -34.332  -1.439 -10.796  0.00  0.00    -0.272 OA
ENDROOT
BRANCH   1   5
HETATM    5  C           1     -33.659  -3.372 -11.967  0.00  0.00     0.332 C 
BRANCH   5   6
HETATM    6  N           1     -33.698  -4.044 -10.627  0.00  0.00    -0.071 N 
HETATM    7  H           1     -32.938  -3.658 -10.022  0.00  0.00     0.274 HD
HETATM    8  H           1     -34.624  -3.869 -10.177  0.00  0.00     0.274 HD
HETATM    9  H           1     -33.557  -5.072 -10.749  0.00  0.00     0.274 HD
ENDBRANCH   5   6
ENDBRANCH   1   5
BRANCH   2  10
HETATM   10  C           1     -35.415  -0.089 -12.876  0.00  0.00     0.181 C 
HETATM   11  C           1     -34.949   0.773 -14.042  0.00  0.00     0.043 C 
BRANCH  10  12
HETATM   12  C           1     -36.918  -0.223 -12.918  0.00  0.00     0.196 C 
HETATM   13  O           1     -37.609   0.191 -11.962  0.00  0.00    -0.646 OA
HETATM   14  O           1     -37.471  -0.748 -13.908  0.00  0.00    -0.646 OA
ENDBRANCH  10  12
ENDBRANCH   2  10
TORSDOF 4
ENDMDL
MODEL 6
REMARK VINA RESULT:      -4.4     13.613     15.210
REMARK  4 active torsions:
REMARK  status: ('A' for Active; 'I' for Inactive)
REMARK    1  A    between atoms: N_1  and  C_9 
REMARK       I    between atoms: C_2  and  N_3 
REMARK    2  A    between atoms: C_2  and  C_9 
REMARK    3  A    between atoms: N_3  and  C_6 
REMARK    4  A    between atoms: C_6  and  C_8 
ROOT
HETATM    1  C           1     -22.869  -4.087  -9.776  0.00  0.00     0.243 C 
HETATM    2  N           1     -22.286  -4.134  -8.539  0.00  0.00    -0.345 N 
HETATM    3  H           1     -22.709  -3.642  -7.762  0.00  0.00     0.163 HD
HETATM    4  O           1     -22.365  -4.675 -10.704  0.00  0.00    -0.272 OA
ENDROOT
BRANCH   1   5
HETATM    5  C           1     -24.142  -3.303  -9.982  0.00  0.00     0.332 C 
BRANCH   5   6
HETATM    6  N           1     -25.317  -4.136  -9.562  0.00  0.00    -0.071 N 
HETATM    7  H           1     -25.236  -4.363  -8.545  0.00  0.00     0.274 HD
HETATM    8  H           1     -26.199  -3.602  -9.730  0.00  0.00     0.274 HD
HETATM    9  H           1     -25.332  -5.021 -10.117  0.00  0.00     0.274 HD
ENDBRANCH   5   6
ENDBRANCH   1   5
BRANCH   2  10
HETATM   10  C           1     -21.063  -4.887  -8.342  0.00  0.00     0.181 C 
HETATM   11  C           1     -19.890  -3.925  -8.208  0.00  0.00     0.043 C 
BRANCH  10  12
HETATM   12  C           1     -21.181  -5.716  -7.085  0.00  0.00     0.196 C 
HETATM   13  O           1     -22.028  -5.417  -6.216  0.00  0.00    -0.646 OA
HETATM   14  O           1     -20.431  -6.701  -6.914  0.00  0.00    -0.646 OA
ENDBRANCH  10  12
ENDBRANCH   2  10
TORSDOF 4
ENDMDL
MODEL 7
REMARK VINA RESULT:      -4.3      2.887      3.830
REMARK  4 active torsions:
REMARK  status: ('A' for Active; 'I' for Inactive)
REMARK    1  A    between atoms: N_1  and  C_9 
REMARK       I    between atoms: C_2  and  N_3 
REMARK    2  A    between atoms: C_2  and  C_9 
REMARK    3  A    between atoms: N_3  and  C_6 
REMARK    4  A    between atoms: C_6  and  C_8 
ROOT
HETATM    1  C           1     -35.646  -1.394 -11.718  0.00  0.00     0.243 C 
HETATM    2  N           1     -35.030  -2.591 -11.474  0.00  0.00    -0.345 N 
HETATM    3  H           1     -35.349  -3.179 -10.715  0.00  0.00     0.163 HD
HETATM    4  O           1     -35.265  -0.692 -12.625  0.00  0.00    -0.272 OA
ENDROOT
BRANCH   1   5
HETATM    5  C           1     -36.803  -0.951 -10.856  0.00  0.00     0.332 C 
BRANCH   5   6
HETATM    6  N           1     -36.292  -0.528  -9.511  0.00  0.00    -0.071 N 
HETATM    7  H           1     -37.087  -0.174  -8.932  0.00  0.00     0.274 HD
HETATM    8  H           1     -35.851  -1.346  -9.033  0.00  0.00     0.274 HD
HETATM    9  H           1     -35.583   0.231  -9.631  0.00  0.00     0.274 HD
ENDBRANCH   5   6
ENDBRANCH   1   5
BRANCH   2  10
HETATM   10  C           1     -33.918  -3.016 -12.302  0.00  0.00     0.181 C 
HETATM   11  C           1     -32.849  -3.656 -11.427  0.00  0.00     0.043 C 
BRANCH  10  12
HETATM   12  C           1     -34.404  -4.021 -13.319  0.00  0.00     0.196 C 
HETATM   13  O           1     -34.154  -3.854 -14.532  0.00  0.00    -0.646 OA
HETATM   14  O           1     -35.058  -5.019 -12.947  0.00  0.00    -0.646 OA
ENDBRANCH  10  12
ENDBRANCH   2  10
TORSDOF 4
ENDMDL
MODEL 8
REMARK VINA RESULT:      -4.3      3.504      4.607
REMARK  4 active torsions:
REMARK  status: ('A' for Active; 'I' for Inactive)
REMARK    1  A    between atoms: N_1  and  C_9 
REMARK       I    between atoms: C_2  and  N_3 
REMARK    2  A    between atoms: C_2  and  C_9 
REMARK    3  A    between atoms: N_3  and  C_6 
REMARK    4  A    between atoms: C_6  and  C_8 
ROOT
HETATM    1  C           1     -34.309  -4.079 -10.834  0.00  0.00     0.243 C 
HETATM    2  N           1     -35.412  -3.292 -11.022  0.00  0.00    -0.345 N 
HETATM    3  H           1     -36.333  -3.709 -11.050  0.00  0.00     0.163 HD
HETATM    4  O           1     -33.209  -3.580 -10.800  0.00  0.00    -0.272 OA
ENDROOT
BRANCH   1   5
HETATM    5  C           1     -34.466  -5.571 -10.667  0.00  0.00     0.332 C 
BRANCH   5   6
HETATM    6  N           1     -33.258  -6.266 -11.222  0.00  0.00    -0.071 N 
HETATM    7  H           1     -33.310  -7.285 -10.997  0.00  0.00     0.274 HD
HETATM    8  H           1     -33.230  -6.139 -12.259  0.00  0.00     0.274 HD
HETATM    9  H           1     -32.396  -5.858 -10.797  0.00  0.00     0.274 HD
ENDBRANCH   5   6
ENDBRANCH   1   5
BRANCH   2  10
HETATM   10  C           1     -35.261  -1.858 -11.182  0.00  0.00     0.181 C 
HETATM   11  C           1     -35.266  -1.510 -12.665  0.00  0.00     0.043 C 
BRANCH  10  12
HETATM   12  C           1     -36.406  -1.153 -10.495  0.00  0.00     0.196 C 
HETATM   13  O           1     -36.187  -0.431  -9.498  0.00  0.00    -0.646 OA
HETATM   14  O           1     -37.571  -1.290 -10.924  0.00  0.00    -0.646 OA
ENDBRANCH  10  12
ENDBRANCH   2  10
TORSDOF 4
ENDMDL
MODEL 9
REMARK VINA RESULT:      -4.1      2.662      4.828
REMARK  4 active torsions:
REMARK  status: ('A' for Active; 'I' for Inactive)
REMARK    1  A    between atoms: N_1  and  C_9 
REMARK       I    between atoms: C_2  and  N_3 
REMARK    2  A    between atoms: C_2  and  C_9 
REMARK    3  A    between atoms: N_3  and  C_6 
REMARK    4  A    between atoms: C_6  and  C_8 
ROOT
HETATM    1  C           1     -36.644   0.112 -13.791  0.00  0.00     0.243 C 
HETATM    2  N           1     -37.209  -0.286 -12.610  0.00  0.00    -0.345 N 
HETATM    3  H           1     -38.113  -0.740 -12.609  0.00  0.00     0.163 HD
HETATM    4  O           1     -35.564   0.655 -13.792  0.00  0.00    -0.272 OA
ENDROOT
BRANCH   1   5
HETATM    5  C           1     -37.368  -0.127 -15.093  0.00  0.00     0.332 C 
BRANCH   5   6
HETATM    6  N           1     -37.584   1.182 -15.794  0.00  0.00    -0.071 N 
HETATM    7  H           1     -38.604   1.409 -15.799  0.00  0.00     0.274 HD
HETATM    8  H           1     -37.063   1.935 -15.292  0.00  0.00     0.274 HD
HETATM    9  H           1     -37.238   1.112 -16.777  0.00  0.00     0.274 HD
ENDBRANCH   5   6
ENDBRANCH   1   5
BRANCH   2  10
HETATM   10  C           1     -36.512  -0.055 -11.359  0.00  0.00     0.181 C 
HETATM   11  C           1     -37.515   0.349 -10.287  0.00  0.00     0.043 C 
BRANCH  10  12
HETATM   12  C           1     -35.806  -1.321 -10.937  0.00  0.00     0.196 C 
HETATM   13  O           1     -36.223  -2.431 -11.331  0.00  0.00    -0.646 OA
HETATM   14  O           1     -34.804  -1.259 -10.193  0.00  0.00    -0.646 OA
ENDBRANCH  10  12
ENDBRANCH   2  10
TORSDOF 4
ENDMDL
