MODEL 1
REMARK VINA RESULT:      -7.4      0.000      0.000
REMARK  6 active torsions:
REMARK  status: ('A' for Active; 'I' for Inactive)
REMARK    1  A    between atoms: C_2  and  C_4 
REMARK    2  A    between atoms: C_4  and  C_22 
REMARK    3  A    between atoms: C_4  and  N_12 
REMARK    4  A    between atoms: N_5  and  C_8 
REMARK    5  A    between atoms: C_8  and  C_9 
REMARK       I    between atoms: C_9  and  N_12 
REMARK    6  A    between atoms: C_21  and  C_22 
ROOT
HETATM    1  C           1     -21.265  -5.905  -5.341  0.00  0.00     0.190 C 
ENDROOT
BRANCH   1   2
HETATM    2  C           1     -20.702  -7.122  -6.033  0.00  0.00     0.197 C 
HETATM    3  O           1     -19.574  -7.071  -6.567  0.00  0.00    -0.646 OA
HETATM    4  O           1     -21.366  -8.181  -6.073  0.00  0.00    -0.646 OA
ENDBRANCH   1   2
BRANCH   1   5
HETATM    5  C           1     -20.890  -4.654  -6.126  0.00  0.00     0.077 C 
BRANCH   5   6
HETATM    6  C           1     -21.853  -4.467  -7.257  0.00  0.00    -0.028 A 
HETATM    7  C           1     -23.219  -4.337  -7.147  0.00  0.00     0.096 A 
HETATM    8  N           1     -23.728  -4.185  -8.409  0.00  0.00    -0.365 N 
HETATM    9  H           1     -24.746  -4.065  -8.637  0.00  0.00     0.165 HD
HETATM   10  C           1     -22.713  -4.213  -9.340  0.00  0.00     0.042 A 
HETATM   11  C           1     -22.759  -4.096 -10.733  0.00  0.00     0.030 A 
HETATM   12  C           1     -21.520  -4.389  -8.637  0.00  0.00    -0.002 A 
HETATM   13  C           1     -21.547  -4.162 -11.428  0.00  0.00     0.002 A 
HETATM   14  C           1     -20.340  -4.338 -10.754  0.00  0.00     0.001 A 
HETATM   15  C           1     -20.312  -4.452  -9.360  0.00  0.00     0.014 A 
ENDBRANCH   5   6
ENDBRANCH   1   5
BRANCH   1  16
HETATM   16  N           1     -20.718  -5.815  -4.001  0.00  0.00    -0.345 N 
HETATM   17  H           1     -19.978  -5.157  -3.799  0.00  0.00     0.163 HD
HETATM   18  C           1     -21.205  -6.624  -3.009  0.00  0.00     0.243 C 
HETATM   19  O           1     -20.706  -7.706  -2.813  0.00  0.00    -0.272 OA
BRANCH  18  20
HETATM   20  C           1     -22.363  -6.162  -2.159  0.00  0.00     0.332 C 
BRANCH  20  21
HETATM   21  N           1     -22.328  -6.869  -0.837  0.00  0.00    -0.071 N 
HETATM   22  H           1     -21.437  -6.638  -0.341  0.00  0.00     0.274 HD
HETATM   23  H           1     -23.140  -6.559  -0.255  0.00  0.00     0.274 HD
HETATM   24  H           1     -22.383  -7.901  -0.993  0.00  0.00     0.274 HD
ENDBRANCH  20  21
ENDBRANCH  18  20
ENDBRANCH   1  16
TORSDOF 6
ENDMDL
MODEL 2
REMARK VINA RESULT:      -6.9     11.032     13.409
REMARK  6 active torsions:
REMARK  status: ('A' for Active; 'I' for Inactive)
REMARK    1  A    between atoms: C_2  and  C_4 
REMARK    2  A    between atoms: C_4  and  C_22 
REMARK    3  A    between atoms: C_4  and  N_12 
REMARK    4  A    between atoms: N_5  and  C_8 
REMARK    5  A    between atoms: C_8  and  C_9 
REMARK       I    between atoms: C_9  and  N_12 
REMARK    6  A    between atoms: C_21  and  C_22 
ROOT
HETATM    1  C           1     -26.343  -6.885 -18.451  0.00  0.00     0.190 C 
ENDROOT
BRANCH   1   2
HETATM    2  C           1     -25.009  -6.721 -19.138  0.00  0.00     0.197 C 
HETATM    3  O           1     -24.953  -6.636 -20.383  0.00  0.00    -0.646 OA
HETATM    4  O           1     -23.960  -6.671 -18.459  0.00  0.00    -0.646 OA
ENDBRANCH   1   2
BRANCH   1   5
HETATM    5  C           1     -27.439  -6.272 -19.313  0.00  0.00     0.077 C 
BRANCH   5   6
HETATM    6  C           1     -28.776  -6.578 -18.714  0.00  0.00    -0.028 A 
HETATM    7  C           1     -29.343  -7.826 -18.588  0.00  0.00     0.096 A 
HETATM    8  N           1     -30.565  -7.672 -17.990  0.00  0.00    -0.365 N 
HETATM    9  H           1     -31.228  -8.455 -17.766  0.00  0.00     0.165 HD
HETATM   10  C           1     -30.803  -6.341 -17.725  0.00  0.00     0.042 A 
HETATM   11  C           1     -31.906  -5.720 -17.130  0.00  0.00     0.030 A 
HETATM   12  C           1     -29.688  -5.630 -18.173  0.00  0.00    -0.002 A 
HETATM   13  C           1     -31.867  -4.328 -16.990  0.00  0.00     0.002 A 
HETATM   14  C           1     -30.767  -3.593 -17.427  0.00  0.00     0.001 A 
HETATM   15  C           1     -29.672  -4.230 -18.020  0.00  0.00     0.014 A 
ENDBRANCH   5   6
ENDBRANCH   1   5
BRANCH   1  16
HETATM   16  N           1     -26.310  -6.216 -17.165  0.00  0.00    -0.345 N 
HETATM   17  H           1     -26.215  -5.210 -17.120  0.00  0.00     0.163 HD
HETATM   18  C           1     -26.406  -6.947 -16.011  0.00  0.00     0.243 C 
HETATM   19  O           1     -25.407  -7.367 -15.477  0.00  0.00    -0.272 OA
BRANCH  18  20
HETATM   20  C           1     -27.760  -7.225 -15.405  0.00  0.00     0.332 C 
BRANCH  20  21
HETATM   21  N           1     -28.432  -5.929 -15.065  0.00  0.00    -0.071 N 
HETATM   22  H           1     -29.074  -6.071 -14.252  0.00  0.00     0.274 HD
HETATM   23  H           1     -27.708  -5.217 -14.815  0.00  0.00     0.274 HD
HETATM   24  H           1     -28.981  -5.595 -15.889  0.00  0.00     0.274 HD
ENDBRANCH  20  21
ENDBRANCH  18  20
ENDBRANCH   1  16
TORSDOF 6
ENDMDL
MODEL 3
REMARK VINA RESULT:      -6.5      2.586      6.988
REMARK  6 active torsions:
REMARK  status: ('A' for Active; 'I' for Inactive)
REMARK    1  A    between atoms: C_2  and  C_4 
REMARK    2  A    between atoms: C_4  and  C_22 
REMARK    3  A    between atoms: C_4  and  N_12 
REMARK    4  A    between atoms: N_5  and  C_8 
REMARK    5  A    between atoms: C_8  and  C_9 
REMARK       I    between atoms: C_9  and  N_12 
REMARK    6  A    between atoms: C_21  and  C_22 
ROOT
HETATM    1  C           1     -20.069  -7.569  -5.131  0.00  0.00     0.190 C 
ENDROOT
BRANCH   1   2
HETATM    2  C           1     -19.078  -8.707  -5.119  0.00  0.00     0.197 C 
HETATM    3  O           1     -18.791  -9.297  -6.182  0.00  0.00    -0.646 OA
HETATM    4  O           1     -18.547  -9.061  -4.044  0.00  0.00    -0.646 OA
ENDBRANCH   1   2
BRANCH   1   5
HETATM    5  C           1     -21.426  -8.070  -4.656  0.00  0.00     0.077 C 
BRANCH   5   6
HETATM    6  C           1     -21.722  -7.505  -3.301  0.00  0.00    -0.028 A 
HETATM    7  C           1     -22.051  -6.198  -3.022  0.00  0.00     0.096 A 
HETATM    8  N           1     -22.243  -6.095  -1.670  0.00  0.00    -0.365 N 
HETATM    9  H           1     -22.504  -5.211  -1.166  0.00  0.00     0.165 HD
HETATM   10  C           1     -22.044  -7.316  -1.065  0.00  0.00     0.042 A 
HETATM   11  C           1     -22.129  -7.683   0.282  0.00  0.00     0.030 A 
HETATM   12  C           1     -21.714  -8.222  -2.074  0.00  0.00    -0.002 A 
HETATM   13  C           1     -21.869  -9.019   0.606  0.00  0.00     0.002 A 
HETATM   14  C           1     -21.538  -9.946  -0.380  0.00  0.00     0.001 A 
HETATM   15  C           1     -21.457  -9.562  -1.723  0.00  0.00     0.014 A 
ENDBRANCH   5   6
ENDBRANCH   1   5
BRANCH   1  16
HETATM   16  N           1     -20.191  -7.050  -6.479  0.00  0.00    -0.345 N 
HETATM   17  H           1     -20.147  -7.679  -7.270  0.00  0.00     0.163 HD
HETATM   18  C           1     -20.365  -5.707  -6.682  0.00  0.00     0.243 C 
HETATM   19  O           1     -19.405  -4.987  -6.817  0.00  0.00    -0.272 OA
BRANCH  18  20
HETATM   20  C           1     -21.758  -5.127  -6.739  0.00  0.00     0.332 C 
BRANCH  20  21
HETATM   21  N           1     -21.687  -3.697  -7.186  0.00  0.00    -0.071 N 
HETATM   22  H           1     -20.687  -3.398  -7.243  0.00  0.00     0.274 HD
HETATM   23  H           1     -22.131  -3.606  -8.128  0.00  0.00     0.274 HD
HETATM   24  H           1     -22.193  -3.093  -6.501  0.00  0.00     0.274 HD
ENDBRANCH  20  21
ENDBRANCH  18  20
ENDBRANCH   1  16
TORSDOF 6
ENDMDL
MODEL 4
REMARK VINA RESULT:      -6.4      2.299      3.693
REMARK  6 active torsions:
REMARK  status: ('A' for Active; 'I' for Inactive)
REMARK    1  A    between atoms: C_2  and  C_4 
REMARK    2  A    between atoms: C_4  and  C_22 
REMARK    3  A    between atoms: C_4  and  N_12 
REMARK    4  A    between atoms: N_5  and  C_8 
REMARK    5  A    between atoms: C_8  and  C_9 
REMARK       I    between atoms: C_9  and  N_12 
REMARK    6  A    between atoms: C_21  and  C_22 
ROOT
HETATM    1  C           1     -21.454  -7.343  -3.883  0.00  0.00     0.190 C 
ENDROOT
BRANCH   1   2
HETATM    2  C           1     -21.596  -6.831  -2.471  0.00  0.00     0.197 C 
HETATM    3  O           1     -22.392  -5.902  -2.220  0.00  0.00    -0.646 OA
HETATM    4  O           1     -20.914  -7.335  -1.552  0.00  0.00    -0.646 OA
ENDBRANCH   1   2
BRANCH   1   5
HETATM    5  C           1     -22.197  -6.418  -4.838  0.00  0.00     0.077 C 
BRANCH   5   6
HETATM    6  C           1     -21.327  -6.115  -6.019  0.00  0.00    -0.028 A 
HETATM    7  C           1     -20.050  -6.585  -6.228  0.00  0.00     0.096 A 
HETATM    8  N           1     -19.607  -6.077  -7.420  0.00  0.00    -0.365 N 
HETATM    9  H           1     -18.663  -6.264  -7.840  0.00  0.00     0.165 HD
HETATM   10  C           1     -20.578  -5.283  -7.990  0.00  0.00     0.042 A 
HETATM   11  C           1     -20.570  -4.567  -9.192  0.00  0.00     0.030 A 
HETATM   12  C           1     -21.673  -5.291  -7.125  0.00  0.00    -0.002 A 
HETATM   13  C           1     -21.718  -3.837  -9.517  0.00  0.00     0.002 A 
HETATM   14  C           1     -22.826  -3.827  -8.673  0.00  0.00     0.001 A 
HETATM   15  C           1     -22.818  -4.549  -7.475  0.00  0.00     0.014 A 
ENDBRANCH   5   6
ENDBRANCH   1   5
BRANCH   1  16
HETATM   16  N           1     -22.014  -8.678  -3.971  0.00  0.00    -0.345 N 
HETATM   17  H           1     -23.015  -8.811  -3.921  0.00  0.00     0.163 HD
HETATM   18  C           1     -21.186  -9.759  -4.120  0.00  0.00     0.243 C 
HETATM   19  O           1     -20.758 -10.331  -3.147  0.00  0.00    -0.272 OA
BRANCH  18  20
HETATM   20  C           1     -20.811 -10.236  -5.502  0.00  0.00     0.332 C 
BRANCH  20  21
HETATM   21  N           1     -19.344 -10.020  -5.725  0.00  0.00    -0.071 N 
HETATM   22  H           1     -18.836 -10.106  -4.815  0.00  0.00     0.274 HD
HETATM   23  H           1     -18.984 -10.740  -6.392  0.00  0.00     0.274 HD
HETATM   24  H           1     -19.189  -9.067  -6.122  0.00  0.00     0.274 HD
ENDBRANCH  20  21
ENDBRANCH  18  20
ENDBRANCH   1  16
TORSDOF 6
ENDMDL
MODEL 5
REMARK VINA RESULT:      -6.3     11.198     13.734
REMARK  6 active torsions:
REMARK  status: ('A' for Active; 'I' for Inactive)
REMARK    1  A    between atoms: C_2  and  C_4 
REMARK    2  A    between atoms: C_4  and  C_22 
REMARK    3  A    between atoms: C_4  and  N_12 
REMARK    4  A    between atoms: N_5  and  C_8 
REMARK    5  A    between atoms: C_8  and  C_9 
REMARK       I    between atoms: C_9  and  N_12 
REMARK    6  A    between atoms: C_21  and  C_22 
ROOT
HETATM    1  C           1     -26.309  -6.333 -17.411  0.00  0.00     0.190 C 
ENDROOT
BRANCH   1   2
HETATM    2  C           1     -25.999  -6.514 -15.946  0.00  0.00     0.197 C 
HETATM    3  O           1     -26.630  -7.356 -15.273  0.00  0.00    -0.646 OA
HETATM    4  O           1     -25.110  -5.819 -15.405  0.00  0.00    -0.646 OA
ENDBRANCH   1   2
BRANCH   1   5
HETATM    5  C           1     -27.767  -6.685 -17.671  0.00  0.00     0.077 C 
BRANCH   5   6
HETATM    6  C           1     -28.606  -5.448 -17.569  0.00  0.00    -0.028 A 
HETATM    7  C           1     -28.150  -4.151 -17.634  0.00  0.00     0.096 A 
HETATM    8  N           1     -29.231  -3.321 -17.499  0.00  0.00    -0.365 N 
HETATM    9  H           1     -29.188  -2.272 -17.509  0.00  0.00     0.165 HD
HETATM   10  C           1     -30.384  -4.059 -17.347  0.00  0.00     0.042 A 
HETATM   11  C           1     -31.709  -3.643 -17.179  0.00  0.00     0.030 A 
HETATM   12  C           1     -30.016  -5.405 -17.388  0.00  0.00    -0.002 A 
HETATM   13  C           1     -32.686  -4.635 -17.048  0.00  0.00     0.002 A 
HETATM   14  C           1     -32.348  -5.986 -17.085  0.00  0.00     0.001 A 
HETATM   15  C           1     -31.018  -6.385 -17.255  0.00  0.00     0.014 A 
ENDBRANCH   5   6
ENDBRANCH   1   5
BRANCH   1  16
HETATM   16  N           1     -25.455  -7.203 -18.196  0.00  0.00    -0.345 N 
HETATM   17  H           1     -25.363  -8.179 -17.949  0.00  0.00     0.163 HD
HETATM   18  C           1     -24.773  -6.703 -19.273  0.00  0.00     0.243 C 
HETATM   19  O           1     -23.663  -6.250 -19.128  0.00  0.00    -0.272 OA
BRANCH  18  20
HETATM   20  C           1     -25.407  -6.720 -20.642  0.00  0.00     0.332 C 
BRANCH  20  21
HETATM   21  N           1     -25.927  -8.096 -20.936  0.00  0.00    -0.071 N 
HETATM   22  H           1     -25.258  -8.596 -21.564  0.00  0.00     0.274 HD
HETATM   23  H           1     -26.028  -8.627 -20.041  0.00  0.00     0.274 HD
HETATM   24  H           1     -26.858  -8.023 -21.406  0.00  0.00     0.274 HD
ENDBRANCH  20  21
ENDBRANCH  18  20
ENDBRANCH   1  16
TORSDOF 6
ENDMDL
MODEL 6
REMARK VINA RESULT:      -6.3     11.718     14.353
REMARK  6 active torsions:
REMARK  status: ('A' for Active; 'I' for Inactive)
REMARK    1  A    between atoms: C_2  and  C_4 
REMARK    2  A    between atoms: C_4  and  C_22 
REMARK    3  A    between atoms: C_4  and  N_12 
REMARK    4  A    between atoms: N_5  and  C_8 
REMARK    5  A    between atoms: C_8  and  C_9 
REMARK       I    between atoms: C_9  and  N_12 
REMARK    6  A    between atoms: C_21  and  C_22 
ROOT
HETATM    1  C           1     -26.299  -7.253 -19.896  0.00  0.00     0.190 C 
ENDROOT
BRANCH   1   2
HETATM    2  C           1     -25.980  -7.943 -21.199  0.00  0.00     0.197 C 
HETATM    3  O           1     -26.762  -8.802 -21.659  0.00  0.00    -0.646 OA
HETATM    4  O           1     -24.932  -7.655 -21.818  0.00  0.00    -0.646 OA
ENDBRANCH   1   2
BRANCH   1   5
HETATM    5  C           1     -27.456  -6.285 -20.101  0.00  0.00     0.077 C 
BRANCH   5   6
HETATM    6  C           1     -28.594  -6.667 -19.205  0.00  0.00    -0.028 A 
HETATM    7  C           1     -29.038  -7.947 -18.960  0.00  0.00     0.096 A 
HETATM    8  N           1     -30.091  -7.863 -18.089  0.00  0.00    -0.365 N 
HETATM    9  H           1     -30.634  -8.684 -17.722  0.00  0.00     0.165 HD
HETATM   10  C           1     -30.339  -6.548 -17.764  0.00  0.00     0.042 A 
HETATM   11  C           1     -31.307  -5.991 -16.920  0.00  0.00     0.030 A 
HETATM   12  C           1     -29.407  -5.774 -18.456  0.00  0.00    -0.002 A 
HETATM   13  C           1     -31.319  -4.599 -16.781  0.00  0.00     0.002 A 
HETATM   14  C           1     -30.400  -3.801 -17.459  0.00  0.00     0.001 A 
HETATM   15  C           1     -29.439  -4.374 -18.299  0.00  0.00     0.014 A 
ENDBRANCH   5   6
ENDBRANCH   1   5
BRANCH   1  16
HETATM   16  N           1     -25.133  -6.522 -19.438  0.00  0.00    -0.345 N 
HETATM   17  H           1     -24.996  -5.561 -19.719  0.00  0.00     0.163 HD
HETATM   18  C           1     -24.216  -7.135 -18.626  0.00  0.00     0.243 C 
HETATM   19  O           1     -23.281  -7.725 -19.109  0.00  0.00    -0.272 OA
BRANCH  18  20
HETATM   20  C           1     -24.375  -7.070 -17.126  0.00  0.00     0.332 C 
BRANCH  20  21
HETATM   21  N           1     -23.619  -8.200 -16.493  0.00  0.00    -0.071 N 
HETATM   22  H           1     -23.068  -7.840 -15.681  0.00  0.00     0.274 HD
HETATM   23  H           1     -24.294  -8.926 -16.161  0.00  0.00     0.274 HD
HETATM   24  H           1     -22.971  -8.621 -17.196  0.00  0.00     0.274 HD
ENDBRANCH  20  21
ENDBRANCH  18  20
ENDBRANCH   1  16
TORSDOF 6
ENDMDL
MODEL 7
REMARK VINA RESULT:      -6.3      1.475      2.216
REMARK  6 active torsions:
REMARK  status: ('A' for Active; 'I' for Inactive)
REMARK    1  A    between atoms: C_2  and  C_4 
REMARK    2  A    between atoms: C_4  and  C_22 
REMARK    3  A    between atoms: C_4  and  N_12 
REMARK    4  A    between atoms: N_5  and  C_8 
REMARK    5  A    between atoms: C_8  and  C_9 
REMARK       I    between atoms: C_9  and  N_12 
REMARK    6  A    between atoms: C_21  and  C_22 
ROOT
HETATM    1  C           1     -21.755  -6.446  -5.569  0.00  0.00     0.190 C 
ENDROOT
BRANCH   1   2
HETATM    2  C           1     -20.890  -7.676  -5.687  0.00  0.00     0.197 C 
HETATM    3  O           1     -21.417  -8.799  -5.833  0.00  0.00    -0.646 OA
HETATM    4  O           1     -19.644  -7.571  -5.637  0.00  0.00    -0.646 OA
ENDBRANCH   1   2
BRANCH   1   5
HETATM    5  C           1     -20.881  -5.200  -5.632  0.00  0.00     0.077 C 
BRANCH   5   6
HETATM    6  C           1     -20.687  -4.797  -7.061  0.00  0.00    -0.028 A 
HETATM    7  C           1     -19.484  -4.717  -7.724  0.00  0.00     0.096 A 
HETATM    8  N           1     -19.740  -4.314  -9.008  0.00  0.00    -0.365 N 
HETATM    9  H           1     -19.011  -4.165  -9.748  0.00  0.00     0.165 HD
HETATM   10  C           1     -21.093  -4.132  -9.190  0.00  0.00     0.042 A 
HETATM   11  C           1     -21.808  -3.730 -10.323  0.00  0.00     0.030 A 
HETATM   12  C           1     -21.712  -4.430  -7.975  0.00  0.00    -0.002 A 
HETATM   13  C           1     -23.199  -3.631 -10.209  0.00  0.00     0.002 A 
HETATM   14  C           1     -23.844  -3.922  -9.009  0.00  0.00     0.001 A 
HETATM   15  C           1     -23.114  -4.323  -7.885  0.00  0.00     0.014 A 
ENDBRANCH   5   6
ENDBRANCH   1   5
BRANCH   1  16
HETATM   16  N           1     -22.465  -6.474  -4.305  0.00  0.00    -0.345 N 
HETATM   17  H           1     -23.476  -6.484  -4.292  0.00  0.00     0.163 HD
HETATM   18  C           1     -21.765  -6.486  -3.127  0.00  0.00     0.243 C 
HETATM   19  O           1     -21.469  -5.446  -2.591  0.00  0.00    -0.272 OA
BRANCH  18  20
HETATM   20  C           1     -21.367  -7.799  -2.500  0.00  0.00     0.332 C 
BRANCH  20  21
HETATM   21  N           1     -21.866  -7.851  -1.086  0.00  0.00    -0.071 N 
HETATM   22  H           1     -22.013  -8.846  -0.804  0.00  0.00     0.274 HD
HETATM   23  H           1     -21.161  -7.410  -0.453  0.00  0.00     0.274 HD
HETATM   24  H           1     -22.770  -7.332  -1.018  0.00  0.00     0.274 HD
ENDBRANCH  20  21
ENDBRANCH  18  20
ENDBRANCH   1  16
TORSDOF 6
ENDMDL
MODEL 8
REMARK VINA RESULT:      -6.2      3.448      7.221
REMARK  6 active torsions:
REMARK  status: ('A' for Active; 'I' for Inactive)
REMARK    1  A    between atoms: C_2  and  C_4 
REMARK    2  A    between atoms: C_4  and  C_22 
REMARK    3  A    between atoms: C_4  and  N_12 
REMARK    4  A    between atoms: N_5  and  C_8 
REMARK    5  A    between atoms: C_8  and  C_9 
REMARK       I    between atoms: C_9  and  N_12 
REMARK    6  A    between atoms: C_21  and  C_22 
ROOT
HETATM    1  C           1     -21.500  -7.687  -5.116  0.00  0.00     0.190 C 
ENDROOT
BRANCH   1   2
HETATM    2  C           1     -21.552  -6.509  -6.058  0.00  0.00     0.197 C 
HETATM    3  O           1     -22.287  -5.533  -5.797  0.00  0.00    -0.646 OA
HETATM    4  O           1     -20.862  -6.512  -7.100  0.00  0.00    -0.646 OA
ENDBRANCH   1   2
BRANCH   1   5
HETATM    5  C           1     -20.468  -7.423  -4.028  0.00  0.00     0.077 C 
BRANCH   5   6
HETATM    6  C           1     -21.157  -7.300  -2.704  0.00  0.00    -0.028 A 
HETATM    7  C           1     -21.957  -6.255  -2.300  0.00  0.00     0.096 A 
HETATM    8  N           1     -22.391  -6.527  -1.030  0.00  0.00    -0.365 N 
HETATM    9  H           1     -23.018  -5.905  -0.463  0.00  0.00     0.165 HD
HETATM   10  C           1     -21.885  -7.734  -0.601  0.00  0.00     0.042 A 
HETATM   11  C           1     -22.058  -8.408   0.613  0.00  0.00     0.030 A 
HETATM   12  C           1     -21.103  -8.242  -1.640  0.00  0.00    -0.002 A 
HETATM   13  C           1     -21.410  -9.639   0.767  0.00  0.00     0.002 A 
HETATM   14  C           1     -20.624 -10.170  -0.253  0.00  0.00     0.001 A 
HETATM   15  C           1     -20.462  -9.483  -1.461  0.00  0.00     0.014 A 
ENDBRANCH   5   6
ENDBRANCH   1   5
BRANCH   1  16
HETATM   16  N           1     -21.129  -8.879  -5.854  0.00  0.00    -0.345 N 
HETATM   17  H           1     -21.248  -8.910  -6.858  0.00  0.00     0.163 HD
HETATM   18  C           1     -20.619  -9.963  -5.191  0.00  0.00     0.243 C 
HETATM   19  O           1     -21.360 -10.820  -4.774  0.00  0.00    -0.272 OA
BRANCH  18  20
HETATM   20  C           1     -19.129 -10.088  -4.984  0.00  0.00     0.332 C 
BRANCH  20  21
HETATM   21  N           1     -18.409  -9.519  -6.170  0.00  0.00    -0.071 N 
HETATM   22  H           1     -17.444  -9.233  -5.889  0.00  0.00     0.274 HD
HETATM   23  H           1     -18.352 -10.244  -6.922  0.00  0.00     0.274 HD
HETATM   24  H           1     -18.930  -8.687  -6.527  0.00  0.00     0.274 HD
ENDBRANCH  20  21
ENDBRANCH  18  20
ENDBRANCH   1  16
TORSDOF 6
ENDMDL
MODEL 9
REMARK VINA RESULT:      -6.1      4.441      6.758
REMARK  6 active torsions:
REMARK  status: ('A' for Active; 'I' for Inactive)
REMARK    1  A    between atoms: C_2  and  C_4 
REMARK    2  A    between atoms: C_4  and  C_22 
REMARK    3  A    between atoms: C_4  and  N_12 
REMARK    4  A    between atoms: N_5  and  C_8 
REMARK    5  A    between atoms: C_8  and  C_9 
REMARK       I    between atoms: C_9  and  N_12 
REMARK    6  A    between atoms: C_21  and  C_22 
ROOT
HETATM    1  C           1     -21.417  -8.761  -1.952  0.00  0.00     0.190 C 
ENDROOT
BRANCH   1   2
HETATM    2  C           1     -22.205  -9.036  -0.695  0.00  0.00     0.197 C 
HETATM    3  O           1     -21.988  -8.367   0.338  0.00  0.00    -0.646 OA
HETATM    4  O           1     -23.074  -9.935  -0.686  0.00  0.00    -0.646 OA
ENDBRANCH   1   2
BRANCH   1   5
HETATM    5  C           1     -20.201  -9.676  -2.001  0.00  0.00     0.077 C 
BRANCH   5   6
HETATM    6  C           1     -19.682  -9.742  -3.405  0.00  0.00    -0.028 A 
HETATM    7  C           1     -20.444  -9.817  -4.549  0.00  0.00     0.096 A 
HETATM    8  N           1     -19.589  -9.859  -5.618  0.00  0.00    -0.365 N 
HETATM    9  H           1     -19.886  -9.919  -6.623  0.00  0.00     0.165 HD
HETATM   10  C           1     -18.282  -9.812  -5.186  0.00  0.00     0.042 A 
HETATM   11  C           1     -17.087  -9.830  -5.915  0.00  0.00     0.030 A 
HETATM   12  C           1     -18.314  -9.738  -3.793  0.00  0.00    -0.002 A 
HETATM   13  C           1     -15.890  -9.769  -5.194  0.00  0.00     0.002 A 
HETATM   14  C           1     -15.891  -9.694  -3.803  0.00  0.00     0.001 A 
HETATM   15  C           1     -17.095  -9.678  -3.090  0.00  0.00     0.014 A 
ENDBRANCH   5   6
ENDBRANCH   1   5
BRANCH   1  16
HETATM   16  N           1     -20.981  -7.378  -1.955  0.00  0.00    -0.345 N 
HETATM   17  H           1     -20.155  -7.106  -1.438  0.00  0.00     0.163 HD
HETATM   18  C           1     -21.688  -6.439  -2.657  0.00  0.00     0.243 C 
HETATM   19  O           1     -22.588  -5.836  -2.124  0.00  0.00    -0.272 OA
BRANCH  18  20
HETATM   20  C           1     -21.340  -6.156  -4.098  0.00  0.00     0.332 C 
BRANCH  20  21
HETATM   21  N           1     -22.575  -6.262  -4.942  0.00  0.00    -0.071 N 
HETATM   22  H           1     -23.158  -5.404  -4.818  0.00  0.00     0.274 HD
HETATM   23  H           1     -22.303  -6.354  -5.947  0.00  0.00     0.274 HD
HETATM   24  H           1     -23.124  -7.102  -4.650  0.00  0.00     0.274 HD
ENDBRANCH  20  21
ENDBRANCH  18  20
ENDBRANCH   1  16
TORSDOF 6
ENDMDL
