MODEL 1
REMARK VINA RESULT:      -7.3      0.000      0.000
REMARK  7 active torsions:
REMARK  status: ('A' for Active; 'I' for Inactive)
REMARK    1  A    between atoms: C_1  and  C_6 
REMARK    2  A    between atoms: C_1  and  C_13 
REMARK    3  A    between atoms: C_1  and  N_2 
REMARK    4  A    between atoms: N_4  and  C_17 
REMARK       I    between atoms: N_4  and  C_6 
REMARK    5  A    between atoms: C_11  and  C_13 
REMARK    6  A    between atoms: C_15  and  C_17 
REMARK    7  A    between atoms: C_17  and  C_19 
ROOT
HETATM    1  C           1     -32.875  -4.536 -16.607  0.00  0.00     0.278 C 
ENDROOT
BRANCH   1   2
HETATM    2  C           1     -33.813  -4.454 -15.428  0.00  0.00     0.249 C 
HETATM    3  N           1     -33.355  -4.005 -14.219  0.00  0.00    -0.344 N 
HETATM    4  H           1     -32.387  -3.728 -14.116  0.00  0.00     0.163 HD
HETATM    5  O           1     -34.969  -4.785 -15.550  0.00  0.00    -0.271 OA
BRANCH   3   6
HETATM    6  C           1     -34.255  -3.926 -13.085  0.00  0.00     0.189 C 
BRANCH   6   7
HETATM    7  C           1     -34.685  -2.495 -12.881  0.00  0.00     0.197 C 
HETATM    8  O           1     -35.090  -1.820 -13.852  0.00  0.00    -0.646 OA
HETATM    9  O           1     -34.637  -1.983 -11.741  0.00  0.00    -0.646 OA
ENDBRANCH   6   7
BRANCH   6  10
HETATM   10  C           1     -33.544  -4.426 -11.834  0.00  0.00     0.010 C 
HETATM   11  C           1     -32.073  -4.668 -12.147  0.00  0.00     0.012 C 
HETATM   12  C           1     -34.185  -5.727 -11.372  0.00  0.00     0.012 C 
ENDBRANCH   6  10
ENDBRANCH   3   6
ENDBRANCH   1   2
BRANCH   1  13
HETATM   13  C           1     -31.437  -4.601 -16.110  0.00  0.00     0.081 C 
BRANCH  13  14
HETATM   14  C           1     -30.620  -5.429 -17.050  0.00  0.00    -0.056 A 
HETATM   15  C           1     -29.465  -4.899 -17.624  0.00  0.00     0.007 A 
HETATM   16  C           1     -28.703  -5.672 -18.501  0.00  0.00     0.001 A 
HETATM   17  C           1     -29.096  -6.975 -18.804  0.00  0.00     0.000 A 
HETATM   18  C           1     -30.251  -7.506 -18.229  0.00  0.00     0.001 A 
HETATM   19  C           1     -31.013  -6.733 -17.353  0.00  0.00     0.007 A 
ENDBRANCH  13  14
ENDBRANCH   1  13
BRANCH   1  20
HETATM   20  N           1     -33.051  -3.322 -17.471  0.00  0.00    -0.066 N 
HETATM   21  H           1     -33.507  -2.562 -16.917  0.00  0.00     0.275 HD
HETATM   22  H           1     -32.116  -2.996 -17.806  0.00  0.00     0.275 HD
HETATM   23  H           1     -33.651  -3.563 -18.292  0.00  0.00     0.275 HD
ENDBRANCH   1  20
TORSDOF 7
ENDMDL
MODEL 2
REMARK VINA RESULT:      -7.2     12.338     14.465
REMARK  7 active torsions:
REMARK  status: ('A' for Active; 'I' for Inactive)
REMARK    1  A    between atoms: C_1  and  C_6 
REMARK    2  A    between atoms: C_1  and  C_13 
REMARK    3  A    between atoms: C_1  and  N_2 
REMARK    4  A    between atoms: N_4  and  C_17 
REMARK       I    between atoms: N_4  and  C_6 
REMARK    5  A    between atoms: C_11  and  C_13 
REMARK    6  A    between atoms: C_15  and  C_17 
REMARK    7  A    between atoms: C_17  and  C_19 
ROOT
HETATM    1  C           1     -21.182  -5.703  -6.865  0.00  0.00     0.278 C 
ENDROOT
BRANCH   1   2
HETATM    2  C           1     -21.685  -4.536  -7.679  0.00  0.00     0.249 C 
HETATM    3  N           1     -22.204  -4.746  -8.928  0.00  0.00    -0.344 N 
HETATM    4  H           1     -22.250  -5.684  -9.305  0.00  0.00     0.163 HD
HETATM    5  O           1     -21.629  -3.417  -7.228  0.00  0.00    -0.271 OA
BRANCH   3   6
HETATM    6  C           1     -22.686  -3.625  -9.711  0.00  0.00     0.189 C 
BRANCH   6   7
HETATM    7  C           1     -24.144  -3.831 -10.039  0.00  0.00     0.197 C 
HETATM    8  O           1     -24.702  -4.912  -9.755  0.00  0.00    -0.646 OA
HETATM    9  O           1     -24.795  -2.919 -10.595  0.00  0.00    -0.646 OA
ENDBRANCH   6   7
BRANCH   6  10
HETATM   10  C           1     -21.885  -3.524 -11.002  0.00  0.00     0.010 C 
HETATM   11  C           1     -22.253  -4.680 -11.923  0.00  0.00     0.012 C 
HETATM   12  C           1     -20.398  -3.584 -10.681  0.00  0.00     0.012 C 
ENDBRANCH   6  10
ENDBRANCH   3   6
ENDBRANCH   1   2
BRANCH   1  13
HETATM   13  C           1     -20.880  -5.241  -5.445  0.00  0.00     0.081 C 
BRANCH  13  14
HETATM   14  C           1     -21.154  -6.357  -4.488  0.00  0.00    -0.056 A 
HETATM   15  C           1     -21.253  -7.668  -4.953  0.00  0.00     0.007 A 
HETATM   16  C           1     -21.507  -8.709  -4.061  0.00  0.00     0.001 A 
HETATM   17  C           1     -21.662  -8.440  -2.701  0.00  0.00     0.000 A 
HETATM   18  C           1     -21.562  -7.129  -2.234  0.00  0.00     0.001 A 
HETATM   19  C           1     -21.307  -6.088  -3.128  0.00  0.00     0.007 A 
ENDBRANCH  13  14
ENDBRANCH   1  13
BRANCH   1  20
HETATM   20  N           1     -19.931  -6.247  -7.490  0.00  0.00    -0.066 N 
HETATM   21  H           1     -20.169  -7.069  -8.088  0.00  0.00     0.275 HD
HETATM   22  H           1     -19.486  -5.506  -8.077  0.00  0.00     0.275 HD
HETATM   23  H           1     -19.267  -6.543  -6.738  0.00  0.00     0.275 HD
ENDBRANCH   1  20
TORSDOF 7
ENDMDL
MODEL 3
REMARK VINA RESULT:      -7.0      4.803      6.766
REMARK  7 active torsions:
REMARK  status: ('A' for Active; 'I' for Inactive)
REMARK    1  A    between atoms: C_1  and  C_6 
REMARK    2  A    between atoms: C_1  and  C_13 
REMARK    3  A    between atoms: C_1  and  N_2 
REMARK    4  A    between atoms: N_4  and  C_17 
REMARK       I    between atoms: N_4  and  C_6 
REMARK    5  A    between atoms: C_11  and  C_13 
REMARK    6  A    between atoms: C_15  and  C_17 
REMARK    7  A    between atoms: C_17  and  C_19 
ROOT
HETATM    1  C           1     -35.669  -1.346 -10.944  0.00  0.00     0.278 C 
ENDROOT
BRANCH   1   2
HETATM    2  C           1     -36.228  -0.827 -12.246  0.00  0.00     0.249 C 
HETATM    3  N           1     -35.416  -0.707 -13.341  0.00  0.00    -0.344 N 
HETATM    4  H           1     -34.440  -0.966 -13.277  0.00  0.00     0.163 HD
HETATM    5  O           1     -37.394  -0.518 -12.323  0.00  0.00    -0.271 OA
BRANCH   3   6
HETATM    6  C           1     -35.953  -0.207 -14.592  0.00  0.00     0.189 C 
BRANCH   6   7
HETATM    7  C           1     -35.877  -1.290 -15.640  0.00  0.00     0.197 C 
HETATM    8  O           1     -36.731  -1.337 -16.552  0.00  0.00    -0.646 OA
HETATM    9  O           1     -34.961  -2.139 -15.597  0.00  0.00    -0.646 OA
ENDBRANCH   6   7
BRANCH   6  10
HETATM   10  C           1     -35.142   0.999 -15.048  0.00  0.00     0.010 C 
HETATM   11  C           1     -34.528   1.688 -13.837  0.00  0.00     0.012 C 
HETATM   12  C           1     -36.053   1.974 -15.780  0.00  0.00     0.012 C 
ENDBRANCH   6  10
ENDBRANCH   3   6
ENDBRANCH   1   2
BRANCH   1  13
HETATM   13  C           1     -36.092  -2.797 -10.751  0.00  0.00     0.081 C 
BRANCH  13  14
HETATM   14  C           1     -34.924  -3.696 -11.005  0.00  0.00    -0.056 A 
HETATM   15  C           1     -33.740  -3.173 -11.526  0.00  0.00     0.007 A 
HETATM   16  C           1     -32.651  -4.011 -11.762  0.00  0.00     0.001 A 
HETATM   17  C           1     -32.744  -5.373 -11.477  0.00  0.00     0.000 A 
HETATM   18  C           1     -33.927  -5.897 -10.954  0.00  0.00     0.001 A 
HETATM   19  C           1     -35.016  -5.058 -10.718  0.00  0.00     0.007 A 
ENDBRANCH  13  14
ENDBRANCH   1  13
BRANCH   1  20
HETATM   20  N           1     -36.193  -0.518  -9.809  0.00  0.00    -0.066 N 
HETATM   21  H           1     -35.406  -0.260  -9.173  0.00  0.00     0.275 HD
HETATM   22  H           1     -36.634   0.351 -10.188  0.00  0.00     0.275 HD
HETATM   23  H           1     -36.906  -1.068  -9.277  0.00  0.00     0.275 HD
ENDBRANCH   1  20
TORSDOF 7
ENDMDL
MODEL 4
REMARK VINA RESULT:      -7.0     13.423     14.841
REMARK  7 active torsions:
REMARK  status: ('A' for Active; 'I' for Inactive)
REMARK    1  A    between atoms: C_1  and  C_6 
REMARK    2  A    between atoms: C_1  and  C_13 
REMARK    3  A    between atoms: C_1  and  N_2 
REMARK    4  A    between atoms: N_4  and  C_17 
REMARK       I    between atoms: N_4  and  C_6 
REMARK    5  A    between atoms: C_11  and  C_13 
REMARK    6  A    between atoms: C_15  and  C_17 
REMARK    7  A    between atoms: C_17  and  C_19 
ROOT
HETATM    1  C           1     -22.353  -5.263  -6.803  0.00  0.00     0.278 C 
ENDROOT
BRANCH   1   2
HETATM    2  C           1     -21.396  -5.783  -5.759  0.00  0.00     0.249 C 
HETATM    3  N           1     -21.797  -6.763  -4.891  0.00  0.00    -0.344 N 
HETATM    4  H           1     -22.735  -7.137  -4.950  0.00  0.00     0.163 HD
HETATM    5  O           1     -20.276  -5.336  -5.689  0.00  0.00    -0.271 OA
BRANCH   3   6
HETATM    6  C           1     -20.878  -7.263  -3.887  0.00  0.00     0.189 C 
BRANCH   6   7
HETATM    7  C           1     -20.310  -8.585  -4.339  0.00  0.00     0.197 C 
HETATM    8  O           1     -21.072  -9.554  -4.548  0.00  0.00    -0.646 OA
HETATM    9  O           1     -19.078  -8.713  -4.505  0.00  0.00    -0.646 OA
ENDBRANCH   6   7
BRANCH   6  10
HETATM   10  C           1     -21.618  -7.452  -2.569  0.00  0.00     0.010 C 
HETATM   11  C           1     -22.183  -6.115  -2.106  0.00  0.00     0.012 C 
HETATM   12  C           1     -20.653  -7.986  -1.519  0.00  0.00     0.012 C 
ENDBRANCH   6  10
ENDBRANCH   3   6
ENDBRANCH   1   2
BRANCH   1  13
HETATM   13  C           1     -21.809  -3.967  -7.391  0.00  0.00     0.081 C 
BRANCH  13  14
HETATM   14  C           1     -21.732  -4.088  -8.880  0.00  0.00    -0.056 A 
HETATM   15  C           1     -22.903  -4.160  -9.637  0.00  0.00     0.007 A 
HETATM   16  C           1     -22.831  -4.272 -11.025  0.00  0.00     0.001 A 
HETATM   17  C           1     -21.589  -4.312 -11.658  0.00  0.00     0.000 A 
HETATM   18  C           1     -20.418  -4.239 -10.903  0.00  0.00     0.001 A 
HETATM   19  C           1     -20.491  -4.127  -9.514  0.00  0.00     0.007 A 
ENDBRANCH  13  14
ENDBRANCH   1  13
BRANCH   1  20
HETATM   20  N           1     -23.689  -5.002  -6.172  0.00  0.00    -0.066 N 
HETATM   21  H           1     -23.729  -5.465  -5.236  0.00  0.00     0.275 HD
HETATM   22  H           1     -23.825  -3.973  -6.058  0.00  0.00     0.275 HD
HETATM   23  H           1     -24.444  -5.388  -6.784  0.00  0.00     0.275 HD
ENDBRANCH   1  20
TORSDOF 7
ENDMDL
MODEL 5
REMARK VINA RESULT:      -6.8     13.601     15.036
REMARK  7 active torsions:
REMARK  status: ('A' for Active; 'I' for Inactive)
REMARK    1  A    between atoms: C_1  and  C_6 
REMARK    2  A    between atoms: C_1  and  C_13 
REMARK    3  A    between atoms: C_1  and  N_2 
REMARK    4  A    between atoms: N_4  and  C_17 
REMARK       I    between atoms: N_4  and  C_6 
REMARK    5  A    between atoms: C_11  and  C_13 
REMARK    6  A    between atoms: C_15  and  C_17 
REMARK    7  A    between atoms: C_17  and  C_19 
ROOT
HETATM    1  C           1     -21.061  -4.994  -6.324  0.00  0.00     0.278 C 
ENDROOT
BRANCH   1   2
HETATM    2  C           1     -21.739  -5.929  -5.353  0.00  0.00     0.249 C 
HETATM    3  N           1     -20.989  -6.685  -4.493  0.00  0.00    -0.344 N 
HETATM    4  H           1     -19.980  -6.616  -4.508  0.00  0.00     0.163 HD
HETATM    5  O           1     -22.945  -6.011  -5.335  0.00  0.00    -0.271 OA
BRANCH   3   6
HETATM    6  C           1     -21.641  -7.584  -3.561  0.00  0.00     0.189 C 
BRANCH   6   7
HETATM    7  C           1     -21.672  -6.953  -2.191  0.00  0.00     0.197 C 
HETATM    8  O           1     -21.139  -7.536  -1.222  0.00  0.00    -0.646 OA
HETATM    9  O           1     -22.230  -5.847  -2.024  0.00  0.00    -0.646 OA
ENDBRANCH   6   7
BRANCH   6  10
HETATM   10  C           1     -20.870  -8.897  -3.497  0.00  0.00     0.010 C 
HETATM   11  C           1     -19.640  -8.809  -4.390  0.00  0.00     0.012 C 
HETATM   12  C           1     -21.765 -10.032  -3.975  0.00  0.00     0.012 C 
ENDBRANCH   6  10
ENDBRANCH   3   6
ENDBRANCH   1   2
BRANCH   1  13
HETATM   13  C           1     -20.735  -5.744  -7.609  0.00  0.00     0.081 C 
BRANCH  13  14
HETATM   14  C           1     -21.114  -4.903  -8.787  0.00  0.00    -0.056 A 
HETATM   15  C           1     -22.409  -4.397  -8.896  0.00  0.00     0.007 A 
HETATM   16  C           1     -22.763  -3.613  -9.994  0.00  0.00     0.001 A 
HETATM   17  C           1     -21.820  -3.334 -10.984  0.00  0.00     0.000 A 
HETATM   18  C           1     -20.524  -3.840 -10.876  0.00  0.00     0.001 A 
HETATM   19  C           1     -20.172  -4.624  -9.777  0.00  0.00     0.007 A 
ENDBRANCH  13  14
ENDBRANCH   1  13
BRANCH   1  20
HETATM   20  N           1     -19.793  -4.474  -5.714  0.00  0.00    -0.066 N 
HETATM   21  H           1     -19.310  -3.846  -6.395  0.00  0.00     0.275 HD
HETATM   22  H           1     -20.019  -3.939  -4.846  0.00  0.00     0.275 HD
HETATM   23  H           1     -19.167  -5.277  -5.476  0.00  0.00     0.275 HD
ENDBRANCH   1  20
TORSDOF 7
ENDMDL
MODEL 6
REMARK VINA RESULT:      -6.6     15.086     16.735
REMARK  7 active torsions:
REMARK  status: ('A' for Active; 'I' for Inactive)
REMARK    1  A    between atoms: C_1  and  C_6 
REMARK    2  A    between atoms: C_1  and  C_13 
REMARK    3  A    between atoms: C_1  and  N_2 
REMARK    4  A    between atoms: N_4  and  C_17 
REMARK       I    between atoms: N_4  and  C_6 
REMARK    5  A    between atoms: C_11  and  C_13 
REMARK    6  A    between atoms: C_15  and  C_17 
REMARK    7  A    between atoms: C_17  and  C_19 
ROOT
HETATM    1  C           1     -20.430  -7.631  -4.889  0.00  0.00     0.278 C 
ENDROOT
BRANCH   1   2
HETATM    2  C           1     -20.405  -8.329  -3.552  0.00  0.00     0.249 C 
HETATM    3  N           1     -21.543  -8.397  -2.794  0.00  0.00    -0.344 N 
HETATM    4  H           1     -22.400  -7.978  -3.130  0.00  0.00     0.163 HD
HETATM    5  O           1     -19.381  -8.829  -3.149  0.00  0.00    -0.271 OA
BRANCH   3   6
HETATM    6  C           1     -21.519  -9.067  -1.509  0.00  0.00     0.189 C 
BRANCH   6   7
HETATM    7  C           1     -22.148 -10.432  -1.641  0.00  0.00     0.197 C 
HETATM    8  O           1     -21.489 -11.379  -2.122  0.00  0.00    -0.646 OA
HETATM    9  O           1     -23.327 -10.617  -1.270  0.00  0.00    -0.646 OA
ENDBRANCH   6   7
BRANCH   6  10
HETATM   10  C           1     -22.301  -8.246  -0.492  0.00  0.00     0.010 C 
HETATM   11  C           1     -22.362  -6.794  -0.948  0.00  0.00     0.012 C 
HETATM   12  C           1     -21.608  -8.323   0.862  0.00  0.00     0.012 C 
ENDBRANCH   6  10
ENDBRANCH   3   6
ENDBRANCH   1   2
BRANCH   1  13
HETATM   13  C           1     -21.163  -6.302  -4.756  0.00  0.00     0.081 C 
BRANCH  13  14
HETATM   14  C           1     -20.941  -5.483  -5.988  0.00  0.00    -0.056 A 
HETATM   15  C           1     -22.031  -4.954  -6.680  0.00  0.00     0.007 A 
HETATM   16  C           1     -21.824  -4.190  -7.828  0.00  0.00     0.001 A 
HETATM   17  C           1     -20.528  -3.954  -8.285  0.00  0.00     0.000 A 
HETATM   18  C           1     -19.437  -4.482  -7.593  0.00  0.00     0.001 A 
HETATM   19  C           1     -19.645  -5.246  -6.444  0.00  0.00     0.007 A 
ENDBRANCH  13  14
ENDBRANCH   1  13
BRANCH   1  20
HETATM   20  N           1     -21.138  -8.493  -5.891  0.00  0.00    -0.066 N 
HETATM   21  H           1     -21.734  -7.896  -6.507  0.00  0.00     0.275 HD
HETATM   22  H           1     -20.433  -9.000  -6.473  0.00  0.00     0.275 HD
HETATM   23  H           1     -21.739  -9.187  -5.390  0.00  0.00     0.275 HD
ENDBRANCH   1  20
TORSDOF 7
ENDMDL
MODEL 7
REMARK VINA RESULT:      -6.4     14.662     16.212
REMARK  7 active torsions:
REMARK  status: ('A' for Active; 'I' for Inactive)
REMARK    1  A    between atoms: C_1  and  C_6 
REMARK    2  A    between atoms: C_1  and  C_13 
REMARK    3  A    between atoms: C_1  and  N_2 
REMARK    4  A    between atoms: N_4  and  C_17 
REMARK       I    between atoms: N_4  and  C_6 
REMARK    5  A    between atoms: C_11  and  C_13 
REMARK    6  A    between atoms: C_15  and  C_17 
REMARK    7  A    between atoms: C_17  and  C_19 
ROOT
HETATM    1  C           1     -21.284  -6.159  -5.593  0.00  0.00     0.278 C 
ENDROOT
BRANCH   1   2
HETATM    2  C           1     -20.289  -7.292  -5.567  0.00  0.00     0.249 C 
HETATM    3  N           1     -20.344  -8.229  -4.571  0.00  0.00    -0.344 N 
HETATM    4  H           1     -21.053  -8.162  -3.852  0.00  0.00     0.163 HD
HETATM    5  O           1     -19.442  -7.373  -6.425  0.00  0.00    -0.271 OA
BRANCH   3   6
HETATM    6  C           1     -19.387  -9.318  -4.544  0.00  0.00     0.189 C 
BRANCH   6   7
HETATM    7  C           1     -20.000 -10.542  -5.178  0.00  0.00     0.197 C 
HETATM    8  O           1     -20.856 -11.207  -4.554  0.00  0.00    -0.646 OA
HETATM    9  O           1     -19.654 -10.892  -6.327  0.00  0.00    -0.646 OA
ENDBRANCH   6   7
BRANCH   6  10
HETATM   10  C           1     -19.009  -9.629  -3.102  0.00  0.00     0.010 C 
HETATM   11  C           1     -19.770  -8.700  -2.164  0.00  0.00     0.012 C 
HETATM   12  C           1     -17.512  -9.423  -2.916  0.00  0.00     0.012 C 
ENDBRANCH   6  10
ENDBRANCH   3   6
ENDBRANCH   1   2
BRANCH   1  13
HETATM   13  C           1     -20.583  -4.875  -6.018  0.00  0.00     0.081 C 
BRANCH  13  14
HETATM   14  C           1     -21.011  -4.507  -7.403  0.00  0.00    -0.056 A 
HETATM   15  C           1     -22.336  -4.148  -7.653  0.00  0.00     0.007 A 
HETATM   16  C           1     -22.735  -3.804  -8.944  0.00  0.00     0.001 A 
HETATM   17  C           1     -21.809  -3.818  -9.987  0.00  0.00     0.000 A 
HETATM   18  C           1     -20.483  -4.175  -9.738  0.00  0.00     0.001 A 
HETATM   19  C           1     -20.085  -4.520  -8.446  0.00  0.00     0.007 A 
ENDBRANCH  13  14
ENDBRANCH   1  13
BRANCH   1  20
HETATM   20  N           1     -21.872  -5.978  -4.225  0.00  0.00    -0.066 N 
HETATM   21  H           1     -22.212  -4.995  -4.118  0.00  0.00     0.275 HD
HETATM   22  H           1     -22.671  -6.639  -4.100  0.00  0.00     0.275 HD
HETATM   23  H           1     -21.141  -6.174  -3.504  0.00  0.00     0.275 HD
ENDBRANCH   1  20
TORSDOF 7
ENDMDL
MODEL 8
REMARK VINA RESULT:      -6.4     13.425     15.690
REMARK  7 active torsions:
REMARK  status: ('A' for Active; 'I' for Inactive)
REMARK    1  A    between atoms: C_1  and  C_6 
REMARK    2  A    between atoms: C_1  and  C_13 
REMARK    3  A    between atoms: C_1  and  N_2 
REMARK    4  A    between atoms: N_4  and  C_17 
REMARK       I    between atoms: N_4  and  C_6 
REMARK    5  A    between atoms: C_11  and  C_13 
REMARK    6  A    between atoms: C_15  and  C_17 
REMARK    7  A    between atoms: C_17  and  C_19 
ROOT
HETATM    1  C           1     -21.678  -5.892  -5.206  0.00  0.00     0.278 C 
ENDROOT
BRANCH   1   2
HETATM    2  C           1     -21.412  -5.893  -6.691  0.00  0.00     0.249 C 
HETATM    3  N           1     -21.904  -4.885  -7.475  0.00  0.00    -0.344 N 
HETATM    4  H           1     -22.446  -4.139  -7.058  0.00  0.00     0.163 HD
HETATM    5  O           1     -20.765  -6.784  -7.189  0.00  0.00    -0.271 OA
BRANCH   3   6
HETATM    6  C           1     -21.650  -4.885  -8.902  0.00  0.00     0.189 C 
BRANCH   6   7
HETATM    7  C           1     -20.252  -4.382  -9.165  0.00  0.00     0.197 C 
HETATM    8  O           1     -19.704  -3.608  -8.351  0.00  0.00    -0.646 OA
HETATM    9  O           1     -19.642  -4.739 -10.196  0.00  0.00    -0.646 OA
ENDBRANCH   6   7
BRANCH   6  10
HETATM   10  C           1     -22.656  -3.977  -9.599  0.00  0.00     0.010 C 
HETATM   11  C           1     -23.933  -3.904  -8.773  0.00  0.00     0.012 C 
HETATM   12  C           1     -22.974  -4.538 -10.978  0.00  0.00     0.012 C 
ENDBRANCH   6  10
ENDBRANCH   3   6
ENDBRANCH   1   2
BRANCH   1  13
HETATM   13  C           1     -20.785  -6.925  -4.529  0.00  0.00     0.081 C 
BRANCH  13  14
HETATM   14  C           1     -21.315  -7.223  -3.162  0.00  0.00    -0.056 A 
HETATM   15  C           1     -21.363  -8.540  -2.704  0.00  0.00     0.007 A 
HETATM   16  C           1     -21.856  -8.819  -1.429  0.00  0.00     0.001 A 
HETATM   17  C           1     -22.301  -7.780  -0.611  0.00  0.00     0.000 A 
HETATM   18  C           1     -22.252  -6.463  -1.068  0.00  0.00     0.001 A 
HETATM   19  C           1     -21.759  -6.185  -2.343  0.00  0.00     0.007 A 
ENDBRANCH  13  14
ENDBRANCH   1  13
BRANCH   1  20
HETATM   20  N           1     -23.116  -6.235  -4.955  0.00  0.00    -0.066 N 
HETATM   21  H           1     -23.697  -5.917  -5.763  0.00  0.00     0.275 HD
HETATM   22  H           1     -23.213  -7.269  -4.841  0.00  0.00     0.275 HD
HETATM   23  H           1     -23.441  -5.757  -4.083  0.00  0.00     0.275 HD
ENDBRANCH   1  20
TORSDOF 7
ENDMDL
MODEL 9
REMARK VINA RESULT:      -6.1     15.325     17.120
REMARK  7 active torsions:
REMARK  status: ('A' for Active; 'I' for Inactive)
REMARK    1  A    between atoms: C_1  and  C_6 
REMARK    2  A    between atoms: C_1  and  C_13 
REMARK    3  A    between atoms: C_1  and  N_2 
REMARK    4  A    between atoms: N_4  and  C_17 
REMARK       I    between atoms: N_4  and  C_6 
REMARK    5  A    between atoms: C_11  and  C_13 
REMARK    6  A    between atoms: C_15  and  C_17 
REMARK    7  A    between atoms: C_17  and  C_19 
ROOT
HETATM    1  C           1     -20.862  -7.468  -3.693  0.00  0.00     0.278 C 
ENDROOT
BRANCH   1   2
HETATM    2  C           1     -21.589  -7.782  -2.409  0.00  0.00     0.249 C 
HETATM    3  N           1     -21.578  -9.056  -1.910  0.00  0.00    -0.344 N 
HETATM    4  H           1     -21.083  -9.788  -2.403  0.00  0.00     0.163 HD
HETATM    5  O           1     -22.181  -6.908  -1.820  0.00  0.00    -0.271 OA
BRANCH   3   6
HETATM    6  C           1     -22.277  -9.359  -0.676  0.00  0.00     0.189 C 
BRANCH   6   7
HETATM    7  C           1     -21.312  -9.282   0.481  0.00  0.00     0.197 C 
HETATM    8  O           1     -21.216  -8.228   1.145  0.00  0.00    -0.646 OA
HETATM    9  O           1     -20.609 -10.272   0.776  0.00  0.00    -0.646 OA
ENDBRANCH   6   7
BRANCH   6  10
HETATM   10  C           1     -22.864 -10.762  -0.754  0.00  0.00     0.010 C 
HETATM   11  C           1     -23.075 -11.146  -2.213  0.00  0.00     0.012 C 
HETATM   12  C           1     -24.200 -10.793  -0.024  0.00  0.00     0.012 C 
ENDBRANCH   6  10
ENDBRANCH   3   6
ENDBRANCH   1   2
BRANCH   1  13
HETATM   13  C           1     -21.866  -7.371  -4.835  0.00  0.00     0.081 C 
BRANCH  13  14
HETATM   14  C           1     -21.586  -6.143  -5.643  0.00  0.00    -0.056 A 
HETATM   15  C           1     -22.602  -5.558  -6.399  0.00  0.00     0.007 A 
HETATM   16  C           1     -22.342  -4.413  -7.151  0.00  0.00     0.001 A 
HETATM   17  C           1     -21.066  -3.852  -7.148  0.00  0.00     0.000 A 
HETATM   18  C           1     -20.049  -4.435  -6.391  0.00  0.00     0.001 A 
HETATM   19  C           1     -20.310  -5.580  -5.639  0.00  0.00     0.007 A 
ENDBRANCH  13  14
ENDBRANCH   1  13
BRANCH   1  20
HETATM   20  N           1     -19.875  -8.558  -3.988  0.00  0.00    -0.066 N 
HETATM   21  H           1     -19.800  -8.691  -5.022  0.00  0.00     0.275 HD
HETATM   22  H           1     -18.940  -8.294  -3.602  0.00  0.00     0.275 HD
HETATM   23  H           1     -20.196  -9.448  -3.544  0.00  0.00     0.275 HD
ENDBRANCH   1  20
TORSDOF 7
ENDMDL
