MODEL 1
REMARK VINA RESULT:      -6.2      0.000      0.000
REMARK  8 active torsions:
REMARK  status: ('A' for Active; 'I' for Inactive)
REMARK    1  A    between atoms: C_2  and  C_3 
REMARK    2  A    between atoms: C_2  and  C_19 
REMARK    3  A    between atoms: C_2  and  N_16 
REMARK       I    between atoms: C_3  and  N_8 
REMARK    4  A    between atoms: S_4  and  C_5 
REMARK    5  A    between atoms: C_5  and  C_13 
REMARK    6  A    between atoms: N_8  and  C_13 
REMARK    7  A    between atoms: C_9  and  C_13 
REMARK    8  A    between atoms: C_18  and  C_19 
ROOT
HETATM    1  C           1     -34.353  -2.417 -12.456  0.00  0.00     0.249 C 
HETATM    2  H           1     -34.981  -0.691 -11.503  0.00  0.00     0.163 HD
HETATM    3  N           1     -35.057  -1.250 -12.344  0.00  0.00    -0.344 N 
HETATM    4  O           1     -34.443  -3.084 -13.459  0.00  0.00    -0.271 OA
ENDROOT
BRANCH   1   5
HETATM    5  C           1     -33.465  -2.875 -11.325  0.00  0.00     0.278 C 
BRANCH   5   6
HETATM    6  C           1     -34.107  -4.064 -10.622  0.00  0.00     0.021 C 
HETATM    7  C           1     -35.615  -4.021 -10.827  0.00  0.00     0.012 C 
BRANCH   6   8
HETATM    8  C           1     -33.553  -5.357 -11.205  0.00  0.00     0.002 C 
HETATM    9  C           1     -34.272  -6.545 -10.580  0.00  0.00     0.005 C 
ENDBRANCH   6   8
ENDBRANCH   5   6
BRANCH   5  10
HETATM   10  N           1     -33.285  -1.754 -10.345  0.00  0.00    -0.066 N 
HETATM   11  H           1     -33.247  -2.140  -9.375  0.00  0.00     0.275 HD
HETATM   12  H           1     -34.088  -1.091 -10.424  0.00  0.00     0.275 HD
HETATM   13  H           1     -32.394  -1.249 -10.555  0.00  0.00     0.275 HD
ENDBRANCH   5  10
ENDBRANCH   1   5
BRANCH   3  14
HETATM   14  C           1     -35.910  -0.810 -13.431  0.00  0.00     0.194 C 
BRANCH  14  15
HETATM   15  C           1     -37.163  -0.157 -12.861  0.00  0.00     0.106 C 
BRANCH  15  16
HETATM   16  S           1     -37.052  -0.110 -11.050  0.00  0.00    -0.180 SA
HETATM   17  H           1     -35.883  -0.769 -10.964  0.00  0.00     0.101 HD
ENDBRANCH  15  16
ENDBRANCH  14  15
BRANCH  14  18
HETATM   18  C           1     -35.167   0.188 -14.283  0.00  0.00     0.197 C 
HETATM   19  O           1     -34.935  -0.066 -15.485  0.00  0.00    -0.646 OA
HETATM   20  O           1     -34.780   1.269 -13.788  0.00  0.00    -0.646 OA
ENDBRANCH  14  18
ENDBRANCH   3  14
TORSDOF 8
ENDMDL
MODEL 2
REMARK VINA RESULT:      -6.2      1.927      2.208
REMARK  8 active torsions:
REMARK  status: ('A' for Active; 'I' for Inactive)
REMARK    1  A    between atoms: C_2  and  C_3 
REMARK    2  A    between atoms: C_2  and  C_19 
REMARK    3  A    between atoms: C_2  and  N_16 
REMARK       I    between atoms: C_3  and  N_8 
REMARK    4  A    between atoms: S_4  and  C_5 
REMARK    5  A    between atoms: C_5  and  C_13 
REMARK    6  A    between atoms: N_8  and  C_13 
REMARK    7  A    between atoms: C_9  and  C_13 
REMARK    8  A    between atoms: C_18  and  C_19 
ROOT
HETATM    1  C           1     -35.017  -1.936 -12.574  0.00  0.00     0.249 C 
HETATM    2  H           1     -33.893  -1.439 -14.238  0.00  0.00     0.163 HD
HETATM    3  N           1     -34.824  -1.463 -13.843  0.00  0.00    -0.344 N 
HETATM    4  O           1     -36.128  -1.966 -12.102  0.00  0.00    -0.271 OA
ENDROOT
BRANCH   1   5
HETATM    5  C           1     -33.840  -2.418 -11.762  0.00  0.00     0.278 C 
BRANCH   5   6
HETATM    6  C           1     -33.774  -3.939 -11.815  0.00  0.00     0.021 C 
HETATM    7  C           1     -32.351  -4.375 -12.135  0.00  0.00     0.012 C 
BRANCH   6   8
HETATM    8  C           1     -34.189  -4.513 -10.467  0.00  0.00     0.002 C 
HETATM    9  C           1     -34.205  -6.033 -10.544  0.00  0.00     0.005 C 
ENDBRANCH   6   8
ENDBRANCH   5   6
BRANCH   5  10
HETATM   10  N           1     -34.000  -1.976 -10.338  0.00  0.00    -0.066 N 
HETATM   11  H           1     -34.826  -2.455  -9.913  0.00  0.00     0.275 HD
HETATM   12  H           1     -34.145  -0.942 -10.309  0.00  0.00     0.275 HD
HETATM   13  H           1     -33.139  -2.222  -9.799  0.00  0.00     0.275 HD
ENDBRANCH   5  10
ENDBRANCH   1   5
BRANCH   3  14
HETATM   14  C           1     -35.954  -1.000 -14.624  0.00  0.00     0.194 C 
BRANCH  14  15
HETATM   15  C           1     -36.248   0.455 -14.278  0.00  0.00     0.106 C 
BRANCH  15  16
HETATM   16  S           1     -34.687   1.346 -14.029  0.00  0.00    -0.180 SA
HETATM   17  H           1     -34.147   1.017 -15.215  0.00  0.00     0.101 HD
ENDBRANCH  15  16
ENDBRANCH  14  15
BRANCH  14  18
HETATM   18  C           1     -35.632  -1.112 -16.093  0.00  0.00     0.197 C 
HETATM   19  O           1     -36.399  -0.608 -16.942  0.00  0.00    -0.646 OA
HETATM   20  O           1     -34.598  -1.711 -16.463  0.00  0.00    -0.646 OA
ENDBRANCH  14  18
ENDBRANCH   3  14
TORSDOF 8
ENDMDL
MODEL 3
REMARK VINA RESULT:      -5.9      2.376      2.576
REMARK  8 active torsions:
REMARK  status: ('A' for Active; 'I' for Inactive)
REMARK    1  A    between atoms: C_2  and  C_3 
REMARK    2  A    between atoms: C_2  and  C_19 
REMARK    3  A    between atoms: C_2  and  N_16 
REMARK       I    between atoms: C_3  and  N_8 
REMARK    4  A    between atoms: S_4  and  C_5 
REMARK    5  A    between atoms: C_5  and  C_13 
REMARK    6  A    between atoms: N_8  and  C_13 
REMARK    7  A    between atoms: C_9  and  C_13 
REMARK    8  A    between atoms: C_18  and  C_19 
ROOT
HETATM    1  C           1     -34.259  -2.371 -11.676  0.00  0.00     0.249 C 
HETATM    2  H           1     -35.819  -2.435 -13.033  0.00  0.00     0.163 HD
HETATM    3  N           1     -35.306  -1.850 -12.385  0.00  0.00    -0.344 N 
HETATM    4  O           1     -33.646  -1.675 -10.903  0.00  0.00    -0.271 OA
ENDROOT
BRANCH   1   5
HETATM    5  C           1     -33.867  -3.817 -11.860  0.00  0.00     0.278 C 
BRANCH   5   6
HETATM    6  C           1     -34.353  -4.631 -10.668  0.00  0.00     0.021 C 
HETATM    7  C           1     -35.872  -4.573 -10.597  0.00  0.00     0.012 C 
BRANCH   6   8
HETATM    8  C           1     -33.908  -6.079 -10.828  0.00  0.00     0.002 C 
HETATM    9  C           1     -34.785  -6.979  -9.969  0.00  0.00     0.005 C 
ENDBRANCH   6   8
ENDBRANCH   5   6
BRANCH   5  10
HETATM   10  N           1     -32.375  -3.922 -11.961  0.00  0.00    -0.066 N 
HETATM   11  H           1     -32.084  -4.915 -11.817  0.00  0.00     0.275 HD
HETATM   12  H           1     -31.934  -3.320 -11.230  0.00  0.00     0.275 HD
HETATM   13  H           1     -32.068  -3.603 -12.908  0.00  0.00     0.275 HD
ENDBRANCH   5  10
ENDBRANCH   1   5
BRANCH   3  14
HETATM   14  C           1     -35.683  -0.461 -12.209  0.00  0.00     0.194 C 
BRANCH  14  15
HETATM   15  C           1     -36.291   0.068 -13.501  0.00  0.00     0.106 C 
BRANCH  15  16
HETATM   16  S           1     -34.999   0.862 -14.499  0.00  0.00    -0.180 SA
HETATM   17  H           1     -34.922  -0.108 -15.426  0.00  0.00     0.101 HD
ENDBRANCH  15  16
ENDBRANCH  14  15
BRANCH  14  18
HETATM   18  C           1     -36.693  -0.352 -11.094  0.00  0.00     0.197 C 
HETATM   19  O           1     -37.745  -1.027 -11.135  0.00  0.00    -0.646 OA
HETATM   20  O           1     -36.482   0.416 -10.130  0.00  0.00    -0.646 OA
ENDBRANCH  14  18
ENDBRANCH   3  14
TORSDOF 8
ENDMDL
MODEL 4
REMARK VINA RESULT:      -5.7     12.738     13.968
REMARK  8 active torsions:
REMARK  status: ('A' for Active; 'I' for Inactive)
REMARK    1  A    between atoms: C_2  and  C_3 
REMARK    2  A    between atoms: C_2  and  C_19 
REMARK    3  A    between atoms: C_2  and  N_16 
REMARK       I    between atoms: C_3  and  N_8 
REMARK    4  A    between atoms: S_4  and  C_5 
REMARK    5  A    between atoms: C_5  and  C_13 
REMARK    6  A    between atoms: N_8  and  C_13 
REMARK    7  A    between atoms: C_9  and  C_13 
REMARK    8  A    between atoms: C_18  and  C_19 
ROOT
HETATM    1  C           1     -21.806  -4.749  -7.802  0.00  0.00     0.249 C 
HETATM    2  H           1     -22.321  -5.708  -9.561  0.00  0.00     0.163 HD
HETATM    3  N           1     -22.318  -4.824  -9.068  0.00  0.00    -0.344 N 
HETATM    4  O           1     -21.802  -3.695  -7.213  0.00  0.00    -0.271 OA
ENDROOT
BRANCH   1   5
HETATM    5  C           1     -21.244  -5.983  -7.141  0.00  0.00     0.278 C 
BRANCH   5   6
HETATM    6  C           1     -21.449  -5.892  -5.634  0.00  0.00     0.021 C 
HETATM    7  C           1     -22.883  -6.271  -5.293  0.00  0.00     0.012 C 
BRANCH   6   8
HETATM    8  C           1     -20.492  -6.847  -4.933  0.00  0.00     0.002 C 
HETATM    9  C           1     -21.164  -8.202  -4.757  0.00  0.00     0.005 C 
ENDBRANCH   6   8
ENDBRANCH   5   6
BRANCH   5  10
HETATM   10  N           1     -19.778  -6.087  -7.439  0.00  0.00    -0.066 N 
HETATM   11  H           1     -19.617  -6.833  -8.152  0.00  0.00     0.275 HD
HETATM   12  H           1     -19.261  -6.326  -6.563  0.00  0.00     0.275 HD
HETATM   13  H           1     -19.433  -5.172  -7.808  0.00  0.00     0.275 HD
ENDBRANCH   5  10
ENDBRANCH   1   5
BRANCH   3  14
HETATM   14  C           1     -22.859  -3.638  -9.704  0.00  0.00     0.194 C 
BRANCH  14  15
HETATM   15  C           1     -22.023  -3.294 -10.931  0.00  0.00     0.106 C 
BRANCH  15  16
HETATM   16  S           1     -20.484  -4.256 -10.906  0.00  0.00    -0.180 SA
HETATM   17  H           1     -21.014  -5.379 -11.421  0.00  0.00     0.101 HD
ENDBRANCH  15  16
ENDBRANCH  14  15
BRANCH  14  18
HETATM   18  C           1     -24.284  -3.897 -10.122  0.00  0.00     0.197 C 
HETATM   19  O           1     -24.889  -3.063 -10.831  0.00  0.00    -0.646 OA
HETATM   20  O           1     -24.863  -4.945  -9.760  0.00  0.00    -0.646 OA
ENDBRANCH  14  18
ENDBRANCH   3  14
TORSDOF 8
ENDMDL
MODEL 5
REMARK VINA RESULT:      -5.7     10.989     11.914
REMARK  8 active torsions:
REMARK  status: ('A' for Active; 'I' for Inactive)
REMARK    1  A    between atoms: C_2  and  C_3 
REMARK    2  A    between atoms: C_2  and  C_19 
REMARK    3  A    between atoms: C_2  and  N_16 
REMARK       I    between atoms: C_3  and  N_8 
REMARK    4  A    between atoms: S_4  and  C_5 
REMARK    5  A    between atoms: C_5  and  C_13 
REMARK    6  A    between atoms: N_8  and  C_13 
REMARK    7  A    between atoms: C_9  and  C_13 
REMARK    8  A    between atoms: C_18  and  C_19 
ROOT
HETATM    1  C           1     -26.287  -6.338 -18.203  0.00  0.00     0.249 C 
HETATM    2  H           1     -27.606  -6.894 -19.696  0.00  0.00     0.163 HD
HETATM    3  N           1     -27.523  -6.541 -18.752  0.00  0.00    -0.344 N 
HETATM    4  O           1     -26.187  -5.916 -17.076  0.00  0.00    -0.271 OA
ENDROOT
BRANCH   1   5
HETATM    5  C           1     -25.046  -6.638 -19.007  0.00  0.00     0.278 C 
BRANCH   5   6
HETATM    6  C           1     -25.444  -7.144 -20.388  0.00  0.00     0.021 C 
HETATM    7  C           1     -25.509  -5.973 -21.358  0.00  0.00     0.012 C 
BRANCH   6   8
HETATM    8  C           1     -24.410  -8.150 -20.877  0.00  0.00     0.002 C 
HETATM    9  C           1     -24.036  -7.835 -22.319  0.00  0.00     0.005 C 
ENDBRANCH   6   8
ENDBRANCH   5   6
BRANCH   5  10
HETATM   10  N           1     -24.237  -7.688 -18.306  0.00  0.00    -0.066 N 
HETATM   11  H           1     -24.872  -8.315 -17.763  0.00  0.00     0.275 HD
HETATM   12  H           1     -23.561  -7.229 -17.655  0.00  0.00     0.275 HD
HETATM   13  H           1     -23.712  -8.252 -19.013  0.00  0.00     0.275 HD
ENDBRANCH   5  10
ENDBRANCH   1   5
BRANCH   3  14
HETATM   14  C           1     -28.716  -6.252 -17.979  0.00  0.00     0.194 C 
BRANCH  14  15
HETATM   15  C           1     -29.326  -4.941 -18.458  0.00  0.00     0.106 C 
BRANCH  15  16
HETATM   16  S           1     -28.956  -3.627 -17.263  0.00  0.00    -0.180 SA
HETATM   17  H           1     -30.228  -3.224 -17.099  0.00  0.00     0.101 HD
ENDBRANCH  15  16
ENDBRANCH  14  15
BRANCH  14  18
HETATM   18  C           1     -29.714  -7.368 -18.158  0.00  0.00     0.197 C 
HETATM   19  O           1     -29.483  -8.290 -18.971  0.00  0.00    -0.646 OA
HETATM   20  O           1     -30.775  -7.372 -17.496  0.00  0.00    -0.646 OA
ENDBRANCH  14  18
ENDBRANCH   3  14
TORSDOF 8
ENDMDL
MODEL 6
REMARK VINA RESULT:      -5.4     10.880     11.909
REMARK  8 active torsions:
REMARK  status: ('A' for Active; 'I' for Inactive)
REMARK    1  A    between atoms: C_2  and  C_3 
REMARK    2  A    between atoms: C_2  and  C_19 
REMARK    3  A    between atoms: C_2  and  N_16 
REMARK       I    between atoms: C_3  and  N_8 
REMARK    4  A    between atoms: S_4  and  C_5 
REMARK    5  A    between atoms: C_5  and  C_13 
REMARK    6  A    between atoms: N_8  and  C_13 
REMARK    7  A    between atoms: C_9  and  C_13 
REMARK    8  A    between atoms: C_18  and  C_19 
ROOT
HETATM    1  C           1     -27.759  -6.334 -19.077  0.00  0.00     0.249 C 
HETATM    2  H           1     -26.465  -7.798 -18.396  0.00  0.00     0.163 HD
HETATM    3  N           1     -26.616  -7.084 -19.097  0.00  0.00    -0.344 N 
HETATM    4  O           1     -27.939  -5.483 -19.914  0.00  0.00    -0.271 OA
ENDROOT
BRANCH   1   5
HETATM    5  C           1     -28.796  -6.568 -18.006  0.00  0.00     0.278 C 
BRANCH   5   6
HETATM    6  C           1     -29.557  -5.276 -17.742  0.00  0.00     0.021 C 
HETATM    7  C           1     -30.884  -5.595 -17.068  0.00  0.00     0.012 C 
BRANCH   6   8
HETATM    8  C           1     -28.730  -4.377 -16.832  0.00  0.00     0.002 C 
HETATM    9  C           1     -28.890  -2.927 -17.266  0.00  0.00     0.005 C 
ENDBRANCH   6   8
ENDBRANCH   5   6
BRANCH   5  10
HETATM   10  N           1     -28.121  -7.016 -16.744  0.00  0.00    -0.066 N 
HETATM   11  H           1     -28.736  -7.691 -16.238  0.00  0.00     0.275 HD
HETATM   12  H           1     -27.938  -6.187 -16.135  0.00  0.00     0.275 HD
HETATM   13  H           1     -27.214  -7.480 -16.981  0.00  0.00     0.275 HD
ENDBRANCH   5  10
ENDBRANCH   1   5
BRANCH   3  14
HETATM   14  C           1     -25.619  -6.859 -20.126  0.00  0.00     0.194 C 
BRANCH  14  15
HETATM   15  C           1     -24.228  -6.914 -19.507  0.00  0.00     0.106 C 
BRANCH  15  16
HETATM   16  S           1     -24.372  -7.136 -17.712  0.00  0.00    -0.180 SA
HETATM   17  H           1     -24.274  -5.831 -17.401  0.00  0.00     0.101 HD
ENDBRANCH  15  16
ENDBRANCH  14  15
BRANCH  14  18
HETATM   18  C           1     -25.741  -7.925 -21.187  0.00  0.00     0.197 C 
HETATM   19  O           1     -26.791  -8.597 -21.281  0.00  0.00    -0.646 OA
HETATM   20  O           1     -24.791  -8.139 -21.971  0.00  0.00    -0.646 OA
ENDBRANCH  14  18
ENDBRANCH   3  14
TORSDOF 8
ENDMDL
MODEL 7
REMARK VINA RESULT:      -5.4     14.732     16.527
REMARK  8 active torsions:
REMARK  status: ('A' for Active; 'I' for Inactive)
REMARK    1  A    between atoms: C_2  and  C_3 
REMARK    2  A    between atoms: C_2  and  C_19 
REMARK    3  A    between atoms: C_2  and  N_16 
REMARK       I    between atoms: C_3  and  N_8 
REMARK    4  A    between atoms: S_4  and  C_5 
REMARK    5  A    between atoms: C_5  and  C_13 
REMARK    6  A    between atoms: N_8  and  C_13 
REMARK    7  A    between atoms: C_9  and  C_13 
REMARK    8  A    between atoms: C_18  and  C_19 
ROOT
HETATM    1  C           1     -21.705  -5.523  -5.849  0.00  0.00     0.249 C 
HETATM    2  H           1     -20.008  -6.384  -5.039  0.00  0.00     0.163 HD
HETATM    3  N           1     -21.020  -6.386  -5.040  0.00  0.00    -0.344 N 
HETATM    4  O           1     -22.913  -5.525  -5.851  0.00  0.00    -0.271 OA
ENDROOT
BRANCH   1   5
HETATM    5  C           1     -20.953  -4.567  -6.743  0.00  0.00     0.278 C 
BRANCH   5   6
HETATM    6  C           1     -21.336  -4.819  -8.195  0.00  0.00     0.021 C 
HETATM    7  C           1     -22.342  -3.769  -8.645  0.00  0.00     0.012 C 
BRANCH   6   8
HETATM    8  C           1     -20.091  -4.737  -9.069  0.00  0.00     0.002 C 
HETATM    9  C           1     -20.492  -4.366 -10.491  0.00  0.00     0.005 C 
ENDBRANCH   6   8
ENDBRANCH   5   6
BRANCH   5  10
HETATM   10  N           1     -19.478  -4.778  -6.572  0.00  0.00    -0.066 N 
HETATM   11  H           1     -19.005  -3.855  -6.443  0.00  0.00     0.275 HD
HETATM   12  H           1     -19.094  -5.251  -7.421  0.00  0.00     0.275 HD
HETATM   13  H           1     -19.308  -5.377  -5.732  0.00  0.00     0.275 HD
ENDBRANCH   5  10
ENDBRANCH   1   5
BRANCH   3  14
HETATM   14  C           1     -21.743  -7.305  -4.182  0.00  0.00     0.194 C 
BRANCH  14  15
HETATM   15  C           1     -21.125  -8.693  -4.289  0.00  0.00     0.106 C 
BRANCH  15  16
HETATM   16  S           1     -19.484  -8.570  -5.054  0.00  0.00    -0.180 SA
HETATM   17  H           1     -19.738  -9.413  -6.069  0.00  0.00     0.101 HD
ENDBRANCH  15  16
ENDBRANCH  14  15
BRANCH  14  18
HETATM   18  C           1     -21.662  -6.828  -2.753  0.00  0.00     0.197 C 
HETATM   19  O           1     -22.415  -5.912  -2.356  0.00  0.00    -0.646 OA
HETATM   20  O           1     -20.842  -7.347  -1.965  0.00  0.00    -0.646 OA
ENDBRANCH  14  18
ENDBRANCH   3  14
TORSDOF 8
ENDMDL
MODEL 8
REMARK VINA RESULT:      -5.3      2.731      5.300
REMARK  8 active torsions:
REMARK  status: ('A' for Active; 'I' for Inactive)
REMARK    1  A    between atoms: C_2  and  C_3 
REMARK    2  A    between atoms: C_2  and  C_19 
REMARK    3  A    between atoms: C_2  and  N_16 
REMARK       I    between atoms: C_3  and  N_8 
REMARK    4  A    between atoms: S_4  and  C_5 
REMARK    5  A    between atoms: C_5  and  C_13 
REMARK    6  A    between atoms: N_8  and  C_13 
REMARK    7  A    between atoms: C_9  and  C_13 
REMARK    8  A    between atoms: C_18  and  C_19 
ROOT
HETATM    1  C           1     -36.002  -0.936 -12.834  0.00  0.00     0.249 C 
HETATM    2  H           1     -34.227  -1.562 -13.694  0.00  0.00     0.163 HD
HETATM    3  N           1     -34.903  -1.740 -12.962  0.00  0.00    -0.344 N 
HETATM    4  O           1     -36.809  -1.148 -11.961  0.00  0.00    -0.271 OA
ENDROOT
BRANCH   1   5
HETATM    5  C           1     -36.209   0.216 -13.787  0.00  0.00     0.278 C 
BRANCH   5   6
HETATM    6  C           1     -36.806  -0.300 -15.089  0.00  0.00     0.021 C 
HETATM    7  C           1     -38.026   0.534 -15.455  0.00  0.00     0.012 C 
BRANCH   6   8
HETATM    8  C           1     -35.769  -0.196 -16.200  0.00  0.00     0.002 C 
HETATM    9  C           1     -35.314  -1.592 -16.603  0.00  0.00     0.005 C 
ENDBRANCH   6   8
ENDBRANCH   5   6
BRANCH   5  10
HETATM   10  N           1     -34.891   0.875 -14.069  0.00  0.00    -0.066 N 
HETATM   11  H           1     -34.996   1.539 -14.869  0.00  0.00     0.275 HD
HETATM   12  H           1     -34.183   0.146 -14.312  0.00  0.00     0.275 HD
HETATM   13  H           1     -34.575   1.398 -13.221  0.00  0.00     0.275 HD
ENDBRANCH   5  10
ENDBRANCH   1   5
BRANCH   3  14
HETATM   14  C           1     -34.705  -2.847 -12.047  0.00  0.00     0.194 C 
BRANCH  14  15
HETATM   15  C           1     -34.349  -4.101 -12.836  0.00  0.00     0.106 C 
BRANCH  15  16
HETATM   16  S           1     -34.752  -5.572 -11.851  0.00  0.00    -0.180 SA
HETATM   17  H           1     -34.117  -5.172 -10.736  0.00  0.00     0.101 HD
ENDBRANCH  15  16
ENDBRANCH  14  15
BRANCH  14  18
HETATM   18  C           1     -33.583  -2.518 -11.093  0.00  0.00     0.197 C 
HETATM   19  O           1     -33.782  -1.733 -10.141  0.00  0.00    -0.646 OA
HETATM   20  O           1     -32.453  -3.028 -11.255  0.00  0.00    -0.646 OA
ENDBRANCH  14  18
ENDBRANCH   3  14
TORSDOF 8
ENDMDL
MODEL 9
REMARK VINA RESULT:      -5.3     13.275     14.942
REMARK  8 active torsions:
REMARK  status: ('A' for Active; 'I' for Inactive)
REMARK    1  A    between atoms: C_2  and  C_3 
REMARK    2  A    between atoms: C_2  and  C_19 
REMARK    3  A    between atoms: C_2  and  N_16 
REMARK       I    between atoms: C_3  and  N_8 
REMARK    4  A    between atoms: S_4  and  C_5 
REMARK    5  A    between atoms: C_5  and  C_13 
REMARK    6  A    between atoms: N_8  and  C_13 
REMARK    7  A    between atoms: C_9  and  C_13 
REMARK    8  A    between atoms: C_18  and  C_19 
ROOT
HETATM    1  C           1     -22.542  -4.314  -7.844  0.00  0.00     0.249 C 
HETATM    2  H           1     -22.749  -6.345  -7.509  0.00  0.00     0.163 HD
HETATM    3  N           1     -22.306  -5.493  -7.191  0.00  0.00    -0.344 N 
HETATM    4  O           1     -22.013  -3.297  -7.465  0.00  0.00    -0.271 OA
ENDROOT
BRANCH   1   5
HETATM    5  C           1     -23.465  -4.284  -9.037  0.00  0.00     0.278 C 
BRANCH   5   6
HETATM    6  C           1     -22.676  -4.603 -10.300  0.00  0.00     0.021 C 
HETATM    7  C           1     -23.631  -5.055 -11.395  0.00  0.00     0.012 C 
BRANCH   6   8
HETATM    8  C           1     -21.929  -3.358 -10.759  0.00  0.00     0.002 C 
HETATM    9  C           1     -20.469  -3.705 -11.013  0.00  0.00     0.005 C 
ENDBRANCH   6   8
ENDBRANCH   5   6
BRANCH   5  10
HETATM   10  N           1     -24.076  -2.920  -9.162  0.00  0.00    -0.066 N 
HETATM   11  H           1     -23.415  -2.284  -9.662  0.00  0.00     0.275 HD
HETATM   12  H           1     -24.274  -2.539  -8.210  0.00  0.00     0.275 HD
HETATM   13  H           1     -24.969  -2.988  -9.702  0.00  0.00     0.275 HD
ENDBRANCH   5  10
ENDBRANCH   1   5
BRANCH   3  14
HETATM   14  C           1     -21.419  -5.522  -6.044  0.00  0.00     0.194 C 
BRANCH  14  15
HETATM   15  C           1     -21.816  -6.669  -5.124  0.00  0.00     0.106 C 
BRANCH  15  16
HETATM   16  S           1     -21.382  -6.251  -3.412  0.00  0.00    -0.180 SA
HETATM   17  H           1     -20.167  -5.749  -3.694  0.00  0.00     0.101 HD
ENDBRANCH  15  16
ENDBRANCH  14  15
BRANCH  14  18
HETATM   18  C           1     -19.998  -5.721  -6.512  0.00  0.00     0.197 C 
HETATM   19  O           1     -19.612  -6.853  -6.876  0.00  0.00    -0.646 OA
HETATM   20  O           1     -19.206  -4.754  -6.534  0.00  0.00    -0.646 OA
ENDBRANCH  14  18
ENDBRANCH   3  14
TORSDOF 8
ENDMDL
