MODEL 1
REMARK VINA RESULT:      -7.3      0.000      0.000
REMARK  9 active torsions:
REMARK  status: ('A' for Active; 'I' for Inactive)
REMARK    1  A    between atoms: C_2  and  C_3 
REMARK    2  A    between atoms: C_2  and  N_6 
REMARK       I    between atoms: N_6  and  C_7 
REMARK    3  A    between atoms: C_7  and  C_8 
REMARK    4  A    between atoms: C_8  and  C_9 
REMARK    5  A    between atoms: C_8  and  N_21 
REMARK    6  A    between atoms: C_9  and  C_10 
REMARK    7  A    between atoms: C_13  and  O_14 
REMARK    8  A    between atoms: O_14  and  P_15 
REMARK    9  A    between atoms: P_15  and  O_16 
ROOT
HETATM    1  C           1     -33.824  -4.823 -15.457  0.00  0.00     0.278 C 
ENDROOT
BRANCH   1   2
HETATM    2  C           1     -34.268  -3.899 -14.350  0.00  0.00     0.249 C 
HETATM    3  N           1     -34.252  -4.329 -13.051  0.00  0.00    -0.345 N 
HETATM    4  H           1     -33.944  -5.268 -12.832  0.00  0.00     0.163 HD
HETATM    5  O           1     -34.637  -2.778 -14.610  0.00  0.00    -0.271 OA
BRANCH   3   6
HETATM    6  C           1     -34.679  -3.441 -11.987  0.00  0.00     0.181 C 
HETATM    7  C           1     -35.477  -4.229 -10.957  0.00  0.00     0.043 C 
BRANCH   6   8
HETATM    8  C           1     -33.468  -2.831 -11.325  0.00  0.00     0.196 C 
HETATM    9  O           1     -32.346  -3.365 -11.463  0.00  0.00    -0.646 OA
HETATM   10  O           1     -33.587  -1.794 -10.638  0.00  0.00    -0.646 OA
ENDBRANCH   6   8
ENDBRANCH   3   6
ENDBRANCH   1   2
BRANCH   1  11
HETATM   11  C           1     -33.330  -4.000 -16.640  0.00  0.00     0.081 C 
BRANCH  11  12
HETATM   12  C           1     -31.988  -4.502 -17.072  0.00  0.00    -0.056 A 
HETATM   13  C           1     -31.029  -3.609 -17.547  0.00  0.00     0.010 A 
HETATM   14  C           1     -29.777  -4.077 -17.950  0.00  0.00     0.038 A 
HETATM   15  C           1     -29.486  -5.439 -17.876  0.00  0.00     0.081 A 
HETATM   16  C           1     -30.446  -6.333 -17.399  0.00  0.00     0.038 A 
HETATM   17  C           1     -31.697  -5.864 -16.998  0.00  0.00     0.010 A 
BRANCH  15  18
HETATM   18  O           1     -28.271  -5.894 -18.266  0.00  0.00    -0.247 OA
BRANCH  18  19
HETATM   19  P           1     -27.138  -6.096 -17.134  0.00  0.00     0.411 P 
HETATM   20  O           1     -25.820  -6.273 -17.782  0.00  0.00    -0.624 OA
HETATM   21  O           1     -27.101  -4.905 -16.254  0.00  0.00    -0.624 OA
BRANCH  19  22
HETATM   22  O           1     -27.484  -7.404 -16.252  0.00  0.00    -0.300 OA
HETATM   23  H           1     -28.149  -7.858 -16.740  0.00  0.00     0.223 HD
ENDBRANCH  19  22
ENDBRANCH  18  19
ENDBRANCH  15  18
ENDBRANCH  11  12
ENDBRANCH   1  11
BRANCH   1  24
HETATM   24  N           1     -34.979  -5.676 -15.888  0.00  0.00    -0.066 N 
HETATM   25  H           1     -35.570  -5.146 -16.568  0.00  0.00     0.275 HD
HETATM   26  H           1     -34.619  -6.545 -16.344  0.00  0.00     0.275 HD
HETATM   27  H           1     -35.554  -5.932 -15.054  0.00  0.00     0.275 HD
ENDBRANCH   1  24
TORSDOF 9
ENDMDL
MODEL 2
REMARK VINA RESULT:      -7.2     13.454     14.870
REMARK  9 active torsions:
REMARK  status: ('A' for Active; 'I' for Inactive)
REMARK    1  A    between atoms: C_2  and  C_3 
REMARK    2  A    between atoms: C_2  and  N_6 
REMARK       I    between atoms: N_6  and  C_7 
REMARK    3  A    between atoms: C_7  and  C_8 
REMARK    4  A    between atoms: C_8  and  C_9 
REMARK    5  A    between atoms: C_8  and  N_21 
REMARK    6  A    between atoms: C_9  and  C_10 
REMARK    7  A    between atoms: C_13  and  O_14 
REMARK    8  A    between atoms: O_14  and  P_15 
REMARK    9  A    between atoms: P_15  and  O_16 
ROOT
HETATM    1  C           1     -21.565  -6.705  -4.947  0.00  0.00     0.278 C 
ENDROOT
BRANCH   1   2
HETATM    2  C           1     -20.903  -8.049  -4.765  0.00  0.00     0.249 C 
HETATM    3  N           1     -19.549  -8.172  -4.923  0.00  0.00    -0.345 N 
HETATM    4  H           1     -18.991  -7.363  -5.162  0.00  0.00     0.163 HD
HETATM    5  O           1     -21.569  -9.016  -4.480  0.00  0.00    -0.271 OA
BRANCH   3   6
HETATM    6  C           1     -18.913  -9.464  -4.748  0.00  0.00     0.181 C 
HETATM    7  C           1     -17.909  -9.692  -5.870  0.00  0.00     0.043 C 
BRANCH   6   8
HETATM    8  C           1     -18.198  -9.496  -3.420  0.00  0.00     0.196 C 
HETATM    9  O           1     -18.855  -9.572  -2.358  0.00  0.00    -0.646 OA
HETATM   10  O           1     -16.950  -9.447  -3.380  0.00  0.00    -0.646 OA
ENDBRANCH   6   8
ENDBRANCH   3   6
ENDBRANCH   1   2
BRANCH   1  11
HETATM   11  C           1     -20.548  -5.706  -5.486  0.00  0.00     0.081 C 
BRANCH  11  12
HETATM   12  C           1     -21.034  -5.153  -6.789  0.00  0.00    -0.056 A 
HETATM   13  C           1     -20.241  -5.257  -7.931  0.00  0.00     0.010 A 
HETATM   14  C           1     -20.694  -4.742  -9.146  0.00  0.00     0.038 A 
HETATM   15  C           1     -21.942  -4.123  -9.218  0.00  0.00     0.081 A 
HETATM   16  C           1     -22.736  -4.019  -8.076  0.00  0.00     0.038 A 
HETATM   17  C           1     -22.282  -4.534  -6.861  0.00  0.00     0.010 A 
BRANCH  15  18
HETATM   18  O           1     -22.382  -3.622 -10.398  0.00  0.00    -0.247 OA
BRANCH  18  19
HETATM   19  P           1     -23.699  -4.285 -11.058  0.00  0.00     0.411 P 
HETATM   20  O           1     -24.049  -5.520 -10.322  0.00  0.00    -0.624 OA
HETATM   21  O           1     -24.825  -3.327 -10.981  0.00  0.00    -0.624 OA
BRANCH  19  22
HETATM   22  O           1     -23.404  -4.645 -12.605  0.00  0.00    -0.300 OA
HETATM   23  H           1     -24.186  -4.394 -13.066  0.00  0.00     0.223 HD
ENDBRANCH  19  22
ENDBRANCH  18  19
ENDBRANCH  15  18
ENDBRANCH  11  12
ENDBRANCH   1  11
BRANCH   1  24
HETATM   24  N           1     -22.088  -6.222  -3.628  0.00  0.00    -0.066 N 
HETATM   25  H           1     -21.433  -6.511  -2.866  0.00  0.00     0.275 HD
HETATM   26  H           1     -22.165  -5.180  -3.644  0.00  0.00     0.275 HD
HETATM   27  H           1     -23.030  -6.638  -3.453  0.00  0.00     0.275 HD
ENDBRANCH   1  24
TORSDOF 9
ENDMDL
MODEL 3
REMARK VINA RESULT:      -7.0     13.986     15.727
REMARK  9 active torsions:
REMARK  status: ('A' for Active; 'I' for Inactive)
REMARK    1  A    between atoms: C_2  and  C_3 
REMARK    2  A    between atoms: C_2  and  N_6 
REMARK       I    between atoms: N_6  and  C_7 
REMARK    3  A    between atoms: C_7  and  C_8 
REMARK    4  A    between atoms: C_8  and  C_9 
REMARK    5  A    between atoms: C_8  and  N_21 
REMARK    6  A    between atoms: C_9  and  C_10 
REMARK    7  A    between atoms: C_13  and  O_14 
REMARK    8  A    between atoms: O_14  and  P_15 
REMARK    9  A    between atoms: P_15  and  O_16 
ROOT
HETATM    1  C           1     -21.192  -5.614  -6.592  0.00  0.00     0.278 C 
ENDROOT
BRANCH   1   2
HETATM    2  C           1     -21.583  -4.508  -7.541  0.00  0.00     0.249 C 
HETATM    3  N           1     -22.007  -4.811  -8.807  0.00  0.00    -0.345 N 
HETATM    4  H           1     -22.057  -5.776  -9.108  0.00  0.00     0.163 HD
HETATM    5  O           1     -21.523  -3.356  -7.184  0.00  0.00    -0.271 OA
BRANCH   3   6
HETATM    6  C           1     -22.383  -3.748  -9.720  0.00  0.00     0.181 C 
HETATM    7  C           1     -21.429  -3.737 -10.907  0.00  0.00     0.043 C 
BRANCH   6   8
HETATM    8  C           1     -23.791  -3.980 -10.209  0.00  0.00     0.196 C 
HETATM    9  O           1     -24.272  -5.134 -10.202  0.00  0.00    -0.646 OA
HETATM   10  O           1     -24.476  -3.020 -10.622  0.00  0.00    -0.646 OA
ENDBRANCH   6   8
ENDBRANCH   3   6
ENDBRANCH   1   2
BRANCH   1  11
HETATM   11  C           1     -22.358  -5.922  -5.662  0.00  0.00     0.081 C 
BRANCH  11  12
HETATM   12  C           1     -21.878  -6.766  -4.522  0.00  0.00    -0.056 A 
HETATM   13  C           1     -21.761  -6.215  -3.247  0.00  0.00     0.010 A 
HETATM   14  C           1     -21.314  -7.002  -2.184  0.00  0.00     0.038 A 
HETATM   15  C           1     -20.985  -8.340  -2.399  0.00  0.00     0.081 A 
HETATM   16  C           1     -21.103  -8.892  -3.675  0.00  0.00     0.038 A 
HETATM   17  C           1     -21.550  -8.104  -4.737  0.00  0.00     0.010 A 
BRANCH  15  18
HETATM   18  O           1     -20.551  -9.104  -1.368  0.00  0.00    -0.247 OA
BRANCH  18  19
HETATM   19  P           1     -21.596  -9.441  -0.183  0.00  0.00     0.411 P 
HETATM   20  O           1     -22.948  -9.621  -0.755  0.00  0.00    -0.624 OA
HETATM   21  O           1     -21.180 -10.685   0.503  0.00  0.00    -0.624 OA
BRANCH  19  22
HETATM   22  O           1     -21.618  -8.224   0.879  0.00  0.00    -0.300 OA
HETATM   23  H           1     -20.722  -8.122   1.151  0.00  0.00     0.223 HD
ENDBRANCH  19  22
ENDBRANCH  18  19
ENDBRANCH  15  18
ENDBRANCH  11  12
ENDBRANCH   1  11
BRANCH   1  24
HETATM   24  N           1     -20.007  -5.181  -5.782  0.00  0.00    -0.066 N 
HETATM   25  H           1     -19.952  -5.755  -4.910  0.00  0.00     0.275 HD
HETATM   26  H           1     -19.135  -5.314  -6.342  0.00  0.00     0.275 HD
HETATM   27  H           1     -20.108  -4.173  -5.529  0.00  0.00     0.275 HD
ENDBRANCH   1  24
TORSDOF 9
ENDMDL
MODEL 4
REMARK VINA RESULT:      -6.9      1.759      2.508
REMARK  9 active torsions:
REMARK  status: ('A' for Active; 'I' for Inactive)
REMARK    1  A    between atoms: C_2  and  C_3 
REMARK    2  A    between atoms: C_2  and  N_6 
REMARK       I    between atoms: N_6  and  C_7 
REMARK    3  A    between atoms: C_7  and  C_8 
REMARK    4  A    between atoms: C_8  and  C_9 
REMARK    5  A    between atoms: C_8  and  N_21 
REMARK    6  A    between atoms: C_9  and  C_10 
REMARK    7  A    between atoms: C_13  and  O_14 
REMARK    8  A    between atoms: O_14  and  P_15 
REMARK    9  A    between atoms: P_15  and  O_16 
ROOT
HETATM    1  C           1     -32.848  -4.675 -16.926  0.00  0.00     0.278 C 
ENDROOT
BRANCH   1   2
HETATM    2  C           1     -33.704  -4.616 -15.685  0.00  0.00     0.249 C 
HETATM    3  N           1     -33.180  -4.139 -14.514  0.00  0.00    -0.345 N 
HETATM    4  H           1     -32.218  -3.826 -14.480  0.00  0.00     0.163 HD
HETATM    5  O           1     -34.852  -4.990 -15.724  0.00  0.00    -0.271 OA
BRANCH   3   6
HETATM    6  C           1     -34.002  -4.083 -13.320  0.00  0.00     0.181 C 
HETATM    7  C           1     -33.182  -4.530 -12.118  0.00  0.00     0.043 C 
BRANCH   6   8
HETATM    8  C           1     -34.479  -2.667 -13.105  0.00  0.00     0.196 C 
HETATM    9  O           1     -34.308  -2.113 -11.997  0.00  0.00    -0.646 OA
HETATM   10  O           1     -35.044  -2.049 -14.033  0.00  0.00    -0.646 OA
ENDBRANCH   6   8
ENDBRANCH   3   6
ENDBRANCH   1   2
BRANCH   1  11
HETATM   11  C           1     -32.140  -6.021 -16.992  0.00  0.00     0.081 C 
BRANCH  11  12
HETATM   12  C           1     -30.662  -5.814 -16.876  0.00  0.00    -0.056 A 
HETATM   13  C           1     -29.858  -5.863 -18.014  0.00  0.00     0.010 A 
HETATM   14  C           1     -28.481  -5.669 -17.906  0.00  0.00     0.038 A 
HETATM   15  C           1     -27.908  -5.426 -16.658  0.00  0.00     0.081 A 
HETATM   16  C           1     -28.711  -5.377 -15.518  0.00  0.00     0.038 A 
HETATM   17  C           1     -30.088  -5.571 -15.628  0.00  0.00     0.010 A 
BRANCH  15  18
HETATM   18  O           1     -26.570  -5.238 -16.553  0.00  0.00    -0.247 OA
BRANCH  18  19
HETATM   19  P           1     -25.674  -6.460 -15.993  0.00  0.00     0.411 P 
HETATM   20  O           1     -26.561  -7.564 -15.565  0.00  0.00    -0.624 OA
HETATM   21  O           1     -24.769  -6.939 -17.063  0.00  0.00    -0.624 OA
BRANCH  19  22
HETATM   22  O           1     -24.798  -5.955 -14.734  0.00  0.00    -0.300 OA
HETATM   23  H           1     -25.430  -5.706 -14.082  0.00  0.00     0.223 HD
ENDBRANCH  19  22
ENDBRANCH  18  19
ENDBRANCH  15  18
ENDBRANCH  11  12
ENDBRANCH   1  11
BRANCH   1  24
HETATM   24  N           1     -31.829  -3.576 -16.883  0.00  0.00    -0.066 N 
HETATM   25  H           1     -30.923  -3.924 -17.270  0.00  0.00     0.275 HD
HETATM   26  H           1     -32.164  -2.768 -17.454  0.00  0.00     0.275 HD
HETATM   27  H           1     -31.689  -3.269 -15.894  0.00  0.00     0.275 HD
ENDBRANCH   1  24
TORSDOF 9
ENDMDL
MODEL 5
REMARK VINA RESULT:      -6.9     13.485     14.784
REMARK  9 active torsions:
REMARK  status: ('A' for Active; 'I' for Inactive)
REMARK    1  A    between atoms: C_2  and  C_3 
REMARK    2  A    between atoms: C_2  and  N_6 
REMARK       I    between atoms: N_6  and  C_7 
REMARK    3  A    between atoms: C_7  and  C_8 
REMARK    4  A    between atoms: C_8  and  C_9 
REMARK    5  A    between atoms: C_8  and  N_21 
REMARK    6  A    between atoms: C_9  and  C_10 
REMARK    7  A    between atoms: C_13  and  O_14 
REMARK    8  A    between atoms: O_14  and  P_15 
REMARK    9  A    between atoms: P_15  and  O_16 
ROOT
HETATM    1  C           1     -21.397  -6.483  -4.896  0.00  0.00     0.278 C 
ENDROOT
BRANCH   1   2
HETATM    2  C           1     -20.781  -7.852  -4.748  0.00  0.00     0.249 C 
HETATM    3  N           1     -20.263  -8.244  -3.543  0.00  0.00    -0.345 N 
HETATM    4  H           1     -20.293  -7.614  -2.750  0.00  0.00     0.163 HD
HETATM    5  O           1     -20.745  -8.604  -5.693  0.00  0.00    -0.271 OA
BRANCH   3   6
HETATM    6  C           1     -19.672  -9.560  -3.400  0.00  0.00     0.181 C 
HETATM    7  C           1     -18.170  -9.421  -3.187  0.00  0.00     0.043 C 
BRANCH   6   8
HETATM    8  C           1     -20.284 -10.260  -2.212  0.00  0.00     0.196 C 
HETATM    9  O           1     -19.626 -11.120  -1.586  0.00  0.00    -0.646 OA
HETATM   10  O           1     -21.449  -9.982  -1.854  0.00  0.00    -0.646 OA
ENDBRANCH   6   8
ENDBRANCH   3   6
ENDBRANCH   1   2
BRANCH   1  11
HETATM   11  C           1     -20.382  -5.535  -5.522  0.00  0.00     0.081 C 
BRANCH  11  12
HETATM   12  C           1     -20.921  -5.012  -6.818  0.00  0.00    -0.056 A 
HETATM   13  C           1     -22.215  -4.497  -6.879  0.00  0.00     0.010 A 
HETATM   14  C           1     -22.717  -4.010  -8.086  0.00  0.00     0.038 A 
HETATM   15  C           1     -21.922  -4.038  -9.232  0.00  0.00     0.081 A 
HETATM   16  C           1     -20.627  -4.553  -9.172  0.00  0.00     0.038 A 
HETATM   17  C           1     -20.126  -5.040  -7.964  0.00  0.00     0.010 A 
BRANCH  15  18
HETATM   18  O           1     -22.409  -3.565 -10.405  0.00  0.00    -0.247 OA
BRANCH  18  19
HETATM   19  P           1     -23.761  -4.230 -10.988  0.00  0.00     0.411 P 
HETATM   20  O           1     -24.872  -3.259 -10.882  0.00  0.00    -0.624 OA
HETATM   21  O           1     -23.558  -4.597 -12.408  0.00  0.00    -0.624 OA
BRANCH  19  22
HETATM   22  O           1     -24.121  -5.555 -10.137  0.00  0.00    -0.300 OA
HETATM   23  H           1     -23.815  -6.273 -10.663  0.00  0.00     0.223 HD
ENDBRANCH  19  22
ENDBRANCH  18  19
ENDBRANCH  15  18
ENDBRANCH  11  12
ENDBRANCH   1  11
BRANCH   1  24
HETATM   24  N           1     -21.796  -5.966  -3.546  0.00  0.00    -0.066 N 
HETATM   25  H           1     -22.333  -6.703  -3.035  0.00  0.00     0.275 HD
HETATM   26  H           1     -20.940  -5.718  -3.001  0.00  0.00     0.275 HD
HETATM   27  H           1     -22.394  -5.117  -3.661  0.00  0.00     0.275 HD
ENDBRANCH   1  24
TORSDOF 9
ENDMDL
MODEL 6
REMARK VINA RESULT:      -6.8     12.994     14.551
REMARK  9 active torsions:
REMARK  status: ('A' for Active; 'I' for Inactive)
REMARK    1  A    between atoms: C_2  and  C_3 
REMARK    2  A    between atoms: C_2  and  N_6 
REMARK       I    between atoms: N_6  and  C_7 
REMARK    3  A    between atoms: C_7  and  C_8 
REMARK    4  A    between atoms: C_8  and  C_9 
REMARK    5  A    between atoms: C_8  and  N_21 
REMARK    6  A    between atoms: C_9  and  C_10 
REMARK    7  A    between atoms: C_13  and  O_14 
REMARK    8  A    between atoms: O_14  and  P_15 
REMARK    9  A    between atoms: P_15  and  O_16 
ROOT
HETATM    1  C           1     -21.581  -6.711  -4.784  0.00  0.00     0.278 C 
ENDROOT
BRANCH   1   2
HETATM    2  C           1     -21.214  -8.154  -4.540  0.00  0.00     0.249 C 
HETATM    3  N           1     -20.565  -8.869  -5.510  0.00  0.00    -0.345 N 
HETATM    4  H           1     -20.331  -8.430  -6.392  0.00  0.00     0.163 HD
HETATM    5  O           1     -21.493  -8.679  -3.488  0.00  0.00    -0.271 OA
BRANCH   3   6
HETATM    6  C           1     -20.213 -10.256  -5.276  0.00  0.00     0.181 C 
HETATM    7  C           1     -21.163 -11.159  -6.051  0.00  0.00     0.043 C 
BRANCH   6   8
HETATM    8  C           1     -18.798 -10.500  -5.740  0.00  0.00     0.196 C 
HETATM    9  O           1     -18.270 -11.622  -5.572  0.00  0.00    -0.646 OA
HETATM   10  O           1     -18.153  -9.582  -6.291  0.00  0.00    -0.646 OA
ENDBRANCH   6   8
ENDBRANCH   3   6
ENDBRANCH   1   2
BRANCH   1  11
HETATM   11  C           1     -20.450  -6.018  -5.534  0.00  0.00     0.081 C 
BRANCH  11  12
HETATM   12  C           1     -20.996  -5.359  -6.762  0.00  0.00    -0.056 A 
HETATM   13  C           1     -22.259  -4.770  -6.736  0.00  0.00     0.010 A 
HETATM   14  C           1     -22.767  -4.155  -7.880  0.00  0.00     0.038 A 
HETATM   15  C           1     -22.010  -4.129  -9.051  0.00  0.00     0.081 A 
HETATM   16  C           1     -20.746  -4.717  -9.078  0.00  0.00     0.038 A 
HETATM   17  C           1     -20.238  -5.332  -7.933  0.00  0.00     0.010 A 
BRANCH  15  18
HETATM   18  O           1     -22.504  -3.531 -10.163  0.00  0.00    -0.247 OA
BRANCH  18  19
HETATM   19  P           1     -23.800  -4.191 -10.866  0.00  0.00     0.411 P 
HETATM   20  O           1     -24.924  -3.230 -10.825  0.00  0.00    -0.624 OA
HETATM   21  O           1     -23.483  -4.522 -12.274  0.00  0.00    -0.624 OA
BRANCH  19  22
HETATM   22  O           1     -24.214  -5.538 -10.077  0.00  0.00    -0.300 OA
HETATM   23  H           1     -23.862  -6.241 -10.595  0.00  0.00     0.223 HD
ENDBRANCH  19  22
ENDBRANCH  18  19
ENDBRANCH  15  18
ENDBRANCH  11  12
ENDBRANCH   1  11
BRANCH   1  24
HETATM   24  N           1     -21.804  -6.023  -3.471  0.00  0.00    -0.066 N 
HETATM   25  H           1     -22.435  -6.605  -2.874  0.00  0.00     0.275 HD
HETATM   26  H           1     -20.887  -5.894  -2.985  0.00  0.00     0.275 HD
HETATM   27  H           1     -22.245  -5.090  -3.636  0.00  0.00     0.275 HD
ENDBRANCH   1  24
TORSDOF 9
ENDMDL
MODEL 7
REMARK VINA RESULT:      -6.8     13.184     14.437
REMARK  9 active torsions:
REMARK  status: ('A' for Active; 'I' for Inactive)
REMARK    1  A    between atoms: C_2  and  C_3 
REMARK    2  A    between atoms: C_2  and  N_6 
REMARK       I    between atoms: N_6  and  C_7 
REMARK    3  A    between atoms: C_7  and  C_8 
REMARK    4  A    between atoms: C_8  and  C_9 
REMARK    5  A    between atoms: C_8  and  N_21 
REMARK    6  A    between atoms: C_9  and  C_10 
REMARK    7  A    between atoms: C_13  and  O_14 
REMARK    8  A    between atoms: O_14  and  P_15 
REMARK    9  A    between atoms: P_15  and  O_16 
ROOT
HETATM    1  C           1     -20.345  -7.245  -5.554  0.00  0.00     0.278 C 
ENDROOT
BRANCH   1   2
HETATM    2  C           1     -20.270  -7.840  -4.170  0.00  0.00     0.249 C 
HETATM    3  N           1     -21.337  -7.733  -3.319  0.00  0.00    -0.345 N 
HETATM    4  H           1     -22.177  -7.254  -3.619  0.00  0.00     0.163 HD
HETATM    5  O           1     -19.267  -8.411  -3.811  0.00  0.00    -0.271 OA
BRANCH   3   6
HETATM    6  C           1     -21.265  -8.305  -1.988  0.00  0.00     0.181 C 
HETATM    7  C           1     -21.963  -7.380  -1.000  0.00  0.00     0.043 C 
BRANCH   6   8
HETATM    8  C           1     -21.945  -9.652  -1.982  0.00  0.00     0.196 C 
HETATM    9  O           1     -22.175 -10.230  -0.898  0.00  0.00    -0.646 OA
HETATM   10  O           1     -22.277 -10.189  -3.061  0.00  0.00    -0.646 OA
ENDBRANCH   6   8
ENDBRANCH   3   6
ENDBRANCH   1   2
BRANCH   1  11
HETATM   11  C           1     -20.495  -5.733  -5.450  0.00  0.00     0.081 C 
BRANCH  11  12
HETATM   12  C           1     -20.983  -5.188  -6.757  0.00  0.00    -0.056 A 
HETATM   13  C           1     -22.252  -4.619  -6.845  0.00  0.00     0.010 A 
HETATM   14  C           1     -22.707  -4.111  -8.062  0.00  0.00     0.038 A 
HETATM   15  C           1     -21.891  -4.173  -9.191  0.00  0.00     0.081 A 
HETATM   16  C           1     -20.620  -4.742  -9.103  0.00  0.00     0.038 A 
HETATM   17  C           1     -20.166  -5.250  -7.886  0.00  0.00     0.010 A 
BRANCH  15  18
HETATM   18  O           1     -22.333  -3.679 -10.373  0.00  0.00    -0.247 OA
BRANCH  18  19
HETATM   19  P           1     -23.671  -4.321 -11.010  0.00  0.00     0.411 P 
HETATM   20  O           1     -24.004  -5.574 -10.296  0.00  0.00    -0.624 OA
HETATM   21  O           1     -24.791  -3.362 -10.874  0.00  0.00    -0.624 OA
BRANCH  19  22
HETATM   22  O           1     -23.425  -4.642 -12.574  0.00  0.00    -0.300 OA
HETATM   23  H           1     -23.717  -5.530 -12.689  0.00  0.00     0.223 HD
ENDBRANCH  19  22
ENDBRANCH  18  19
ENDBRANCH  15  18
ENDBRANCH  11  12
ENDBRANCH   1  11
BRANCH   1  24
HETATM   24  N           1     -21.527  -7.815  -6.279  0.00  0.00    -0.066 N 
HETATM   25  H           1     -22.406  -7.542  -5.784  0.00  0.00     0.275 HD
HETATM   26  H           1     -21.548  -7.445  -7.256  0.00  0.00     0.275 HD
HETATM   27  H           1     -21.452  -8.857  -6.303  0.00  0.00     0.275 HD
ENDBRANCH   1  24
TORSDOF 9
ENDMDL
MODEL 8
REMARK VINA RESULT:      -6.5      2.559      3.804
REMARK  9 active torsions:
REMARK  status: ('A' for Active; 'I' for Inactive)
REMARK    1  A    between atoms: C_2  and  C_3 
REMARK    2  A    between atoms: C_2  and  N_6 
REMARK       I    between atoms: N_6  and  C_7 
REMARK    3  A    between atoms: C_7  and  C_8 
REMARK    4  A    between atoms: C_8  and  C_9 
REMARK    5  A    between atoms: C_8  and  N_21 
REMARK    6  A    between atoms: C_9  and  C_10 
REMARK    7  A    between atoms: C_13  and  O_14 
REMARK    8  A    between atoms: O_14  and  P_15 
REMARK    9  A    between atoms: P_15  and  O_16 
ROOT
HETATM    1  C           1     -30.957  -4.021 -17.463  0.00  0.00     0.278 C 
ENDROOT
BRANCH   1   2
HETATM    2  C           1     -32.387  -3.806 -17.030  0.00  0.00     0.249 C 
HETATM    3  N           1     -32.909  -4.544 -16.003  0.00  0.00    -0.345 N 
HETATM    4  H           1     -32.337  -5.235 -15.533  0.00  0.00     0.163 HD
HETATM    5  O           1     -33.071  -2.983 -17.590  0.00  0.00    -0.271 OA
BRANCH   3   6
HETATM    6  C           1     -34.284  -4.339 -15.587  0.00  0.00     0.181 C 
HETATM    7  C           1     -34.990  -5.684 -15.486  0.00  0.00     0.043 C 
BRANCH   6   8
HETATM    8  C           1     -34.305  -3.659 -14.240  0.00  0.00     0.196 C 
HETATM    9  O           1     -33.926  -4.278 -13.221  0.00  0.00    -0.646 OA
HETATM   10  O           1     -34.700  -2.477 -14.142  0.00  0.00    -0.646 OA
ENDBRANCH   6   8
ENDBRANCH   3   6
ENDBRANCH   1   2
BRANCH   1  11
HETATM   11  C           1     -30.286  -5.017 -16.526  0.00  0.00     0.081 C 
BRANCH  11  12
HETATM   12  C           1     -28.974  -5.442 -17.106  0.00  0.00    -0.056 A 
HETATM   13  C           1     -27.872  -5.633 -16.274  0.00  0.00     0.010 A 
HETATM   14  C           1     -26.648  -6.030 -16.815  0.00  0.00     0.038 A 
HETATM   15  C           1     -26.528  -6.236 -18.189  0.00  0.00     0.081 A 
HETATM   16  C           1     -27.631  -6.046 -19.022  0.00  0.00     0.038 A 
HETATM   17  C           1     -28.854  -5.649 -18.481  0.00  0.00     0.010 A 
BRANCH  15  18
HETATM   18  O           1     -25.340  -6.622 -18.715  0.00  0.00    -0.247 OA
BRANCH  18  19
HETATM   19  P           1     -25.317  -7.120 -20.251  0.00  0.00     0.411 P 
HETATM   20  O           1     -25.339  -5.945 -21.150  0.00  0.00    -0.624 OA
HETATM   21  O           1     -24.087  -7.907 -20.496  0.00  0.00    -0.624 OA
BRANCH  19  22
HETATM   22  O           1     -26.612  -8.042 -20.539  0.00  0.00    -0.300 OA
HETATM   23  H           1     -27.222  -7.474 -20.976  0.00  0.00     0.223 HD
ENDBRANCH  19  22
ENDBRANCH  18  19
ENDBRANCH  15  18
ENDBRANCH  11  12
ENDBRANCH   1  11
BRANCH   1  24
HETATM   24  N           1     -30.220  -2.716 -17.415  0.00  0.00    -0.066 N 
HETATM   25  H           1     -30.718  -2.056 -16.775  0.00  0.00     0.275 HD
HETATM   26  H           1     -29.250  -2.877 -17.062  0.00  0.00     0.275 HD
HETATM   27  H           1     -30.178  -2.304 -18.374  0.00  0.00     0.275 HD
ENDBRANCH   1  24
TORSDOF 9
ENDMDL
MODEL 9
REMARK VINA RESULT:      -6.2     14.409     16.334
REMARK  9 active torsions:
REMARK  status: ('A' for Active; 'I' for Inactive)
REMARK    1  A    between atoms: C_2  and  C_3 
REMARK    2  A    between atoms: C_2  and  N_6 
REMARK       I    between atoms: N_6  and  C_7 
REMARK    3  A    between atoms: C_7  and  C_8 
REMARK    4  A    between atoms: C_8  and  C_9 
REMARK    5  A    between atoms: C_8  and  N_21 
REMARK    6  A    between atoms: C_9  and  C_10 
REMARK    7  A    between atoms: C_13  and  O_14 
REMARK    8  A    between atoms: O_14  and  P_15 
REMARK    9  A    between atoms: P_15  and  O_16 
ROOT
HETATM    1  C           1     -21.249  -6.171  -5.633  0.00  0.00     0.278 C 
ENDROOT
BRANCH   1   2
HETATM    2  C           1     -21.287  -5.081  -6.676  0.00  0.00     0.249 C 
HETATM    3  N           1     -21.598  -5.386  -7.974  0.00  0.00    -0.345 N 
HETATM    4  H           1     -21.801  -6.342  -8.235  0.00  0.00     0.163 HD
HETATM    5  O           1     -21.044  -3.939  -6.366  0.00  0.00    -0.271 OA
BRANCH   3   6
HETATM    6  C           1     -21.634  -4.338  -8.976  0.00  0.00     0.181 C 
HETATM    7  C           1     -20.440  -4.487  -9.910  0.00  0.00     0.043 C 
BRANCH   6   8
HETATM    8  C           1     -22.911  -4.449  -9.773  0.00  0.00     0.196 C 
HETATM    9  O           1     -22.865  -4.725 -10.992  0.00  0.00    -0.646 OA
HETATM   10  O           1     -24.014  -4.266  -9.215  0.00  0.00    -0.646 OA
ENDBRANCH   6   8
ENDBRANCH   3   6
ENDBRANCH   1   2
BRANCH   1  11
HETATM   11  C           1     -20.846  -5.576  -4.290  0.00  0.00     0.081 C 
BRANCH  11  12
HETATM   12  C           1     -21.078  -6.584  -3.208  0.00  0.00    -0.056 A 
HETATM   13  C           1     -20.359  -7.777  -3.199  0.00  0.00     0.010 A 
HETATM   14  C           1     -20.575  -8.716  -2.190  0.00  0.00     0.038 A 
HETATM   15  C           1     -21.512  -8.459  -1.189  0.00  0.00     0.081 A 
HETATM   16  C           1     -22.231  -7.264  -1.196  0.00  0.00     0.038 A 
HETATM   17  C           1     -22.014  -6.326  -2.206  0.00  0.00     0.010 A 
BRANCH  15  18
HETATM   18  O           1     -21.722  -9.371  -0.208  0.00  0.00    -0.247 OA
BRANCH  18  19
HETATM   19  P           1     -22.866 -10.486  -0.443  0.00  0.00     0.411 P 
HETATM   20  O           1     -22.464 -11.750   0.213  0.00  0.00    -0.624 OA
HETATM   21  O           1     -24.143 -10.012   0.137  0.00  0.00    -0.624 OA
BRANCH  19  22
HETATM   22  O           1     -23.056 -10.739  -2.027  0.00  0.00    -0.300 OA
HETATM   23  H           1     -22.182 -10.806  -2.370  0.00  0.00     0.223 HD
ENDBRANCH  19  22
ENDBRANCH  18  19
ENDBRANCH  15  18
ENDBRANCH  11  12
ENDBRANCH   1  11
BRANCH   1  24
HETATM   24  N           1     -20.251  -7.214  -6.037  0.00  0.00    -0.066 N 
HETATM   25  H           1     -20.745  -8.006  -6.509  0.00  0.00     0.275 HD
HETATM   26  H           1     -19.557  -6.795  -6.696  0.00  0.00     0.275 HD
HETATM   27  H           1     -19.755  -7.569  -5.189  0.00  0.00     0.275 HD
ENDBRANCH   1  24
TORSDOF 9
ENDMDL
