MODEL 1
REMARK VINA RESULT:      -6.3      0.000      0.000
REMARK  6 active torsions:
REMARK  status: ('A' for Active; 'I' for Inactive)
REMARK    1  A    between atoms: C_2  and  C_16 
REMARK    2  A    between atoms: N_5  and  C_16 
REMARK       I    between atoms: N_5  and  C_6 
REMARK    3  A    between atoms: C_6  and  C_7 
REMARK    4  A    between atoms: C_7  and  C_8 
REMARK    5  A    between atoms: C_7  and  N_12 
REMARK    6  A    between atoms: C_8  and  C_9 
REMARK       I    between atoms: C_9  and  N_10 
ROOT
HETATM    1  C           1     -34.299  -2.633 -11.792  0.00  0.00     0.283 C 
ENDROOT
BRANCH   1   2
HETATM    2  C           1     -35.230  -1.786 -12.623  0.00  0.00     0.249 C 
HETATM    3  N           1     -34.795  -1.248 -13.805  0.00  0.00    -0.345 N 
HETATM    4  H           1     -33.848  -1.417 -14.119  0.00  0.00     0.163 HD
HETATM    5  O           1     -36.361  -1.584 -12.249  0.00  0.00    -0.271 OA
BRANCH   3   6
HETATM    6  C           1     -35.690  -0.434 -14.605  0.00  0.00     0.181 C 
HETATM    7  C           1     -35.186   1.003 -14.628  0.00  0.00     0.043 C 
BRANCH   6   8
HETATM    8  C           1     -35.736  -0.975 -16.013  0.00  0.00     0.196 C 
HETATM    9  O           1     -36.432  -0.404 -16.880  0.00  0.00    -0.646 OA
HETATM   10  O           1     -35.076  -1.994 -16.313  0.00  0.00    -0.646 OA
ENDBRANCH   6   8
ENDBRANCH   3   6
ENDBRANCH   1   2
BRANCH   1  11
HETATM   11  C           1     -35.063  -3.822 -11.225  0.00  0.00     0.145 C 
BRANCH  11  12
HETATM   12  C           1     -34.673  -5.074 -11.972  0.00  0.00     0.217 C 
HETATM   13  N           1     -33.747  -5.929 -11.438  0.00  0.00    -0.370 N 
HETATM   14  H           1     -33.485  -6.768 -11.940  0.00  0.00     0.159 HD
HETATM   15  H           1     -33.323  -5.722 -10.544  0.00  0.00     0.159 HD
HETATM   16  O           1     -35.179  -5.322 -13.041  0.00  0.00    -0.274 OA
ENDBRANCH  11  12
ENDBRANCH   1  11
BRANCH   1  17
HETATM   17  N           1     -33.750  -1.810 -10.664  0.00  0.00    -0.066 N 
HETATM   18  H           1     -34.512  -1.601  -9.980  0.00  0.00     0.275 HD
HETATM   19  H           1     -32.987  -2.340 -10.185  0.00  0.00     0.275 HD
HETATM   20  H           1     -33.367  -0.913 -11.041  0.00  0.00     0.275 HD
ENDBRANCH   1  17
TORSDOF 6
ENDMDL
MODEL 2
REMARK VINA RESULT:      -6.3     13.368     15.081
REMARK  6 active torsions:
REMARK  status: ('A' for Active; 'I' for Inactive)
REMARK    1  A    between atoms: C_2  and  C_16 
REMARK    2  A    between atoms: N_5  and  C_16 
REMARK       I    between atoms: N_5  and  C_6 
REMARK    3  A    between atoms: C_6  and  C_7 
REMARK    4  A    between atoms: C_7  and  C_8 
REMARK    5  A    between atoms: C_7  and  N_12 
REMARK    6  A    between atoms: C_8  and  C_9 
REMARK       I    between atoms: C_9  and  N_10 
ROOT
HETATM    1  C           1     -21.874  -3.570 -10.440  0.00  0.00     0.283 C 
ENDROOT
BRANCH   1   2
HETATM    2  C           1     -20.968  -4.431  -9.596  0.00  0.00     0.249 C 
HETATM    3  N           1     -21.289  -4.689  -8.290  0.00  0.00    -0.345 N 
HETATM    4  H           1     -22.135  -4.302  -7.891  0.00  0.00     0.163 HD
HETATM    5  O           1     -19.959  -4.895 -10.071  0.00  0.00    -0.271 OA
BRANCH   3   6
HETATM    6  C           1     -20.418  -5.518  -7.478  0.00  0.00     0.181 C 
HETATM    7  C           1     -19.377  -4.641  -6.795  0.00  0.00     0.043 C 
BRANCH   6   8
HETATM    8  C           1     -21.237  -6.235  -6.434  0.00  0.00     0.196 C 
HETATM    9  O           1     -21.113  -7.469  -6.280  0.00  0.00    -0.646 OA
HETATM   10  O           1     -22.041  -5.594  -5.722  0.00  0.00    -0.646 OA
ENDBRANCH   6   8
ENDBRANCH   3   6
ENDBRANCH   1   2
BRANCH   1  11
HETATM   11  C           1     -23.141  -4.345 -10.777  0.00  0.00     0.145 C 
BRANCH  11  12
HETATM   12  C           1     -24.339  -3.626 -10.207  0.00  0.00     0.217 C 
HETATM   13  N           1     -24.477  -3.492  -8.852  0.00  0.00    -0.370 N 
HETATM   14  H           1     -25.281  -3.010  -8.470  0.00  0.00     0.159 HD
HETATM   15  H           1     -23.776  -3.877  -8.231  0.00  0.00     0.159 HD
HETATM   16  O           1     -25.177  -3.167 -10.947  0.00  0.00    -0.274 OA
ENDBRANCH  11  12
ENDBRANCH   1  11
BRANCH   1  17
HETATM   17  N           1     -21.167  -3.194 -11.708  0.00  0.00    -0.066 N 
HETATM   18  H           1     -21.278  -2.169 -11.880  0.00  0.00     0.275 HD
HETATM   19  H           1     -20.152  -3.425 -11.622  0.00  0.00     0.275 HD
HETATM   20  H           1     -21.579  -3.727 -12.508  0.00  0.00     0.275 HD
ENDBRANCH   1  17
TORSDOF 6
ENDMDL
MODEL 3
REMARK VINA RESULT:      -6.2      2.056      5.328
REMARK  6 active torsions:
REMARK  status: ('A' for Active; 'I' for Inactive)
REMARK    1  A    between atoms: C_2  and  C_16 
REMARK    2  A    between atoms: N_5  and  C_16 
REMARK       I    between atoms: N_5  and  C_6 
REMARK    3  A    between atoms: C_6  and  C_7 
REMARK    4  A    between atoms: C_7  and  C_8 
REMARK    5  A    between atoms: C_7  and  N_12 
REMARK    6  A    between atoms: C_8  and  C_9 
REMARK       I    between atoms: C_9  and  N_10 
ROOT
HETATM    1  C           1     -36.304   0.209 -13.622  0.00  0.00     0.283 C 
ENDROOT
BRANCH   1   2
HETATM    2  C           1     -35.449  -1.024 -13.466  0.00  0.00     0.249 C 
HETATM    3  N           1     -35.095  -1.457 -12.216  0.00  0.00    -0.345 N 
HETATM    4  H           1     -35.405  -0.949 -11.398  0.00  0.00     0.163 HD
HETATM    5  O           1     -35.079  -1.632 -14.442  0.00  0.00    -0.271 OA
BRANCH   3   6
HETATM    6  C           1     -34.273  -2.643 -12.065  0.00  0.00     0.181 C 
HETATM    7  C           1     -33.317  -2.453 -10.895  0.00  0.00     0.043 C 
BRANCH   6   8
HETATM    8  C           1     -35.159  -3.837 -11.804  0.00  0.00     0.196 C 
HETATM    9  O           1     -35.941  -3.833 -10.829  0.00  0.00    -0.646 OA
HETATM   10  O           1     -35.110  -4.829 -12.563  0.00  0.00    -0.646 OA
ENDBRANCH   6   8
ENDBRANCH   3   6
ENDBRANCH   1   2
BRANCH   1  11
HETATM   11  C           1     -37.654  -0.180 -14.212  0.00  0.00     0.145 C 
BRANCH  11  12
HETATM   12  C           1     -37.671   0.141 -15.686  0.00  0.00     0.217 C 
HETATM   13  N           1     -37.246  -0.791 -16.594  0.00  0.00    -0.370 N 
HETATM   14  H           1     -37.258  -0.576 -17.583  0.00  0.00     0.159 HD
HETATM   15  H           1     -36.919  -1.694 -16.277  0.00  0.00     0.159 HD
HETATM   16  O           1     -38.062   1.219 -16.066  0.00  0.00    -0.274 OA
ENDBRANCH  11  12
ENDBRANCH   1  11
BRANCH   1  17
HETATM   17  N           1     -35.619   1.178 -14.540  0.00  0.00    -0.066 N 
HETATM   18  H           1     -36.185   1.294 -15.411  0.00  0.00     0.275 HD
HETATM   19  H           1     -35.522   2.102 -14.062  0.00  0.00     0.275 HD
HETATM   20  H           1     -34.672   0.812 -14.788  0.00  0.00     0.275 HD
ENDBRANCH   1  17
TORSDOF 6
ENDMDL
MODEL 4
REMARK VINA RESULT:      -6.0      7.965      8.799
REMARK  6 active torsions:
REMARK  status: ('A' for Active; 'I' for Inactive)
REMARK    1  A    between atoms: C_2  and  C_16 
REMARK    2  A    between atoms: N_5  and  C_16 
REMARK       I    between atoms: N_5  and  C_6 
REMARK    3  A    between atoms: C_6  and  C_7 
REMARK    4  A    between atoms: C_7  and  C_8 
REMARK    5  A    between atoms: C_7  and  N_12 
REMARK    6  A    between atoms: C_8  and  C_9 
REMARK       I    between atoms: C_9  and  N_10 
ROOT
HETATM    1  C           1     -27.462  -6.270 -16.185  0.00  0.00     0.283 C 
ENDROOT
BRANCH   1   2
HETATM    2  C           1     -28.587  -5.925 -17.131  0.00  0.00     0.249 C 
HETATM    3  N           1     -29.708  -5.295 -16.660  0.00  0.00    -0.345 N 
HETATM    4  H           1     -29.782  -5.062 -15.678  0.00  0.00     0.163 HD
HETATM    5  O           1     -28.498  -6.203 -18.303  0.00  0.00    -0.271 OA
BRANCH   3   6
HETATM    6  C           1     -30.788  -4.963 -17.568  0.00  0.00     0.181 C 
HETATM    7  C           1     -32.049  -5.710 -17.152  0.00  0.00     0.043 C 
BRANCH   6   8
HETATM    8  C           1     -31.044  -3.477 -17.522  0.00  0.00     0.196 C 
HETATM    9  O           1     -32.198  -3.034 -17.713  0.00  0.00    -0.646 OA
HETATM   10  O           1     -30.103  -2.687 -17.291  0.00  0.00    -0.646 OA
ENDBRANCH   6   8
ENDBRANCH   3   6
ENDBRANCH   1   2
BRANCH   1  11
HETATM   11  C           1     -26.149  -6.321 -16.955  0.00  0.00     0.145 C 
BRANCH  11  12
HETATM   12  C           1     -25.107  -7.034 -16.129  0.00  0.00     0.217 C 
HETATM   13  N           1     -24.170  -7.822 -16.740  0.00  0.00    -0.370 N 
HETATM   14  H           1     -23.472  -8.300 -16.185  0.00  0.00     0.159 HD
HETATM   15  H           1     -24.176  -7.928 -17.746  0.00  0.00     0.159 HD
HETATM   16  O           1     -25.100  -6.908 -14.927  0.00  0.00    -0.274 OA
ENDBRANCH  11  12
ENDBRANCH   1  11
BRANCH   1  17
HETATM   17  N           1     -27.728  -7.607 -15.561  0.00  0.00    -0.066 N 
HETATM   18  H           1     -27.220  -8.349 -16.095  0.00  0.00     0.275 HD
HETATM   19  H           1     -27.396  -7.601 -14.570  0.00  0.00     0.275 HD
HETATM   20  H           1     -28.754  -7.805 -15.584  0.00  0.00     0.275 HD
ENDBRANCH   1  17
TORSDOF 6
ENDMDL
MODEL 5
REMARK VINA RESULT:      -6.0      8.696      9.989
REMARK  6 active torsions:
REMARK  status: ('A' for Active; 'I' for Inactive)
REMARK    1  A    between atoms: C_2  and  C_16 
REMARK    2  A    between atoms: N_5  and  C_16 
REMARK       I    between atoms: N_5  and  C_6 
REMARK    3  A    between atoms: C_6  and  C_7 
REMARK    4  A    between atoms: C_7  and  C_8 
REMARK    5  A    between atoms: C_7  and  N_12 
REMARK    6  A    between atoms: C_8  and  C_9 
REMARK       I    between atoms: C_9  and  N_10 
ROOT
HETATM    1  C           1     -29.581  -5.737 -16.994  0.00  0.00     0.283 C 
ENDROOT
BRANCH   1   2
HETATM    2  C           1     -28.105  -5.563 -16.736  0.00  0.00     0.249 C 
HETATM    3  N           1     -27.207  -6.444 -17.275  0.00  0.00    -0.345 N 
HETATM    4  H           1     -27.534  -7.214 -17.846  0.00  0.00     0.163 HD
HETATM    5  O           1     -27.715  -4.644 -16.055  0.00  0.00    -0.271 OA
BRANCH   3   6
HETATM    6  C           1     -25.788  -6.277 -17.028  0.00  0.00     0.181 C 
HETATM    7  C           1     -25.375  -7.134 -15.839  0.00  0.00     0.043 C 
BRANCH   6   8
HETATM    8  C           1     -25.012  -6.702 -18.250  0.00  0.00     0.196 C 
HETATM    9  O           1     -23.809  -7.026 -18.145  0.00  0.00    -0.646 OA
HETATM   10  O           1     -25.572  -6.731 -19.367  0.00  0.00    -0.646 OA
ENDBRANCH   6   8
ENDBRANCH   3   6
ENDBRANCH   1   2
BRANCH   1  11
HETATM   11  C           1     -30.000  -4.857 -18.165  0.00  0.00     0.145 C 
BRANCH  11  12
HETATM   12  C           1     -30.449  -3.512 -17.649  0.00  0.00     0.217 C 
HETATM   13  N           1     -29.539  -2.501 -17.492  0.00  0.00    -0.370 N 
HETATM   14  H           1     -29.840  -1.599 -17.145  0.00  0.00     0.159 HD
HETATM   15  H           1     -28.565  -2.656 -17.719  0.00  0.00     0.159 HD
HETATM   16  O           1     -31.611  -3.326 -17.378  0.00  0.00    -0.274 OA
ENDBRANCH  11  12
ENDBRANCH   1  11
BRANCH   1  17
HETATM   17  N           1     -30.352  -5.340 -15.770  0.00  0.00    -0.066 N 
HETATM   18  H           1     -30.856  -6.172 -15.388  0.00  0.00     0.275 HD
HETATM   19  H           1     -29.693  -4.969 -15.048  0.00  0.00     0.275 HD
HETATM   20  H           1     -31.046  -4.599 -16.021  0.00  0.00     0.275 HD
ENDBRANCH   1  17
TORSDOF 6
ENDMDL
MODEL 6
REMARK VINA RESULT:      -5.9      9.831     10.740
REMARK  6 active torsions:
REMARK  status: ('A' for Active; 'I' for Inactive)
REMARK    1  A    between atoms: C_2  and  C_16 
REMARK    2  A    between atoms: N_5  and  C_16 
REMARK       I    between atoms: N_5  and  C_6 
REMARK    3  A    between atoms: C_6  and  C_7 
REMARK    4  A    between atoms: C_7  and  C_8 
REMARK    5  A    between atoms: C_7  and  N_12 
REMARK    6  A    between atoms: C_8  and  C_9 
REMARK       I    between atoms: C_9  and  N_10 
ROOT
HETATM    1  C           1     -29.392  -6.668 -17.537  0.00  0.00     0.283 C 
ENDROOT
BRANCH   1   2
HETATM    2  C           1     -28.443  -6.316 -18.655  0.00  0.00     0.249 C 
HETATM    3  N           1     -27.657  -7.285 -19.218  0.00  0.00    -0.345 N 
HETATM    4  H           1     -27.712  -8.239 -18.883  0.00  0.00     0.163 HD
HETATM    5  O           1     -28.377  -5.178 -19.056  0.00  0.00    -0.271 OA
BRANCH   3   6
HETATM    6  C           1     -26.745  -6.947 -20.294  0.00  0.00     0.181 C 
HETATM    7  C           1     -25.379  -6.607 -19.713  0.00  0.00     0.043 C 
BRANCH   6   8
HETATM    8  C           1     -26.615  -8.122 -21.231  0.00  0.00     0.196 C 
HETATM    9  O           1     -27.610  -8.838 -21.477  0.00  0.00    -0.646 OA
HETATM   10  O           1     -25.513  -8.380 -21.761  0.00  0.00    -0.646 OA
ENDBRANCH   6   8
ENDBRANCH   3   6
ENDBRANCH   1   2
BRANCH   1  11
HETATM   11  C           1     -28.933  -5.995 -16.250  0.00  0.00     0.145 C 
BRANCH  11  12
HETATM   12  C           1     -27.763  -6.754 -15.672  0.00  0.00     0.217 C 
HETATM   13  N           1     -26.484  -6.373 -15.974  0.00  0.00    -0.370 N 
HETATM   14  H           1     -25.700  -6.883 -15.586  0.00  0.00     0.159 HD
HETATM   15  H           1     -26.321  -5.583 -16.584  0.00  0.00     0.159 HD
HETATM   16  O           1     -27.957  -7.698 -14.943  0.00  0.00    -0.274 OA
ENDBRANCH  11  12
ENDBRANCH   1  11
BRANCH   1  17
HETATM   17  N           1     -29.405  -8.156 -17.344  0.00  0.00    -0.066 N 
HETATM   18  H           1     -29.413  -8.629 -18.277  0.00  0.00     0.275 HD
HETATM   19  H           1     -28.553  -8.446 -16.813  0.00  0.00     0.275 HD
HETATM   20  H           1     -30.260  -8.430 -16.809  0.00  0.00     0.275 HD
ENDBRANCH   1  17
TORSDOF 6
ENDMDL
MODEL 7
REMARK VINA RESULT:      -5.8     13.668     14.761
REMARK  6 active torsions:
REMARK  status: ('A' for Active; 'I' for Inactive)
REMARK    1  A    between atoms: C_2  and  C_16 
REMARK    2  A    between atoms: N_5  and  C_16 
REMARK       I    between atoms: N_5  and  C_6 
REMARK    3  A    between atoms: C_6  and  C_7 
REMARK    4  A    between atoms: C_7  and  C_8 
REMARK    5  A    between atoms: C_7  and  N_12 
REMARK    6  A    between atoms: C_8  and  C_9 
REMARK       I    between atoms: C_9  and  N_10 
ROOT
HETATM    1  C           1     -21.094  -5.705  -6.858  0.00  0.00     0.283 C 
ENDROOT
BRANCH   1   2
HETATM    2  C           1     -21.561  -4.567  -7.732  0.00  0.00     0.249 C 
HETATM    3  N           1     -21.871  -4.795  -9.046  0.00  0.00    -0.345 N 
HETATM    4  H           1     -21.785  -5.727  -9.431  0.00  0.00     0.163 HD
HETATM    5  O           1     -21.664  -3.455  -7.272  0.00  0.00    -0.271 OA
BRANCH   3   6
HETATM    6  C           1     -22.321  -3.701  -9.886  0.00  0.00     0.181 C 
HETATM    7  C           1     -21.421  -3.598 -11.109  0.00  0.00     0.043 C 
BRANCH   6   8
HETATM    8  C           1     -23.741  -3.958 -10.325  0.00  0.00     0.196 C 
HETATM    9  O           1     -24.193  -5.123 -10.331  0.00  0.00    -0.646 OA
HETATM   10  O           1     -24.467  -3.004 -10.683  0.00  0.00    -0.646 OA
ENDBRANCH   6   8
ENDBRANCH   3   6
ENDBRANCH   1   2
BRANCH   1  11
HETATM   11  C           1     -20.855  -5.194  -5.443  0.00  0.00     0.145 C 
BRANCH  11  12
HETATM   12  C           1     -21.101  -6.310  -4.457  0.00  0.00     0.217 C 
HETATM   13  N           1     -21.884  -6.090  -3.356  0.00  0.00    -0.370 N 
HETATM   14  H           1     -22.047  -6.838  -2.694  0.00  0.00     0.159 HD
HETATM   15  H           1     -22.297  -5.179  -3.202  0.00  0.00     0.159 HD
HETATM   16  O           1     -20.607  -7.397  -4.639  0.00  0.00    -0.274 OA
ENDBRANCH  11  12
ENDBRANCH   1  11
BRANCH   1  17
HETATM   17  N           1     -19.816  -6.264  -7.409  0.00  0.00    -0.066 N 
HETATM   18  H           1     -19.486  -7.047  -6.800  0.00  0.00     0.275 HD
HETATM   19  H           1     -19.980  -6.620  -8.377  0.00  0.00     0.275 HD
HETATM   20  H           1     -19.089  -5.513  -7.433  0.00  0.00     0.275 HD
ENDBRANCH   1  17
TORSDOF 6
ENDMDL
MODEL 8
REMARK VINA RESULT:      -5.7      9.409     10.470
REMARK  6 active torsions:
REMARK  status: ('A' for Active; 'I' for Inactive)
REMARK    1  A    between atoms: C_2  and  C_16 
REMARK    2  A    between atoms: N_5  and  C_16 
REMARK       I    between atoms: N_5  and  C_6 
REMARK    3  A    between atoms: C_6  and  C_7 
REMARK    4  A    between atoms: C_7  and  C_8 
REMARK    5  A    between atoms: C_7  and  N_12 
REMARK    6  A    between atoms: C_8  and  C_9 
REMARK       I    between atoms: C_9  and  N_10 
ROOT
HETATM    1  C           1     -29.748  -6.566 -17.933  0.00  0.00     0.283 C 
ENDROOT
BRANCH   1   2
HETATM    2  C           1     -28.603  -6.243 -18.861  0.00  0.00     0.249 C 
HETATM    3  N           1     -27.791  -7.245 -19.321  0.00  0.00    -0.345 N 
HETATM    4  H           1     -27.958  -8.202 -19.037  0.00  0.00     0.163 HD
HETATM    5  O           1     -28.404  -5.101 -19.200  0.00  0.00    -0.271 OA
BRANCH   3   6
HETATM    6  C           1     -26.691  -6.934 -20.213  0.00  0.00     0.181 C 
HETATM    7  C           1     -25.420  -6.731 -19.399  0.00  0.00     0.043 C 
BRANCH   6   8
HETATM    8  C           1     -26.492  -8.075 -21.181  0.00  0.00     0.196 C 
HETATM    9  O           1     -25.360  -8.299 -21.660  0.00  0.00    -0.646 OA
HETATM   10  O           1     -27.461  -8.797 -21.503  0.00  0.00    -0.646 OA
ENDBRANCH   6   8
ENDBRANCH   3   6
ENDBRANCH   1   2
BRANCH   1  11
HETATM   11  C           1     -29.810  -5.527 -16.821  0.00  0.00     0.145 C 
BRANCH  11  12
HETATM   12  C           1     -30.886  -4.516 -17.134  0.00  0.00     0.217 C 
HETATM   13  N           1     -30.575  -3.378 -17.828  0.00  0.00    -0.370 N 
HETATM   14  H           1     -31.297  -2.701 -18.036  0.00  0.00     0.159 HD
HETATM   15  H           1     -29.624  -3.214 -18.131  0.00  0.00     0.159 HD
HETATM   16  O           1     -32.022  -4.713 -16.772  0.00  0.00    -0.274 OA
ENDBRANCH  11  12
ENDBRANCH   1  11
BRANCH   1  17
HETATM   17  N           1     -29.538  -7.925 -17.336  0.00  0.00    -0.066 N 
HETATM   18  H           1     -30.223  -8.598 -17.748  0.00  0.00     0.275 HD
HETATM   19  H           1     -28.566  -8.249 -17.540  0.00  0.00     0.275 HD
HETATM   20  H           1     -29.679  -7.877 -16.301  0.00  0.00     0.275 HD
ENDBRANCH   1  17
TORSDOF 6
ENDMDL
MODEL 9
REMARK VINA RESULT:      -5.6     11.104     12.187
REMARK  6 active torsions:
REMARK  status: ('A' for Active; 'I' for Inactive)
REMARK    1  A    between atoms: C_2  and  C_16 
REMARK    2  A    between atoms: N_5  and  C_16 
REMARK       I    between atoms: N_5  and  C_6 
REMARK    3  A    between atoms: C_6  and  C_7 
REMARK    4  A    between atoms: C_7  and  C_8 
REMARK    5  A    between atoms: C_7  and  N_12 
REMARK    6  A    between atoms: C_8  and  C_9 
REMARK       I    between atoms: C_9  and  N_10 
ROOT
HETATM    1  C           1     -26.319  -6.654 -20.581  0.00  0.00     0.283 C 
ENDROOT
BRANCH   1   2
HETATM    2  C           1     -26.249  -6.472 -19.085  0.00  0.00     0.249 C 
HETATM    3  N           1     -27.392  -6.238 -18.369  0.00  0.00    -0.345 N 
HETATM    4  H           1     -28.284  -6.186 -18.843  0.00  0.00     0.163 HD
HETATM    5  O           1     -25.184  -6.535 -18.518  0.00  0.00    -0.271 OA
BRANCH   3   6
HETATM    6  C           1     -27.324  -6.064 -16.931  0.00  0.00     0.181 C 
HETATM    7  C           1     -27.865  -4.689 -16.561  0.00  0.00     0.043 C 
BRANCH   6   8
HETATM    8  C           1     -28.153  -7.129 -16.256  0.00  0.00     0.196 C 
HETATM    9  O           1     -29.157  -7.600 -16.834  0.00  0.00    -0.646 OA
HETATM   10  O           1     -27.836  -7.542 -15.119  0.00  0.00    -0.646 OA
ENDBRANCH   6   8
ENDBRANCH   3   6
ENDBRANCH   1   2
BRANCH   1  11
HETATM   11  C           1     -25.974  -8.095 -20.934  0.00  0.00     0.145 C 
BRANCH  11  12
HETATM   12  C           1     -24.567  -8.158 -21.476  0.00  0.00     0.217 C 
HETATM   13  N           1     -23.523  -8.447 -20.638  0.00  0.00    -0.370 N 
HETATM   14  H           1     -22.580  -8.488 -21.002  0.00  0.00     0.159 HD
HETATM   15  H           1     -23.695  -8.617 -19.656  0.00  0.00     0.159 HD
HETATM   16  O           1     -24.361  -7.955 -22.649  0.00  0.00    -0.274 OA
ENDBRANCH  11  12
ENDBRANCH   1  11
BRANCH   1  17
HETATM   17  N           1     -25.341  -5.730 -21.243  0.00  0.00    -0.066 N 
HETATM   18  H           1     -24.552  -6.285 -21.645  0.00  0.00     0.275 HD
HETATM   19  H           1     -25.822  -5.204 -22.007  0.00  0.00     0.275 HD
HETATM   20  H           1     -24.967  -5.055 -20.538  0.00  0.00     0.275 HD
ENDBRANCH   1  17
TORSDOF 6
ENDMDL
