MODEL 1
REMARK VINA RESULT:      -6.4      0.000      0.000
REMARK  8 active torsions:
REMARK  status: ('A' for Active; 'I' for Inactive)
REMARK    1  A    between atoms: N_9  and  C_19 
REMARK       I    between atoms: N_9  and  C_10 
REMARK    2  A    between atoms: C_10  and  C_11 
REMARK    3  A    between atoms: C_11  and  C_12 
REMARK    4  A    between atoms: C_11  and  N_15 
REMARK    5  A    between atoms: C_12  and  C_13 
REMARK    6  A    between atoms: C_18  and  C_19 
REMARK    7  A    between atoms: C_19  and  C_20 
REMARK    8  A    between atoms: C_20  and  C_22 
REMARK       I    between atoms: N_21  and  C_22 
ROOT
HETATM    1  H           1     -27.572  -6.502 -19.892  0.00  0.00     0.163 HD
HETATM    2  N           1     -27.381  -6.407 -18.903  0.00  0.00    -0.344 N 
HETATM    3  C           1     -26.089  -6.420 -18.450  0.00  0.00     0.249 C 
HETATM    4  O           1     -25.860  -6.306 -17.270  0.00  0.00    -0.271 OA
ENDROOT
BRANCH   2   5
HETATM    5  C           1     -28.476  -6.255 -17.963  0.00  0.00     0.194 C 
BRANCH   5   6
HETATM    6  C           1     -29.331  -7.498 -17.982  0.00  0.00     0.197 C 
HETATM    7  O           1     -29.897  -7.851 -19.039  0.00  0.00    -0.646 OA
HETATM    8  O           1     -29.472  -8.175 -16.941  0.00  0.00    -0.646 OA
ENDBRANCH   5   6
BRANCH   5   9
HETATM    9  C           1     -29.320  -5.051 -18.360  0.00  0.00     0.138 C 
BRANCH   9  10
HETATM   10  C           1     -28.938  -3.866 -17.507  0.00  0.00     0.217 C 
HETATM   11  N           1     -29.662  -2.705 -17.584  0.00  0.00    -0.370 N 
HETATM   12  H           1     -30.453  -2.643 -18.212  0.00  0.00     0.159 HD
HETATM   13  H           1     -29.406  -1.911 -17.012  0.00  0.00     0.159 HD
HETATM   14  O           1     -27.994  -3.940 -16.757  0.00  0.00    -0.274 OA
ENDBRANCH   9  10
ENDBRANCH   5   9
ENDBRANCH   2   5
BRANCH   3  15
HETATM   15  C           1     -24.950  -6.578 -19.427  0.00  0.00     0.284 C 
BRANCH  15  16
HETATM   16  C           1     -25.486  -6.493 -20.850  0.00  0.00     0.155 C 
BRANCH  16  17
HETATM   17  C           1     -25.507  -7.871 -21.464  0.00  0.00     0.175 C 
HETATM   18  O           1     -26.499  -8.614 -21.298  0.00  0.00    -0.648 OA
HETATM   19  O           1     -24.533  -8.270 -22.138  0.00  0.00    -0.648 OA
ENDBRANCH  16  17
ENDBRANCH  15  16
BRANCH  15  20
HETATM   20  N           1     -24.295  -7.911 -19.219  0.00  0.00    -0.066 N 
HETATM   21  H           1     -23.340  -7.772 -18.819  0.00  0.00     0.275 HD
HETATM   22  H           1     -24.869  -8.482 -18.558  0.00  0.00     0.275 HD
HETATM   23  H           1     -24.219  -8.409 -20.135  0.00  0.00     0.275 HD
ENDBRANCH  15  20
ENDBRANCH   3  15
TORSDOF 8
ENDMDL
MODEL 2
REMARK VINA RESULT:      -6.0     11.434     13.085
REMARK  8 active torsions:
REMARK  status: ('A' for Active; 'I' for Inactive)
REMARK    1  A    between atoms: N_9  and  C_19 
REMARK       I    between atoms: N_9  and  C_10 
REMARK    2  A    between atoms: C_10  and  C_11 
REMARK    3  A    between atoms: C_11  and  C_12 
REMARK    4  A    between atoms: C_11  and  N_15 
REMARK    5  A    between atoms: C_12  and  C_13 
REMARK    6  A    between atoms: C_18  and  C_19 
REMARK    7  A    between atoms: C_19  and  C_20 
REMARK    8  A    between atoms: C_20  and  C_22 
REMARK       I    between atoms: N_21  and  C_22 
ROOT
HETATM    1  H           1     -22.440  -5.839  -8.747  0.00  0.00     0.163 HD
HETATM    2  N           1     -22.290  -4.848  -8.603  0.00  0.00    -0.344 N 
HETATM    3  C           1     -21.644  -4.410  -7.478  0.00  0.00     0.249 C 
HETATM    4  O           1     -21.463  -3.228  -7.305  0.00  0.00    -0.271 OA
ENDROOT
BRANCH   2   5
HETATM    5  C           1     -22.757  -3.892  -9.588  0.00  0.00     0.194 C 
BRANCH   5   6
HETATM    6  C           1     -24.266  -3.896  -9.616  0.00  0.00     0.197 C 
HETATM    7  O           1     -24.885  -4.969  -9.784  0.00  0.00    -0.646 OA
HETATM    8  O           1     -24.896  -2.827  -9.470  0.00  0.00    -0.646 OA
ENDBRANCH   5   6
BRANCH   5   9
HETATM    9  C           1     -22.222  -4.278 -10.961  0.00  0.00     0.138 C 
BRANCH   9  10
HETATM   10  C           1     -20.739  -4.005 -11.018  0.00  0.00     0.217 C 
HETATM   11  N           1     -20.281  -2.818 -11.527  0.00  0.00    -0.370 N 
HETATM   12  H           1     -20.937  -2.126 -11.865  0.00  0.00     0.159 HD
HETATM   13  H           1     -19.287  -2.635 -11.565  0.00  0.00     0.159 HD
HETATM   14  O           1     -19.956  -4.831 -10.615  0.00  0.00    -0.274 OA
ENDBRANCH   9  10
ENDBRANCH   5   9
ENDBRANCH   2   5
BRANCH   3  15
HETATM   15  C           1     -21.157  -5.405  -6.453  0.00  0.00     0.284 C 
BRANCH  15  16
HETATM   16  C           1     -22.350  -6.004  -5.720  0.00  0.00     0.155 C 
BRANCH  16  17
HETATM   17  C           1     -21.896  -6.573  -4.399  0.00  0.00     0.175 C 
HETATM   18  O           1     -22.258  -6.037  -3.329  0.00  0.00    -0.648 OA
HETATM   19  O           1     -21.157  -7.581  -4.373  0.00  0.00    -0.648 OA
ENDBRANCH  16  17
ENDBRANCH  15  16
BRANCH  15  20
HETATM   20  N           1     -20.264  -4.710  -5.468  0.00  0.00    -0.066 N 
HETATM   21  H           1     -19.377  -4.426  -5.942  0.00  0.00     0.275 HD
HETATM   22  H           1     -20.748  -3.860  -5.098  0.00  0.00     0.275 HD
HETATM   23  H           1     -20.045  -5.359  -4.679  0.00  0.00     0.275 HD
ENDBRANCH  15  20
ENDBRANCH   3  15
TORSDOF 8
ENDMDL
MODEL 3
REMARK VINA RESULT:      -6.0      1.707      2.988
REMARK  8 active torsions:
REMARK  status: ('A' for Active; 'I' for Inactive)
REMARK    1  A    between atoms: N_9  and  C_19 
REMARK       I    between atoms: N_9  and  C_10 
REMARK    2  A    between atoms: C_10  and  C_11 
REMARK    3  A    between atoms: C_11  and  C_12 
REMARK    4  A    between atoms: C_11  and  N_15 
REMARK    5  A    between atoms: C_12  and  C_13 
REMARK    6  A    between atoms: C_18  and  C_19 
REMARK    7  A    between atoms: C_19  and  C_20 
REMARK    8  A    between atoms: C_20  and  C_22 
REMARK       I    between atoms: N_21  and  C_22 
ROOT
HETATM    1  H           1     -26.327  -7.003 -17.614  0.00  0.00     0.163 HD
HETATM    2  N           1     -26.925  -6.587 -18.316  0.00  0.00    -0.344 N 
HETATM    3  C           1     -26.478  -6.451 -19.603  0.00  0.00     0.249 C 
HETATM    4  O           1     -27.190  -5.955 -20.443  0.00  0.00    -0.271 OA
ENDROOT
BRANCH   2   5
HETATM    5  C           1     -28.256  -6.134 -17.961  0.00  0.00     0.194 C 
BRANCH   5   6
HETATM    6  C           1     -28.153  -4.944 -17.039  0.00  0.00     0.197 C 
HETATM    7  O           1     -27.047  -4.624 -16.553  0.00  0.00    -0.646 OA
HETATM    8  O           1     -29.174  -4.278 -16.763  0.00  0.00    -0.646 OA
ENDBRANCH   5   6
BRANCH   5   9
HETATM    9  C           1     -29.002  -7.260 -17.257  0.00  0.00     0.138 C 
BRANCH   9  10
HETATM   10  C           1     -30.400  -7.364 -17.817  0.00  0.00     0.217 C 
HETATM   11  N           1     -31.426  -6.672 -17.229  0.00  0.00    -0.370 N 
HETATM   12  H           1     -31.246  -6.091 -16.420  0.00  0.00     0.159 HD
HETATM   13  H           1     -32.363  -6.742 -17.604  0.00  0.00     0.159 HD
HETATM   14  O           1     -30.615  -8.058 -18.783  0.00  0.00    -0.274 OA
ENDBRANCH   9  10
ENDBRANCH   5   9
ENDBRANCH   2   5
BRANCH   3  15
HETATM   15  C           1     -25.092  -6.922 -19.973  0.00  0.00     0.284 C 
BRANCH  15  16
HETATM   16  C           1     -25.193  -8.024 -21.020  0.00  0.00     0.155 C 
BRANCH  16  17
HETATM   17  C           1     -23.841  -8.239 -21.655  0.00  0.00     0.175 C 
HETATM   18  O           1     -22.814  -8.281 -20.943  0.00  0.00    -0.648 OA
HETATM   19  O           1     -23.748  -8.378 -22.894  0.00  0.00    -0.648 OA
ENDBRANCH  16  17
ENDBRANCH  15  16
BRANCH  15  20
HETATM   20  N           1     -24.404  -7.456 -18.752  0.00  0.00    -0.066 N 
HETATM   21  H           1     -23.529  -7.952 -19.034  0.00  0.00     0.275 HD
HETATM   22  H           1     -24.163  -6.663 -18.113  0.00  0.00     0.275 HD
HETATM   23  H           1     -25.038  -8.123 -18.257  0.00  0.00     0.275 HD
ENDBRANCH  15  20
ENDBRANCH   3  15
TORSDOF 8
ENDMDL
MODEL 4
REMARK VINA RESULT:      -6.0      9.769     11.595
REMARK  8 active torsions:
REMARK  status: ('A' for Active; 'I' for Inactive)
REMARK    1  A    between atoms: N_9  and  C_19 
REMARK       I    between atoms: N_9  and  C_10 
REMARK    2  A    between atoms: C_10  and  C_11 
REMARK    3  A    between atoms: C_11  and  C_12 
REMARK    4  A    between atoms: C_11  and  N_15 
REMARK    5  A    between atoms: C_12  and  C_13 
REMARK    6  A    between atoms: C_18  and  C_19 
REMARK    7  A    between atoms: C_19  and  C_20 
REMARK    8  A    between atoms: C_20  and  C_22 
REMARK       I    between atoms: N_21  and  C_22 
ROOT
HETATM    1  H           1     -33.887  -0.854 -13.134  0.00  0.00     0.163 HD
HETATM    2  N           1     -34.788  -1.177 -12.806  0.00  0.00    -0.344 N 
HETATM    3  C           1     -35.937  -0.606 -13.284  0.00  0.00     0.249 C 
HETATM    4  O           1     -37.013  -0.991 -12.892  0.00  0.00    -0.271 OA
ENDROOT
BRANCH   2   5
HETATM    5  C           1     -34.863  -2.247 -11.830  0.00  0.00     0.194 C 
BRANCH   5   6
HETATM    6  C           1     -34.651  -1.682 -10.447  0.00  0.00     0.197 C 
HETATM    7  O           1     -35.592  -1.109  -9.855  0.00  0.00    -0.646 OA
HETATM    8  O           1     -33.536  -1.788  -9.894  0.00  0.00    -0.646 OA
ENDBRANCH   5   6
BRANCH   5   9
HETATM    9  C           1     -33.784  -3.281 -12.128  0.00  0.00     0.138 C 
BRANCH   9  10
HETATM   10  C           1     -34.276  -4.228 -13.195  0.00  0.00     0.217 C 
HETATM   11  N           1     -33.823  -4.105 -14.482  0.00  0.00    -0.370 N 
HETATM   12  H           1     -33.158  -3.380 -14.717  0.00  0.00     0.159 HD
HETATM   13  H           1     -34.153  -4.740 -15.197  0.00  0.00     0.159 HD
HETATM   14  O           1     -35.070  -5.095 -12.915  0.00  0.00    -0.274 OA
ENDBRANCH   9  10
ENDBRANCH   5   9
ENDBRANCH   2   5
BRANCH   3  15
HETATM   15  C           1     -35.859   0.508 -14.299  0.00  0.00     0.284 C 
BRANCH  15  16
HETATM   16  C           1     -36.763   0.182 -15.481  0.00  0.00     0.155 C 
BRANCH  16  17
HETATM   17  C           1     -36.116  -0.882 -16.332  0.00  0.00     0.175 C 
HETATM   18  O           1     -36.299  -0.891 -17.569  0.00  0.00    -0.648 OA
HETATM   19  O           1     -35.395  -1.755 -15.801  0.00  0.00    -0.648 OA
ENDBRANCH  16  17
ENDBRANCH  15  16
BRANCH  15  20
HETATM   20  N           1     -34.444   0.650 -14.777  0.00  0.00    -0.066 N 
HETATM   21  H           1     -34.377   1.461 -15.431  0.00  0.00     0.275 HD
HETATM   22  H           1     -33.814   0.810 -13.958  0.00  0.00     0.275 HD
HETATM   23  H           1     -34.155  -0.223 -15.274  0.00  0.00     0.275 HD
ENDBRANCH  15  20
ENDBRANCH   3  15
TORSDOF 8
ENDMDL
MODEL 5
REMARK VINA RESULT:      -5.9      9.888     11.379
REMARK  8 active torsions:
REMARK  status: ('A' for Active; 'I' for Inactive)
REMARK    1  A    between atoms: N_9  and  C_19 
REMARK       I    between atoms: N_9  and  C_10 
REMARK    2  A    between atoms: C_10  and  C_11 
REMARK    3  A    between atoms: C_11  and  C_12 
REMARK    4  A    between atoms: C_11  and  N_15 
REMARK    5  A    between atoms: C_12  and  C_13 
REMARK    6  A    between atoms: C_18  and  C_19 
REMARK    7  A    between atoms: C_19  and  C_20 
REMARK    8  A    between atoms: C_20  and  C_22 
REMARK       I    between atoms: N_21  and  C_22 
ROOT
HETATM    1  H           1     -35.370  -1.918 -13.933  0.00  0.00     0.163 HD
HETATM    2  N           1     -34.935  -1.588 -13.081  0.00  0.00    -0.344 N 
HETATM    3  C           1     -34.272  -2.465 -12.266  0.00  0.00     0.249 C 
HETATM    4  O           1     -33.752  -2.071 -11.249  0.00  0.00    -0.271 OA
ENDROOT
BRANCH   2   5
HETATM    5  C           1     -35.012  -0.184 -12.724  0.00  0.00     0.194 C 
BRANCH   5   6
HETATM    6  C           1     -36.256   0.059 -11.906  0.00  0.00     0.197 C 
HETATM    7  O           1     -37.384  -0.078 -12.427  0.00  0.00    -0.646 OA
HETATM    8  O           1     -36.158   0.396 -10.706  0.00  0.00    -0.646 OA
ENDBRANCH   5   6
BRANCH   5   9
HETATM    9  C           1     -35.065   0.658 -13.992  0.00  0.00     0.138 C 
BRANCH   9  10
HETATM   10  C           1     -35.589  -0.181 -15.132  0.00  0.00     0.217 C 
HETATM   11  N           1     -36.926  -0.173 -15.429  0.00  0.00    -0.370 N 
HETATM   12  H           1     -37.562   0.395 -14.884  0.00  0.00     0.159 HD
HETATM   13  H           1     -37.277  -0.736 -16.193  0.00  0.00     0.159 HD
HETATM   14  O           1     -34.830  -0.859 -15.782  0.00  0.00    -0.274 OA
ENDBRANCH   9  10
ENDBRANCH   5   9
ENDBRANCH   2   5
BRANCH   3  15
HETATM   15  C           1     -34.192  -3.926 -12.637  0.00  0.00     0.284 C 
BRANCH  15  16
HETATM   16  C           1     -33.189  -4.626 -11.729  0.00  0.00     0.155 C 
BRANCH  16  17
HETATM   17  C           1     -33.900  -5.670 -10.904  0.00  0.00     0.175 C 
HETATM   18  O           1     -35.009  -5.410 -10.387  0.00  0.00    -0.648 OA
HETATM   19  O           1     -33.381  -6.795 -10.737  0.00  0.00    -0.648 OA
ENDBRANCH  16  17
ENDBRANCH  15  16
BRANCH  15  20
HETATM   20  N           1     -33.748  -4.054 -14.064  0.00  0.00    -0.066 N 
HETATM   21  H           1     -34.401  -4.689 -14.576  0.00  0.00     0.275 HD
HETATM   22  H           1     -33.752  -3.112 -14.517  0.00  0.00     0.275 HD
HETATM   23  H           1     -32.782  -4.452 -14.094  0.00  0.00     0.275 HD
ENDBRANCH  15  20
ENDBRANCH   3  15
TORSDOF 8
ENDMDL
MODEL 6
REMARK VINA RESULT:      -5.8      9.894     11.873
REMARK  8 active torsions:
REMARK  status: ('A' for Active; 'I' for Inactive)
REMARK    1  A    between atoms: N_9  and  C_19 
REMARK       I    between atoms: N_9  and  C_10 
REMARK    2  A    between atoms: C_10  and  C_11 
REMARK    3  A    between atoms: C_11  and  C_12 
REMARK    4  A    between atoms: C_11  and  N_15 
REMARK    5  A    between atoms: C_12  and  C_13 
REMARK    6  A    between atoms: C_18  and  C_19 
REMARK    7  A    between atoms: C_19  and  C_20 
REMARK    8  A    between atoms: C_20  and  C_22 
REMARK       I    between atoms: N_21  and  C_22 
ROOT
HETATM    1  H           1     -36.306  -2.615 -11.579  0.00  0.00     0.163 HD
HETATM    2  N           1     -35.624  -1.905 -11.346  0.00  0.00    -0.344 N 
HETATM    3  C           1     -34.369  -2.268 -10.936  0.00  0.00     0.249 C 
HETATM    4  O           1     -33.555  -1.421 -10.657  0.00  0.00    -0.271 OA
ENDROOT
BRANCH   2   5
HETATM    5  C           1     -35.975  -0.501 -11.446  0.00  0.00     0.194 C 
BRANCH   5   6
HETATM    6  C           1     -37.060  -0.182 -10.448  0.00  0.00     0.197 C 
HETATM    7  O           1     -38.075   0.453 -10.810  0.00  0.00    -0.646 OA
HETATM    8  O           1     -36.944  -0.552  -9.260  0.00  0.00    -0.646 OA
ENDBRANCH   5   6
BRANCH   5   9
HETATM    9  C           1     -36.475  -0.205 -12.855  0.00  0.00     0.138 C 
BRANCH   9  10
HETATM   10  C           1     -35.305   0.150 -13.740  0.00  0.00     0.217 C 
HETATM   11  N           1     -35.067  -0.570 -14.880  0.00  0.00    -0.370 N 
HETATM   12  H           1     -35.676  -1.340 -15.129  0.00  0.00     0.159 HD
HETATM   13  H           1     -34.283  -0.333 -15.474  0.00  0.00     0.159 HD
HETATM   14  O           1     -34.579   1.068 -13.443  0.00  0.00    -0.274 OA
ENDBRANCH   9  10
ENDBRANCH   5   9
ENDBRANCH   2   5
BRANCH   3  15
HETATM   15  C           1     -34.004  -3.728 -10.831  0.00  0.00     0.284 C 
BRANCH  15  16
HETATM   16  C           1     -33.284  -4.164 -12.100  0.00  0.00     0.155 C 
BRANCH  16  17
HETATM   17  C           1     -34.269  -4.235 -13.239  0.00  0.00     0.175 C 
HETATM   18  O           1     -34.345  -3.295 -14.061  0.00  0.00    -0.648 OA
HETATM   19  O           1     -35.011  -5.235 -13.363  0.00  0.00    -0.648 OA
ENDBRANCH  16  17
ENDBRANCH  15  16
BRANCH  15  20
HETATM   20  N           1     -35.251  -4.544 -10.659  0.00  0.00    -0.066 N 
HETATM   21  H           1     -35.753  -4.610 -11.573  0.00  0.00     0.275 HD
HETATM   22  H           1     -34.997  -5.504 -10.333  0.00  0.00     0.275 HD
HETATM   23  H           1     -35.871  -4.088  -9.953  0.00  0.00     0.275 HD
ENDBRANCH  15  20
ENDBRANCH   3  15
TORSDOF 8
ENDMDL
MODEL 7
REMARK VINA RESULT:      -5.8      2.003      5.713
REMARK  8 active torsions:
REMARK  status: ('A' for Active; 'I' for Inactive)
REMARK    1  A    between atoms: N_9  and  C_19 
REMARK       I    between atoms: N_9  and  C_10 
REMARK    2  A    between atoms: C_10  and  C_11 
REMARK    3  A    between atoms: C_11  and  C_12 
REMARK    4  A    between atoms: C_11  and  N_15 
REMARK    5  A    between atoms: C_12  and  C_13 
REMARK    6  A    between atoms: C_18  and  C_19 
REMARK    7  A    between atoms: C_19  and  C_20 
REMARK    8  A    between atoms: C_20  and  C_22 
REMARK       I    between atoms: N_21  and  C_22 
ROOT
HETATM    1  H           1     -27.577  -5.166 -18.050  0.00  0.00     0.163 HD
HETATM    2  N           1     -27.648  -6.096 -17.659  0.00  0.00    -0.344 N 
HETATM    3  C           1     -28.865  -6.580 -17.259  0.00  0.00     0.249 C 
HETATM    4  O           1     -28.951  -7.691 -16.793  0.00  0.00    -0.271 OA
ENDROOT
BRANCH   2   5
HETATM    5  C           1     -26.462  -6.920 -17.524  0.00  0.00     0.194 C 
BRANCH   5   6
HETATM    6  C           1     -25.822  -6.663 -16.182  0.00  0.00     0.197 C 
HETATM    7  O           1     -25.905  -7.520 -15.276  0.00  0.00    -0.646 OA
HETATM    8  O           1     -25.209  -5.593 -15.977  0.00  0.00    -0.646 OA
ENDBRANCH   5   6
BRANCH   5   9
HETATM    9  C           1     -25.476  -6.572 -18.632  0.00  0.00     0.138 C 
BRANCH   9  10
HETATM   10  C           1     -26.110  -6.848 -19.974  0.00  0.00     0.217 C 
HETATM   11  N           1     -25.760  -7.969 -20.679  0.00  0.00    -0.370 N 
HETATM   12  H           1     -25.077  -8.613 -20.300  0.00  0.00     0.159 HD
HETATM   13  H           1     -26.185  -8.154 -21.578  0.00  0.00     0.159 HD
HETATM   14  O           1     -26.926  -6.080 -20.426  0.00  0.00    -0.274 OA
ENDBRANCH   9  10
ENDBRANCH   5   9
ENDBRANCH   2   5
BRANCH   3  15
HETATM   15  C           1     -30.099  -5.724 -17.399  0.00  0.00     0.284 C 
BRANCH  15  16
HETATM   16  C           1     -29.761  -4.472 -18.199  0.00  0.00     0.155 C 
BRANCH  16  17
HETATM   17  C           1     -30.514  -3.294 -17.632  0.00  0.00     0.175 C 
HETATM   18  O           1     -29.887  -2.323 -17.154  0.00  0.00    -0.648 OA
HETATM   19  O           1     -31.764  -3.287 -17.641  0.00  0.00    -0.648 OA
ENDBRANCH  16  17
ENDBRANCH  15  16
BRANCH  15  20
HETATM   20  N           1     -30.591  -5.329 -16.038  0.00  0.00    -0.066 N 
HETATM   21  H           1     -29.799  -4.933 -15.483  0.00  0.00     0.275 HD
HETATM   22  H           1     -31.342  -4.608 -16.135  0.00  0.00     0.275 HD
HETATM   23  H           1     -30.974  -6.169 -15.549  0.00  0.00     0.275 HD
ENDBRANCH  15  20
ENDBRANCH   3  15
TORSDOF 8
ENDMDL
MODEL 8
REMARK VINA RESULT:      -5.6      9.996     12.427
REMARK  8 active torsions:
REMARK  status: ('A' for Active; 'I' for Inactive)
REMARK    1  A    between atoms: N_9  and  C_19 
REMARK       I    between atoms: N_9  and  C_10 
REMARK    2  A    between atoms: C_10  and  C_11 
REMARK    3  A    between atoms: C_11  and  C_12 
REMARK    4  A    between atoms: C_11  and  N_15 
REMARK    5  A    between atoms: C_12  and  C_13 
REMARK    6  A    between atoms: C_18  and  C_19 
REMARK    7  A    between atoms: C_19  and  C_20 
REMARK    8  A    between atoms: C_20  and  C_22 
REMARK       I    between atoms: N_21  and  C_22 
ROOT
HETATM    1  H           1     -35.193  -0.034 -12.202  0.00  0.00     0.163 HD
HETATM    2  N           1     -36.150  -0.349 -12.295  0.00  0.00    -0.344 N 
HETATM    3  C           1     -36.789  -0.249 -13.502  0.00  0.00     0.249 C 
HETATM    4  O           1     -37.932  -0.625 -13.615  0.00  0.00    -0.271 OA
ENDROOT
BRANCH   2   5
HETATM    5  C           1     -36.846  -0.907 -11.152  0.00  0.00     0.194 C 
BRANCH   5   6
HETATM    6  C           1     -36.988   0.151 -10.085  0.00  0.00     0.197 C 
HETATM    7  O           1     -36.213   0.159  -9.105  0.00  0.00    -0.646 OA
HETATM    8  O           1     -37.882   1.020 -10.183  0.00  0.00    -0.646 OA
ENDBRANCH   5   6
BRANCH   5   9
HETATM    9  C           1     -36.049  -2.082 -10.599  0.00  0.00     0.138 C 
BRANCH   9  10
HETATM   10  C           1     -34.713  -2.157 -11.298  0.00  0.00     0.217 C 
HETATM   11  N           1     -34.483  -3.132 -12.232  0.00  0.00    -0.370 N 
HETATM   12  H           1     -35.209  -3.802 -12.453  0.00  0.00     0.159 HD
HETATM   13  H           1     -33.588  -3.182 -12.700  0.00  0.00     0.159 HD
HETATM   14  O           1     -33.847  -1.357 -11.034  0.00  0.00    -0.274 OA
ENDBRANCH   9  10
ENDBRANCH   5   9
ENDBRANCH   2   5
BRANCH   3  15
HETATM   15  C           1     -36.066   0.331 -14.692  0.00  0.00     0.284 C 
BRANCH  15  16
HETATM   16  C           1     -36.285  -0.563 -15.906  0.00  0.00     0.155 C 
BRANCH  16  17
HETATM   17  C           1     -35.177  -1.583 -15.987  0.00  0.00     0.175 C 
HETATM   18  O           1     -34.477  -1.667 -17.020  0.00  0.00    -0.648 OA
HETATM   19  O           1     -34.957  -2.346 -15.021  0.00  0.00    -0.648 OA
ENDBRANCH  16  17
ENDBRANCH  15  16
BRANCH  15  20
HETATM   20  N           1     -34.598   0.415 -14.393  0.00  0.00    -0.066 N 
HETATM   21  H           1     -34.087   0.745 -15.242  0.00  0.00     0.275 HD
HETATM   22  H           1     -34.441   1.089 -13.609  0.00  0.00     0.275 HD
HETATM   23  H           1     -34.244  -0.529 -14.119  0.00  0.00     0.275 HD
ENDBRANCH  15  20
ENDBRANCH   3  15
TORSDOF 8
ENDMDL
MODEL 9
REMARK VINA RESULT:      -5.4     11.607     13.219
REMARK  8 active torsions:
REMARK  status: ('A' for Active; 'I' for Inactive)
REMARK    1  A    between atoms: N_9  and  C_19 
REMARK       I    between atoms: N_9  and  C_10 
REMARK    2  A    between atoms: C_10  and  C_11 
REMARK    3  A    between atoms: C_11  and  C_12 
REMARK    4  A    between atoms: C_11  and  N_15 
REMARK    5  A    between atoms: C_12  and  C_13 
REMARK    6  A    between atoms: C_18  and  C_19 
REMARK    7  A    between atoms: C_19  and  C_20 
REMARK    8  A    between atoms: C_20  and  C_22 
REMARK       I    between atoms: N_21  and  C_22 
ROOT
HETATM    1  H           1     -22.488  -5.893  -6.791  0.00  0.00     0.163 HD
HETATM    2  N           1     -21.988  -5.026  -6.945  0.00  0.00    -0.344 N 
HETATM    3  C           1     -22.474  -4.104  -7.832  0.00  0.00     0.249 C 
HETATM    4  O           1     -21.878  -3.070  -8.018  0.00  0.00    -0.271 OA
ENDROOT
BRANCH   2   5
HETATM    5  C           1     -20.757  -4.761  -6.227  0.00  0.00     0.194 C 
BRANCH   5   6
HETATM    6  C           1     -19.589  -5.303  -7.014  0.00  0.00     0.197 C 
HETATM    7  O           1     -18.649  -4.546  -7.340  0.00  0.00    -0.646 OA
HETATM    8  O           1     -19.561  -6.510  -7.338  0.00  0.00    -0.646 OA
ENDBRANCH   5   6
BRANCH   5   9
HETATM    9  C           1     -20.810  -5.439  -4.863  0.00  0.00     0.138 C 
BRANCH   9  10
HETATM   10  C           1     -21.860  -6.523  -4.882  0.00  0.00     0.217 C 
HETATM   11  N           1     -21.505  -7.815  -5.165  0.00  0.00    -0.370 N 
HETATM   12  H           1     -20.539  -8.043  -5.362  0.00  0.00     0.159 HD
HETATM   13  H           1     -22.209  -8.542  -5.178  0.00  0.00     0.159 HD
HETATM   14  O           1     -23.014  -6.252  -4.648  0.00  0.00    -0.274 OA
ENDBRANCH   9  10
ENDBRANCH   5   9
ENDBRANCH   2   5
BRANCH   3  15
HETATM   15  C           1     -23.756  -4.379  -8.580  0.00  0.00     0.284 C 
BRANCH  15  16
HETATM   16  C           1     -23.444  -5.157  -9.852  0.00  0.00     0.155 C 
BRANCH  16  17
HETATM   17  C           1     -23.539  -4.235 -11.042  0.00  0.00     0.175 C 
HETATM   18  O           1     -22.522  -3.634 -11.451  0.00  0.00    -0.648 OA
HETATM   19  O           1     -24.635  -4.072 -11.621  0.00  0.00    -0.648 OA
ENDBRANCH  16  17
ENDBRANCH  15  16
BRANCH  15  20
HETATM   20  N           1     -24.414  -3.080  -8.938  0.00  0.00    -0.066 N 
HETATM   21  H           1     -23.909  -2.293  -8.472  0.00  0.00     0.275 HD
HETATM   22  H           1     -24.383  -2.948  -9.975  0.00  0.00     0.275 HD
HETATM   23  H           1     -25.409  -3.094  -8.618  0.00  0.00     0.275 HD
ENDBRANCH  15  20
ENDBRANCH   3  15
TORSDOF 8
ENDMDL
