MODEL 1
REMARK VINA RESULT:      -6.2      0.000      0.000
REMARK  10 active torsions:
REMARK  status: ('A' for Active; 'I' for Inactive)
REMARK    1  A    between atoms: N_2  and  C_9 
REMARK    2  A    between atoms: C_6  and  C_20 
REMARK    3  A    between atoms: C_9  and  C_10 
REMARK    4  A    between atoms: C_9  and  C_12 
REMARK       I    between atoms: C_10  and  N_13 
REMARK    5  A    between atoms: C_11  and  C_12 
REMARK    6  A    between atoms: N_13  and  C_20 
REMARK    7  A    between atoms: O_15  and  P_17 
REMARK    8  A    between atoms: P_17  and  O_18 
REMARK    9  A    between atoms: O_18  and  C_19 
REMARK   10  A    between atoms: C_19  and  C_20 
ROOT
HETATM    1  O           1     -28.364  -5.191 -19.179  0.00  0.00    -0.271 OA
HETATM    2  H           1     -27.770  -8.241 -18.753  0.00  0.00     0.163 HD
HETATM    3  C           1     -28.538  -6.319 -18.786  0.00  0.00     0.249 C 
HETATM    4  N           1     -27.625  -7.296 -19.082  0.00  0.00    -0.343 N 
ENDROOT
BRANCH   4   5
HETATM    5  C           1     -26.450  -6.975 -19.869  0.00  0.00     0.210 C 
BRANCH   5   6
HETATM    6  C           1     -26.324  -7.956 -21.008  0.00  0.00     0.198 C 
HETATM    7  O           1     -25.225  -8.111 -21.583  0.00  0.00    -0.646 OA
HETATM    8  O           1     -27.320  -8.615 -21.377  0.00  0.00    -0.646 OA
ENDBRANCH   5   6
BRANCH   5   9
HETATM    9  C           1     -25.211  -7.060 -18.986  0.00  0.00     0.217 C 
BRANCH   9  10
HETATM   10  O           1     -25.362  -6.210 -17.882  0.00  0.00    -0.287 OA
BRANCH  10  11
HETATM   11  P           1     -25.239  -6.907 -16.430  0.00  0.00     0.406 P 
HETATM   12  O           1     -24.170  -7.929 -16.463  0.00  0.00    -0.624 OA
HETATM   13  O           1     -24.909  -5.880 -15.417  0.00  0.00    -0.624 OA
BRANCH  11  14
HETATM   14  O           1     -26.644  -7.606 -16.049  0.00  0.00    -0.300 OA
HETATM   15  H           1     -27.289  -6.927 -16.152  0.00  0.00     0.223 HD
ENDBRANCH  11  14
ENDBRANCH  10  11
ENDBRANCH   9  10
ENDBRANCH   5   9
ENDBRANCH   4   5
BRANCH   3  16
HETATM   16  C           1     -29.761  -6.654 -17.968  0.00  0.00     0.284 C 
BRANCH  16  17
HETATM   17  N           1     -29.519  -7.922 -17.203  0.00  0.00    -0.066 N 
HETATM   18  H           1     -28.563  -8.284 -17.422  0.00  0.00     0.275 HD
HETATM   19  H           1     -29.592  -7.729 -16.179  0.00  0.00     0.275 HD
HETATM   20  H           1     -30.233  -8.634 -17.477  0.00  0.00     0.275 HD
ENDBRANCH  16  17
BRANCH  16  21
HETATM   21  C           1     -30.044  -5.520 -16.991  0.00  0.00     0.155 C 
BRANCH  21  22
HETATM   22  C           1     -29.010  -5.531 -15.892  0.00  0.00     0.175 C 
HETATM   23  O           1     -29.116  -6.336 -14.942  0.00  0.00    -0.648 OA
HETATM   24  O           1     -28.048  -4.734 -15.932  0.00  0.00    -0.648 OA
ENDBRANCH  21  22
ENDBRANCH  16  21
ENDBRANCH   3  16
TORSDOF 10
ENDMDL
MODEL 2
REMARK VINA RESULT:      -6.1      1.466      1.987
REMARK  10 active torsions:
REMARK  status: ('A' for Active; 'I' for Inactive)
REMARK    1  A    between atoms: N_2  and  C_9 
REMARK    2  A    between atoms: C_6  and  C_20 
REMARK    3  A    between atoms: C_9  and  C_10 
REMARK    4  A    between atoms: C_9  and  C_12 
REMARK       I    between atoms: C_10  and  N_13 
REMARK    5  A    between atoms: C_11  and  C_12 
REMARK    6  A    between atoms: N_13  and  C_20 
REMARK    7  A    between atoms: O_15  and  P_17 
REMARK    8  A    between atoms: P_17  and  O_18 
REMARK    9  A    between atoms: O_18  and  C_19 
REMARK   10  A    between atoms: C_19  and  C_20 
ROOT
HETATM    1  O           1     -28.480  -4.790 -18.676  0.00  0.00    -0.271 OA
HETATM    2  H           1     -28.049  -7.897 -18.639  0.00  0.00     0.163 HD
HETATM    3  C           1     -28.735  -5.952 -18.466  0.00  0.00     0.249 C 
HETATM    4  N           1     -27.835  -6.923 -18.815  0.00  0.00    -0.343 N 
ENDROOT
BRANCH   4   5
HETATM    5  C           1     -26.578  -6.558 -19.437  0.00  0.00     0.210 C 
BRANCH   5   6
HETATM    6  C           1     -26.343  -7.430 -20.646  0.00  0.00     0.198 C 
HETATM    7  O           1     -25.244  -7.393 -21.240  0.00  0.00    -0.646 OA
HETATM    8  O           1     -27.248  -8.189 -21.054  0.00  0.00    -0.646 OA
ENDBRANCH   5   6
BRANCH   5   9
HETATM    9  C           1     -25.443  -6.755 -18.440  0.00  0.00     0.217 C 
BRANCH   9  10
HETATM   10  O           1     -25.751  -6.094 -17.243  0.00  0.00    -0.287 OA
BRANCH  10  11
HETATM   11  P           1     -25.475  -6.924 -15.885  0.00  0.00     0.406 P 
HETATM   12  O           1     -26.754  -7.458 -15.365  0.00  0.00    -0.624 OA
HETATM   13  O           1     -24.552  -8.044 -16.170  0.00  0.00    -0.624 OA
BRANCH  11  14
HETATM   14  O           1     -24.811  -5.947 -14.784  0.00  0.00    -0.300 OA
HETATM   15  H           1     -24.704  -6.482 -14.016  0.00  0.00     0.223 HD
ENDBRANCH  11  14
ENDBRANCH  10  11
ENDBRANCH   9  10
ENDBRANCH   5   9
ENDBRANCH   4   5
BRANCH   3  16
HETATM   16  C           1     -30.044  -6.334 -17.819  0.00  0.00     0.284 C 
BRANCH  16  17
HETATM   17  N           1     -29.973  -7.757 -17.350  0.00  0.00    -0.066 N 
HETATM   18  H           1     -29.797  -7.775 -16.320  0.00  0.00     0.275 HD
HETATM   19  H           1     -30.879  -8.235 -17.557  0.00  0.00     0.275 HD
HETATM   20  H           1     -29.196  -8.248 -17.846  0.00  0.00     0.275 HD
ENDBRANCH  16  17
BRANCH  16  21
HETATM   21  C           1     -30.307  -5.420 -16.629  0.00  0.00     0.155 C 
BRANCH  21  22
HETATM   22  C           1     -31.435  -4.474 -16.959  0.00  0.00     0.175 C 
HETATM   23  O           1     -31.184  -3.313 -17.348  0.00  0.00    -0.648 OA
HETATM   24  O           1     -32.621  -4.852 -16.843  0.00  0.00    -0.648 OA
ENDBRANCH  21  22
ENDBRANCH  16  21
ENDBRANCH   3  16
TORSDOF 10
ENDMDL
MODEL 3
REMARK VINA RESULT:      -6.0      9.696     11.975
REMARK  10 active torsions:
REMARK  status: ('A' for Active; 'I' for Inactive)
REMARK    1  A    between atoms: N_2  and  C_9 
REMARK    2  A    between atoms: C_6  and  C_20 
REMARK    3  A    between atoms: C_9  and  C_10 
REMARK    4  A    between atoms: C_9  and  C_12 
REMARK       I    between atoms: C_10  and  N_13 
REMARK    5  A    between atoms: C_11  and  C_12 
REMARK    6  A    between atoms: N_13  and  C_20 
REMARK    7  A    between atoms: O_15  and  P_17 
REMARK    8  A    between atoms: P_17  and  O_18 
REMARK    9  A    between atoms: O_18  and  C_19 
REMARK   10  A    between atoms: C_19  and  C_20 
ROOT
HETATM    1  O           1     -33.926  -1.548 -11.156  0.00  0.00    -0.271 OA
HETATM    2  H           1     -36.304  -2.175 -13.103  0.00  0.00     0.163 HD
HETATM    3  C           1     -34.667  -2.215 -11.837  0.00  0.00     0.249 C 
HETATM    4  N           1     -35.683  -1.616 -12.532  0.00  0.00    -0.343 N 
ENDROOT
BRANCH   4   5
HETATM    5  C           1     -35.871  -0.181 -12.448  0.00  0.00     0.210 C 
BRANCH   5   6
HETATM    6  C           1     -36.846   0.135 -11.340  0.00  0.00     0.198 C 
HETATM    7  O           1     -38.075   0.139 -11.571  0.00  0.00    -0.646 OA
HETATM    8  O           1     -36.425   0.392 -10.192  0.00  0.00    -0.646 OA
ENDBRANCH   5   6
BRANCH   5   9
HETATM    9  C           1     -36.421   0.336 -13.771  0.00  0.00     0.217 C 
BRANCH   9  10
HETATM   10  O           1     -36.677  -0.745 -14.627  0.00  0.00    -0.287 OA
BRANCH  10  11
HETATM   11  P           1     -35.667  -0.913 -15.876  0.00  0.00     0.406 P 
HETATM   12  O           1     -34.548   0.046 -15.739  0.00  0.00    -0.624 OA
HETATM   13  O           1     -35.134  -2.293 -15.898  0.00  0.00    -0.624 OA
BRANCH  11  14
HETATM   14  O           1     -36.462  -0.622 -17.252  0.00  0.00    -0.300 OA
HETATM   15  H           1     -37.146  -0.019 -17.014  0.00  0.00     0.223 HD
ENDBRANCH  11  14
ENDBRANCH  10  11
ENDBRANCH   9  10
ENDBRANCH   5   9
ENDBRANCH   4   5
BRANCH   3  16
HETATM   16  C           1     -34.473  -3.709 -11.924  0.00  0.00     0.284 C 
BRANCH  16  17
HETATM   17  N           1     -33.481  -4.022 -13.006  0.00  0.00    -0.066 N 
HETATM   18  H           1     -33.712  -4.948 -13.432  0.00  0.00     0.275 HD
HETATM   19  H           1     -33.524  -3.281 -13.740  0.00  0.00     0.275 HD
HETATM   20  H           1     -32.520  -4.056 -12.597  0.00  0.00     0.275 HD
ENDBRANCH  16  17
BRANCH  16  21
HETATM   21  C           1     -33.951  -4.231 -10.591  0.00  0.00     0.155 C 
BRANCH  21  22
HETATM   22  C           1     -33.963  -5.740 -10.601  0.00  0.00     0.175 C 
HETATM   23  O           1     -34.910  -6.361 -10.072  0.00  0.00    -0.648 OA
HETATM   24  O           1     -33.026  -6.369 -11.139  0.00  0.00    -0.648 OA
ENDBRANCH  21  22
ENDBRANCH  16  21
ENDBRANCH   3  16
TORSDOF 10
ENDMDL
MODEL 4
REMARK VINA RESULT:      -5.6     11.102     13.088
REMARK  10 active torsions:
REMARK  status: ('A' for Active; 'I' for Inactive)
REMARK    1  A    between atoms: N_2  and  C_9 
REMARK    2  A    between atoms: C_6  and  C_20 
REMARK    3  A    between atoms: C_9  and  C_10 
REMARK    4  A    between atoms: C_9  and  C_12 
REMARK       I    between atoms: C_10  and  N_13 
REMARK    5  A    between atoms: C_11  and  C_12 
REMARK    6  A    between atoms: N_13  and  C_20 
REMARK    7  A    between atoms: O_15  and  P_17 
REMARK    8  A    between atoms: P_17  and  O_18 
REMARK    9  A    between atoms: O_18  and  C_19 
REMARK   10  A    between atoms: C_19  and  C_20 
ROOT
HETATM    1  O           1     -21.379  -7.210  -6.671  0.00  0.00    -0.271 OA
HETATM    2  H           1     -21.143  -4.162  -5.967  0.00  0.00     0.163 HD
HETATM    3  C           1     -21.219  -6.231  -5.983  0.00  0.00     0.249 C 
HETATM    4  N           1     -21.276  -4.983  -6.544  0.00  0.00    -0.343 N 
ENDROOT
BRANCH   4   5
HETATM    5  C           1     -21.526  -4.838  -7.965  0.00  0.00     0.210 C 
BRANCH   5   6
HETATM    6  C           1     -20.221  -4.584  -8.681  0.00  0.00     0.198 C 
HETATM    7  O           1     -20.160  -4.688  -9.925  0.00  0.00    -0.646 OA
HETATM    8  O           1     -19.203  -4.269  -8.029  0.00  0.00    -0.646 OA
ENDBRANCH   5   6
BRANCH   5   9
HETATM    9  C           1     -22.469  -3.665  -8.197  0.00  0.00     0.217 C 
BRANCH   9  10
HETATM   10  O           1     -23.663  -4.129  -8.766  0.00  0.00    -0.287 OA
BRANCH  10  11
HETATM   11  P           1     -23.794  -3.965 -10.368  0.00  0.00     0.406 P 
HETATM   12  O           1     -23.801  -5.302 -11.002  0.00  0.00    -0.624 OA
HETATM   13  O           1     -25.054  -3.260 -10.690  0.00  0.00    -0.624 OA
BRANCH  11  14
HETATM   14  O           1     -22.542  -3.110 -10.924  0.00  0.00    -0.300 OA
HETATM   15  H           1     -22.410  -2.429 -10.286  0.00  0.00     0.223 HD
ENDBRANCH  11  14
ENDBRANCH  10  11
ENDBRANCH   9  10
ENDBRANCH   5   9
ENDBRANCH   4   5
BRANCH   3  16
HETATM   16  C           1     -20.959  -6.381  -4.504  0.00  0.00     0.284 C 
BRANCH  16  17
HETATM   17  N           1     -22.258  -6.304  -3.757  0.00  0.00    -0.066 N 
HETATM   18  H           1     -22.376  -5.344  -3.361  0.00  0.00     0.275 HD
HETATM   19  H           1     -23.047  -6.510  -4.411  0.00  0.00     0.275 HD
HETATM   20  H           1     -22.255  -7.004  -2.982  0.00  0.00     0.275 HD
ENDBRANCH  16  17
BRANCH  16  21
HETATM   21  C           1     -20.301  -7.729  -4.239  0.00  0.00     0.155 C 
BRANCH  21  22
HETATM   22  C           1     -21.221  -8.583  -3.402  0.00  0.00     0.175 C 
HETATM   23  O           1     -22.008  -9.382  -3.954  0.00  0.00    -0.648 OA
HETATM   24  O           1     -21.196  -8.492  -2.156  0.00  0.00    -0.648 OA
ENDBRANCH  21  22
ENDBRANCH  16  21
ENDBRANCH   3  16
TORSDOF 10
ENDMDL
MODEL 5
REMARK VINA RESULT:      -5.4      7.365      9.745
REMARK  10 active torsions:
REMARK  status: ('A' for Active; 'I' for Inactive)
REMARK    1  A    between atoms: N_2  and  C_9 
REMARK    2  A    between atoms: C_6  and  C_20 
REMARK    3  A    between atoms: C_9  and  C_10 
REMARK    4  A    between atoms: C_9  and  C_12 
REMARK       I    between atoms: C_10  and  N_13 
REMARK    5  A    between atoms: C_11  and  C_12 
REMARK    6  A    between atoms: N_13  and  C_20 
REMARK    7  A    between atoms: O_15  and  P_17 
REMARK    8  A    between atoms: P_17  and  O_18 
REMARK    9  A    between atoms: O_18  and  C_19 
REMARK   10  A    between atoms: C_19  and  C_20 
ROOT
HETATM    1  O           1     -35.174  -5.506 -13.934  0.00  0.00    -0.271 OA
HETATM    2  H           1     -33.148  -3.123 -14.179  0.00  0.00     0.163 HD
HETATM    3  C           1     -34.403  -4.651 -13.567  0.00  0.00     0.249 C 
HETATM    4  N           1     -33.794  -3.839 -14.486  0.00  0.00    -0.343 N 
ENDROOT
BRANCH   4   5
HETATM    5  C           1     -34.074  -4.005 -15.899  0.00  0.00     0.210 C 
BRANCH   5   6
HETATM    6  C           1     -32.776  -4.037 -16.668  0.00  0.00     0.198 C 
HETATM    7  O           1     -31.941  -4.941 -16.447  0.00  0.00    -0.646 OA
HETATM    8  O           1     -32.536  -3.160 -17.525  0.00  0.00    -0.646 OA
ENDBRANCH   5   6
BRANCH   5   9
HETATM    9  C           1     -34.925  -2.839 -16.387  0.00  0.00     0.217 C 
BRANCH   9  10
HETATM   10  O           1     -35.046  -1.887 -15.365  0.00  0.00    -0.287 OA
BRANCH  10  11
HETATM   11  P           1     -35.982  -0.612 -15.693  0.00  0.00     0.406 P 
HETATM   12  O           1     -37.207  -0.673 -14.865  0.00  0.00    -0.624 OA
HETATM   13  O           1     -35.243   0.633 -15.391  0.00  0.00    -0.624 OA
BRANCH  11  14
HETATM   14  O           1     -36.386  -0.631 -17.257  0.00  0.00    -0.300 OA
HETATM   15  H           1     -36.242  -1.520 -17.535  0.00  0.00     0.223 HD
ENDBRANCH  11  14
ENDBRANCH  10  11
ENDBRANCH   9  10
ENDBRANCH   5   9
ENDBRANCH   4   5
BRANCH   3  16
HETATM   16  C           1     -34.111  -4.478 -12.097  0.00  0.00     0.284 C 
BRANCH  16  17
HETATM   17  N           1     -32.723  -3.935 -11.923  0.00  0.00    -0.066 N 
HETATM   18  H           1     -32.088  -4.700 -11.601  0.00  0.00     0.275 HD
HETATM   19  H           1     -32.381  -3.560 -12.836  0.00  0.00     0.275 HD
HETATM   20  H           1     -32.736  -3.169 -11.213  0.00  0.00     0.275 HD
ENDBRANCH  16  17
BRANCH  16  21
HETATM   21  C           1     -35.115  -3.505 -11.491  0.00  0.00     0.155 C 
BRANCH  21  22
HETATM   22  C           1     -34.471  -2.150 -11.333  0.00  0.00     0.175 C 
HETATM   23  O           1     -34.443  -1.355 -12.297  0.00  0.00    -0.648 OA
HETATM   24  O           1     -33.966  -1.823 -10.238  0.00  0.00    -0.648 OA
ENDBRANCH  21  22
ENDBRANCH  16  21
ENDBRANCH   3  16
TORSDOF 10
ENDMDL
MODEL 6
REMARK VINA RESULT:      -5.4     11.624     13.667
REMARK  10 active torsions:
REMARK  status: ('A' for Active; 'I' for Inactive)
REMARK    1  A    between atoms: N_2  and  C_9 
REMARK    2  A    between atoms: C_6  and  C_20 
REMARK    3  A    between atoms: C_9  and  C_10 
REMARK    4  A    between atoms: C_9  and  C_12 
REMARK       I    between atoms: C_10  and  N_13 
REMARK    5  A    between atoms: C_11  and  C_12 
REMARK    6  A    between atoms: N_13  and  C_20 
REMARK    7  A    between atoms: O_15  and  P_17 
REMARK    8  A    between atoms: P_17  and  O_18 
REMARK    9  A    between atoms: O_18  and  C_19 
REMARK   10  A    between atoms: C_19  and  C_20 
ROOT
HETATM    1  O           1     -21.034  -7.649  -6.393  0.00  0.00    -0.271 OA
HETATM    2  H           1     -22.270  -4.939  -5.409  0.00  0.00     0.163 HD
HETATM    3  C           1     -21.574  -6.875  -5.639  0.00  0.00     0.249 C 
HETATM    4  N           1     -21.817  -5.588  -6.040  0.00  0.00    -0.343 N 
ENDROOT
BRANCH   4   5
HETATM    5  C           1     -21.425  -5.155  -7.367  0.00  0.00     0.210 C 
BRANCH   5   6
HETATM    6  C           1     -20.103  -4.431  -7.288  0.00  0.00     0.198 C 
HETATM    7  O           1     -19.707  -3.747  -8.257  0.00  0.00    -0.646 OA
HETATM    8  O           1     -19.405  -4.515  -6.255  0.00  0.00    -0.646 OA
ENDBRANCH   5   6
BRANCH   5   9
HETATM    9  C           1     -22.486  -4.217  -7.928  0.00  0.00     0.217 C 
BRANCH   9  10
HETATM   10  O           1     -23.056  -4.786  -9.075  0.00  0.00    -0.287 OA
BRANCH  10  11
HETATM   11  P           1     -23.657  -3.748 -10.157  0.00  0.00     0.406 P 
HETATM   12  O           1     -22.554  -2.958 -10.748  0.00  0.00    -0.624 OA
HETATM   13  O           1     -24.355  -4.498 -11.225  0.00  0.00    -0.624 OA
BRANCH  11  14
HETATM   14  O           1     -24.701  -2.757  -9.426  0.00  0.00    -0.300 OA
HETATM   15  H           1     -24.169  -2.075  -9.052  0.00  0.00     0.223 HD
ENDBRANCH  11  14
ENDBRANCH  10  11
ENDBRANCH   9  10
ENDBRANCH   5   9
ENDBRANCH   4   5
BRANCH   3  16
HETATM   16  C           1     -21.982  -7.325  -4.258  0.00  0.00     0.284 C 
BRANCH  16  17
HETATM   17  N           1     -21.411  -8.685  -3.986  0.00  0.00    -0.066 N 
HETATM   18  H           1     -21.582  -8.941  -2.987  0.00  0.00     0.275 HD
HETATM   19  H           1     -21.872  -9.386  -4.609  0.00  0.00     0.275 HD
HETATM   20  H           1     -20.383  -8.674  -4.172  0.00  0.00     0.275 HD
ENDBRANCH  16  17
BRANCH  16  21
HETATM   21  C           1     -21.452  -6.337  -3.226  0.00  0.00     0.155 C 
BRANCH  21  22
HETATM   22  C           1     -21.661  -6.896  -1.840  0.00  0.00     0.175 C 
HETATM   23  O           1     -20.847  -7.718  -1.368  0.00  0.00    -0.648 OA
HETATM   24  O           1     -22.649  -6.536  -1.164  0.00  0.00    -0.648 OA
ENDBRANCH  21  22
ENDBRANCH  16  21
ENDBRANCH   3  16
TORSDOF 10
ENDMDL
MODEL 7
REMARK VINA RESULT:      -5.1      2.782      5.267
REMARK  10 active torsions:
REMARK  status: ('A' for Active; 'I' for Inactive)
REMARK    1  A    between atoms: N_2  and  C_9 
REMARK    2  A    between atoms: C_6  and  C_20 
REMARK    3  A    between atoms: C_9  and  C_10 
REMARK    4  A    between atoms: C_9  and  C_12 
REMARK       I    between atoms: C_10  and  N_13 
REMARK    5  A    between atoms: C_11  and  C_12 
REMARK    6  A    between atoms: N_13  and  C_20 
REMARK    7  A    between atoms: O_15  and  P_17 
REMARK    8  A    between atoms: P_17  and  O_18 
REMARK    9  A    between atoms: O_18  and  C_19 
REMARK   10  A    between atoms: C_19  and  C_20 
ROOT
HETATM    1  O           1     -26.872  -4.500 -16.899  0.00  0.00    -0.271 OA
HETATM    2  H           1     -29.400  -6.177 -16.102  0.00  0.00     0.163 HD
HETATM    3  C           1     -27.517  -5.351 -16.334  0.00  0.00     0.249 C 
HETATM    4  N           1     -28.860  -5.464 -16.575  0.00  0.00    -0.343 N 
ENDROOT
BRANCH   4   5
HETATM    5  C           1     -29.508  -4.561 -17.507  0.00  0.00     0.210 C 
BRANCH   5   6
HETATM    6  C           1     -30.891  -4.228 -17.003  0.00  0.00     0.198 C 
HETATM    7  O           1     -31.483  -3.212 -17.428  0.00  0.00    -0.646 OA
HETATM    8  O           1     -31.445  -4.968 -16.162  0.00  0.00    -0.646 OA
ENDBRANCH   5   6
BRANCH   5   9
HETATM    9  C           1     -29.612  -5.231 -18.871  0.00  0.00     0.217 C 
BRANCH   9  10
HETATM   10  O           1     -28.931  -6.456 -18.845  0.00  0.00    -0.287 OA
BRANCH  10  11
HETATM   11  P           1     -29.838  -7.764 -18.568  0.00  0.00     0.406 P 
HETATM   12  O           1     -29.690  -8.177 -17.154  0.00  0.00    -0.624 OA
HETATM   13  O           1     -31.257  -7.448 -18.844  0.00  0.00    -0.624 OA
BRANCH  11  14
HETATM   14  O           1     -29.357  -8.965 -19.534  0.00  0.00    -0.300 OA
HETATM   15  H           1     -28.859  -8.545 -20.215  0.00  0.00     0.223 HD
ENDBRANCH  11  14
ENDBRANCH  10  11
ENDBRANCH   9  10
ENDBRANCH   5   9
ENDBRANCH   4   5
BRANCH   3  16
HETATM   16  C           1     -26.843  -6.290 -15.364  0.00  0.00     0.284 C 
BRANCH  16  17
HETATM   17  N           1     -27.236  -7.703 -15.681  0.00  0.00    -0.066 N 
HETATM   18  H           1     -28.166  -7.910 -15.252  0.00  0.00     0.275 HD
HETATM   19  H           1     -27.297  -7.822 -16.717  0.00  0.00     0.275 HD
HETATM   20  H           1     -26.519  -8.358 -15.295  0.00  0.00     0.275 HD
ENDBRANCH  16  17
BRANCH  16  21
HETATM   21  C           1     -25.332  -6.145 -15.485  0.00  0.00     0.155 C 
BRANCH  21  22
HETATM   22  C           1     -24.810  -7.133 -16.499  0.00  0.00     0.175 C 
HETATM   23  O           1     -24.792  -6.833 -17.712  0.00  0.00    -0.648 OA
HETATM   24  O           1     -24.395  -8.252 -16.126  0.00  0.00    -0.648 OA
ENDBRANCH  21  22
ENDBRANCH  16  21
ENDBRANCH   3  16
TORSDOF 10
ENDMDL
MODEL 8
REMARK VINA RESULT:      -5.1      2.198      3.479
REMARK  10 active torsions:
REMARK  status: ('A' for Active; 'I' for Inactive)
REMARK    1  A    between atoms: N_2  and  C_9 
REMARK    2  A    between atoms: C_6  and  C_20 
REMARK    3  A    between atoms: C_9  and  C_10 
REMARK    4  A    between atoms: C_9  and  C_12 
REMARK       I    between atoms: C_10  and  N_13 
REMARK    5  A    between atoms: C_11  and  C_12 
REMARK    6  A    between atoms: N_13  and  C_20 
REMARK    7  A    between atoms: O_15  and  P_17 
REMARK    8  A    between atoms: P_17  and  O_18 
REMARK    9  A    between atoms: O_18  and  C_19 
REMARK   10  A    between atoms: C_19  and  C_20 
ROOT
HETATM    1  O           1     -29.704  -5.145 -17.495  0.00  0.00    -0.271 OA
HETATM    2  H           1     -27.464  -7.332 -17.701  0.00  0.00     0.163 HD
HETATM    3  C           1     -28.806  -5.864 -17.127  0.00  0.00     0.249 C 
HETATM    4  N           1     -28.216  -6.729 -18.009  0.00  0.00    -0.343 N 
ENDROOT
BRANCH   4   5
HETATM    5  C           1     -28.672  -6.784 -19.385  0.00  0.00     0.210 C 
BRANCH   5   6
HETATM    6  C           1     -29.142  -8.182 -19.704  0.00  0.00     0.198 C 
HETATM    7  O           1     -28.566  -8.849 -20.590  0.00  0.00    -0.646 OA
HETATM    8  O           1     -30.108  -8.673 -19.081  0.00  0.00    -0.646 OA
ENDBRANCH   5   6
BRANCH   5   9
HETATM    9  C           1     -27.524  -6.410 -20.314  0.00  0.00     0.217 C 
BRANCH   9  10
HETATM   10  O           1     -26.304  -6.737 -19.705  0.00  0.00    -0.287 OA
BRANCH  10  11
HETATM   11  P           1     -25.156  -7.313 -20.685  0.00  0.00     0.406 P 
HETATM   12  O           1     -24.753  -6.261 -21.646  0.00  0.00    -0.624 OA
HETATM   13  O           1     -23.983  -7.724 -19.883  0.00  0.00    -0.624 OA
BRANCH  11  14
HETATM   14  O           1     -25.729  -8.590 -21.491  0.00  0.00    -0.300 OA
HETATM   15  H           1     -26.110  -9.144 -20.831  0.00  0.00     0.223 HD
ENDBRANCH  11  14
ENDBRANCH  10  11
ENDBRANCH   9  10
ENDBRANCH   5   9
ENDBRANCH   4   5
BRANCH   3  16
HETATM   16  C           1     -28.332  -5.808 -15.696  0.00  0.00     0.284 C 
BRANCH  16  17
HETATM   17  N           1     -29.517  -5.790 -14.776  0.00  0.00    -0.066 N 
HETATM   18  H           1     -29.979  -6.728 -14.785  0.00  0.00     0.275 HD
HETATM   19  H           1     -29.200  -5.568 -13.806  0.00  0.00     0.275 HD
HETATM   20  H           1     -30.196  -5.064 -15.098  0.00  0.00     0.275 HD
ENDBRANCH  16  17
BRANCH  16  21
HETATM   21  C           1     -27.477  -7.033 -15.396  0.00  0.00     0.155 C 
BRANCH  21  22
HETATM   22  C           1     -26.032  -6.727 -15.703  0.00  0.00     0.175 C 
HETATM   23  O           1     -25.138  -7.539 -15.381  0.00  0.00    -0.648 OA
HETATM   24  O           1     -25.728  -5.660 -16.279  0.00  0.00    -0.648 OA
ENDBRANCH  21  22
ENDBRANCH  16  21
ENDBRANCH   3  16
TORSDOF 10
ENDMDL
MODEL 9
REMARK VINA RESULT:      -4.9      7.312      9.769
REMARK  10 active torsions:
REMARK  status: ('A' for Active; 'I' for Inactive)
REMARK    1  A    between atoms: N_2  and  C_9 
REMARK    2  A    between atoms: C_6  and  C_20 
REMARK    3  A    between atoms: C_9  and  C_10 
REMARK    4  A    between atoms: C_9  and  C_12 
REMARK       I    between atoms: C_10  and  N_13 
REMARK    5  A    between atoms: C_11  and  C_12 
REMARK    6  A    between atoms: N_13  and  C_20 
REMARK    7  A    between atoms: O_15  and  P_17 
REMARK    8  A    between atoms: P_17  and  O_18 
REMARK    9  A    between atoms: O_18  and  C_19 
REMARK   10  A    between atoms: C_19  and  C_20 
ROOT
HETATM    1  O           1     -35.183  -5.442 -13.789  0.00  0.00    -0.271 OA
HETATM    2  H           1     -33.134  -3.089 -14.108  0.00  0.00     0.163 HD
HETATM    3  C           1     -34.409  -4.580 -13.449  0.00  0.00     0.249 C 
HETATM    4  N           1     -33.783  -3.812 -14.393  0.00  0.00    -0.343 N 
ENDROOT
BRANCH   4   5
HETATM    5  C           1     -34.048  -4.034 -15.801  0.00  0.00     0.210 C 
BRANCH   5   6
HETATM    6  C           1     -32.742  -4.069 -16.558  0.00  0.00     0.198 C 
HETATM    7  O           1     -31.898  -4.957 -16.309  0.00  0.00    -0.646 OA
HETATM    8  O           1     -32.506  -3.211 -17.435  0.00  0.00    -0.646 OA
ENDBRANCH   5   6
BRANCH   5   9
HETATM    9  C           1     -34.916  -2.903 -16.338  0.00  0.00     0.217 C 
BRANCH   9  10
HETATM   10  O           1     -35.055  -1.913 -15.356  0.00  0.00    -0.287 OA
BRANCH  10  11
HETATM   11  P           1     -35.968  -0.642 -15.757  0.00  0.00     0.406 P 
HETATM   12  O           1     -37.214  -0.657 -14.958  0.00  0.00    -0.624 OA
HETATM   13  O           1     -35.222   0.607 -15.484  0.00  0.00    -0.624 OA
BRANCH  11  14
HETATM   14  O           1     -36.333  -0.718 -17.328  0.00  0.00    -0.300 OA
HETATM   15  H           1     -36.192  -1.618 -17.567  0.00  0.00     0.223 HD
ENDBRANCH  11  14
ENDBRANCH  10  11
ENDBRANCH   9  10
ENDBRANCH   5   9
ENDBRANCH   4   5
BRANCH   3  16
HETATM   16  C           1     -34.133  -4.348 -11.984  0.00  0.00     0.284 C 
BRANCH  16  17
HETATM   17  N           1     -35.431  -4.196 -11.247  0.00  0.00    -0.066 N 
HETATM   18  H           1     -35.585  -3.189 -11.018  0.00  0.00     0.275 HD
HETATM   19  H           1     -36.213  -4.540 -11.849  0.00  0.00     0.275 HD
HETATM   20  H           1     -35.397  -4.754 -10.364  0.00  0.00     0.275 HD
ENDBRANCH  16  17
BRANCH  16  21
HETATM   21  C           1     -33.366  -5.537 -11.418  0.00  0.00     0.155 C 
BRANCH  21  22
HETATM   22  C           1     -34.304  -6.411 -10.624  0.00  0.00     0.175 C 
HETATM   23  O           1     -34.913  -7.347 -11.186  0.00  0.00    -0.648 OA
HETATM   24  O           1     -34.473  -6.200  -9.404  0.00  0.00    -0.648 OA
ENDBRANCH  21  22
ENDBRANCH  16  21
ENDBRANCH   3  16
TORSDOF 10
ENDMDL
