MODEL 1
REMARK VINA RESULT:      -6.4      0.000      0.000
REMARK  9 active torsions:
REMARK  status: ('A' for Active; 'I' for Inactive)
REMARK    1  A    between atoms: C_1  and  C_11 
REMARK    2  A    between atoms: C_5  and  C_10 
REMARK    3  A    between atoms: C_10  and  C_21 
REMARK    4  A    between atoms: C_11  and  C_20 
REMARK    5  A    between atoms: N_15  and  C_20 
REMARK       I    between atoms: N_15  and  C_16 
REMARK    6  A    between atoms: C_16  and  C_17 
REMARK    7  A    between atoms: C_17  and  C_21 
REMARK    8  A    between atoms: C_17  and  N_22 
REMARK    9  A    between atoms: C_19  and  C_20 
ROOT
HETATM    1  H           1     -27.909  -6.630 -19.323  0.00  0.00     0.163 HD
HETATM    2  O           1     -27.060  -6.838 -16.311  0.00  0.00    -0.271 OA
HETATM    3  N           1     -28.020  -6.755 -18.325  0.00  0.00    -0.344 N 
HETATM    4  C           1     -26.928  -6.691 -17.502  0.00  0.00     0.249 C 
ENDROOT
BRANCH   4   5
HETATM    5  C           1     -25.559  -6.436 -18.083  0.00  0.00     0.275 C 
BRANCH   5   6
HETATM    6  C           1     -25.636  -6.476 -19.603  0.00  0.00     0.053 C 
BRANCH   6   7
HETATM    7  C           1     -24.621  -7.478 -20.137  0.00  0.00     0.115 C 
BRANCH   7   8
HETATM    8  C           1     -25.150  -8.105 -21.404  0.00  0.00     0.172 C 
HETATM    9  O           1     -24.438  -8.135 -22.431  0.00  0.00    -0.648 OA
HETATM   10  O           1     -26.299  -8.596 -21.425  0.00  0.00    -0.648 OA
ENDBRANCH   7   8
ENDBRANCH   6   7
ENDBRANCH   5   6
BRANCH   5  11
HETATM   11  N           1     -24.609  -7.493 -17.603  0.00  0.00    -0.066 N 
HETATM   12  H           1     -24.047  -7.120 -16.805  0.00  0.00     0.275 HD
HETATM   13  H           1     -23.967  -7.767 -18.382  0.00  0.00     0.275 HD
HETATM   14  H           1     -25.149  -8.331 -17.288  0.00  0.00     0.275 HD
ENDBRANCH   5  11
ENDBRANCH   4   5
BRANCH   3  15
HETATM   15  C           1     -29.335  -6.999 -17.766  0.00  0.00     0.189 C 
BRANCH  15  16
HETATM   16  C           1     -30.080  -5.678 -17.625  0.00  0.00     0.014 C 
HETATM   17  C           1     -30.202  -5.319 -16.150  0.00  0.00     0.012 C 
BRANCH  16  18
HETATM   18  C           1     -29.311  -4.582 -18.353  0.00  0.00     0.002 C 
HETATM   19  C           1     -29.025  -3.436 -17.391  0.00  0.00     0.005 C 
ENDBRANCH  16  18
ENDBRANCH  15  16
BRANCH  15  20
HETATM   20  C           1     -30.108  -7.917 -18.680  0.00  0.00     0.197 C 
HETATM   21  O           1     -29.503  -8.780 -19.355  0.00  0.00    -0.646 OA
HETATM   22  O           1     -31.350  -7.815 -18.766  0.00  0.00    -0.646 OA
ENDBRANCH  15  20
ENDBRANCH   3  15
TORSDOF 9
ENDMDL
MODEL 2
REMARK VINA RESULT:      -6.3     10.326     11.710
REMARK  9 active torsions:
REMARK  status: ('A' for Active; 'I' for Inactive)
REMARK    1  A    between atoms: C_1  and  C_11 
REMARK    2  A    between atoms: C_5  and  C_10 
REMARK    3  A    between atoms: C_10  and  C_21 
REMARK    4  A    between atoms: C_11  and  C_20 
REMARK    5  A    between atoms: N_15  and  C_20 
REMARK       I    between atoms: N_15  and  C_16 
REMARK    6  A    between atoms: C_16  and  C_17 
REMARK    7  A    between atoms: C_17  and  C_21 
REMARK    8  A    between atoms: C_17  and  N_22 
REMARK    9  A    between atoms: C_19  and  C_20 
ROOT
HETATM    1  H           1     -35.887  -2.350 -13.106  0.00  0.00     0.163 HD
HETATM    2  O           1     -33.732  -2.164 -10.835  0.00  0.00    -0.271 OA
HETATM    3  N           1     -35.317  -1.921 -12.389  0.00  0.00    -0.344 N 
HETATM    4  C           1     -34.413  -2.676 -11.691  0.00  0.00     0.249 C 
ENDROOT
BRANCH   4   5
HETATM    5  C           1     -34.268  -4.148 -11.991  0.00  0.00     0.275 C 
BRANCH   5   6
HETATM    6  C           1     -34.311  -4.938 -10.691  0.00  0.00     0.053 C 
BRANCH   6   7
HETATM    7  C           1     -33.636  -6.288 -10.893  0.00  0.00     0.115 C 
BRANCH   7   8
HETATM    8  C           1     -34.391  -7.350 -10.131  0.00  0.00     0.172 C 
HETATM    9  O           1     -35.429  -7.049  -9.503  0.00  0.00    -0.648 OA
HETATM   10  O           1     -33.978  -8.529 -10.128  0.00  0.00    -0.648 OA
ENDBRANCH   7   8
ENDBRANCH   6   7
ENDBRANCH   5   6
BRANCH   5  11
HETATM   11  N           1     -32.957  -4.390 -12.679  0.00  0.00    -0.066 N 
HETATM   12  H           1     -32.245  -3.715 -12.320  0.00  0.00     0.275 HD
HETATM   13  H           1     -33.074  -4.257 -13.710  0.00  0.00     0.275 HD
HETATM   14  H           1     -32.639  -5.367 -12.489  0.00  0.00     0.275 HD
ENDBRANCH   5  11
ENDBRANCH   4   5
BRANCH   3  15
HETATM   15  C           1     -35.456  -0.507 -12.100  0.00  0.00     0.189 C 
BRANCH  15  16
HETATM   16  C           1     -35.729   0.250 -13.394  0.00  0.00     0.014 C 
HETATM   17  C           1     -34.580   1.210 -13.672  0.00  0.00     0.012 C 
BRANCH  16  18
HETATM   18  C           1     -35.854  -0.741 -14.544  0.00  0.00     0.002 C 
HETATM   19  C           1     -35.961   0.018 -15.860  0.00  0.00     0.005 C 
ENDBRANCH  16  18
ENDBRANCH  15  16
BRANCH  15  20
HETATM   20  C           1     -36.604  -0.300 -11.144  0.00  0.00     0.197 C 
HETATM   21  O           1     -37.642  -0.988 -11.256  0.00  0.00    -0.646 OA
HETATM   22  O           1     -36.520   0.561 -10.241  0.00  0.00    -0.646 OA
ENDBRANCH  15  20
ENDBRANCH   3  15
TORSDOF 9
ENDMDL
MODEL 3
REMARK VINA RESULT:      -6.3      5.647      8.096
REMARK  9 active torsions:
REMARK  status: ('A' for Active; 'I' for Inactive)
REMARK    1  A    between atoms: C_1  and  C_11 
REMARK    2  A    between atoms: C_5  and  C_10 
REMARK    3  A    between atoms: C_10  and  C_21 
REMARK    4  A    between atoms: C_11  and  C_20 
REMARK    5  A    between atoms: N_15  and  C_20 
REMARK       I    between atoms: N_15  and  C_16 
REMARK    6  A    between atoms: C_16  and  C_17 
REMARK    7  A    between atoms: C_17  and  C_21 
REMARK    8  A    between atoms: C_17  and  N_22 
REMARK    9  A    between atoms: C_19  and  C_20 
ROOT
HETATM    1  H           1     -32.533  -3.373 -14.500  0.00  0.00     0.163 HD
HETATM    2  O           1     -35.037  -5.044 -15.381  0.00  0.00    -0.271 OA
HETATM    3  N           1     -33.414  -3.862 -14.404  0.00  0.00    -0.344 N 
HETATM    4  C           1     -33.986  -4.460 -15.495  0.00  0.00     0.249 C 
ENDROOT
BRANCH   4   5
HETATM    5  C           1     -33.304  -4.391 -16.839  0.00  0.00     0.275 C 
BRANCH   5   6
HETATM    6  C           1     -31.808  -4.608 -16.662  0.00  0.00     0.053 C 
BRANCH   6   7
HETATM    7  C           1     -31.044  -3.620 -17.534  0.00  0.00     0.115 C 
BRANCH   7   8
HETATM    8  C           1     -29.641  -4.128 -17.761  0.00  0.00     0.172 C 
HETATM    9  O           1     -29.452  -5.165 -18.432  0.00  0.00    -0.648 OA
HETATM   10  O           1     -28.668  -3.510 -17.278  0.00  0.00    -0.648 OA
ENDBRANCH   7   8
ENDBRANCH   6   7
ENDBRANCH   5   6
BRANCH   5  11
HETATM   11  N           1     -33.544  -3.043 -17.452  0.00  0.00    -0.066 N 
HETATM   12  H           1     -34.520  -2.734 -17.242  0.00  0.00     0.275 HD
HETATM   13  H           1     -33.413  -3.101 -18.487  0.00  0.00     0.275 HD
HETATM   14  H           1     -32.867  -2.353 -17.054  0.00  0.00     0.275 HD
ENDBRANCH   5  11
ENDBRANCH   4   5
BRANCH   3  15
HETATM   15  C           1     -34.070  -3.928 -13.114  0.00  0.00     0.189 C 
BRANCH  15  16
HETATM   16  C           1     -33.021  -4.071 -12.018  0.00  0.00     0.014 C 
HETATM   17  C           1     -33.205  -2.961 -10.992  0.00  0.00     0.012 C 
BRANCH  16  18
HETATM   18  C           1     -33.180  -5.425 -11.337  0.00  0.00     0.002 C 
HETATM   19  C           1     -34.361  -5.375 -10.377  0.00  0.00     0.005 C 
ENDBRANCH  16  18
ENDBRANCH  15  16
BRANCH  15  20
HETATM   20  C           1     -34.864  -2.666 -12.888  0.00  0.00     0.197 C 
HETATM   21  O           1     -35.770  -2.644 -12.026  0.00  0.00    -0.646 OA
HETATM   22  O           1     -34.619  -1.643 -13.562  0.00  0.00    -0.646 OA
ENDBRANCH  15  20
ENDBRANCH   3  15
TORSDOF 9
ENDMDL
MODEL 4
REMARK VINA RESULT:      -6.3      1.713      2.257
REMARK  9 active torsions:
REMARK  status: ('A' for Active; 'I' for Inactive)
REMARK    1  A    between atoms: C_1  and  C_11 
REMARK    2  A    between atoms: C_5  and  C_10 
REMARK    3  A    between atoms: C_10  and  C_21 
REMARK    4  A    between atoms: C_11  and  C_20 
REMARK    5  A    between atoms: N_15  and  C_20 
REMARK       I    between atoms: N_15  and  C_16 
REMARK    6  A    between atoms: C_16  and  C_17 
REMARK    7  A    between atoms: C_17  and  C_21 
REMARK    8  A    between atoms: C_17  and  N_22 
REMARK    9  A    between atoms: C_19  and  C_20 
ROOT
HETATM    1  H           1     -28.014  -6.479 -19.079  0.00  0.00     0.163 HD
HETATM    2  O           1     -25.605  -6.134 -17.101  0.00  0.00    -0.271 OA
HETATM    3  N           1     -27.540  -6.326 -18.199  0.00  0.00    -0.344 N 
HETATM    4  C           1     -26.171  -6.318 -18.152  0.00  0.00     0.249 C 
ENDROOT
BRANCH   4   5
HETATM    5  C           1     -25.371  -6.540 -19.411  0.00  0.00     0.275 C 
BRANCH   5   6
HETATM    6  C           1     -26.317  -6.701 -20.593  0.00  0.00     0.053 C 
BRANCH   6   7
HETATM    7  C           1     -26.312  -8.152 -21.055  0.00  0.00     0.115 C 
BRANCH   7   8
HETATM    8  C           1     -27.702  -8.725 -20.931  0.00  0.00     0.172 C 
HETATM    9  O           1     -28.517  -8.221 -20.129  0.00  0.00    -0.648 OA
HETATM   10  O           1     -28.038  -9.704 -21.632  0.00  0.00    -0.648 OA
ENDBRANCH   7   8
ENDBRANCH   6   7
ENDBRANCH   5   6
BRANCH   5  11
HETATM   11  N           1     -24.541  -7.780 -19.263  0.00  0.00    -0.066 N 
HETATM   12  H           1     -24.064  -7.990 -20.169  0.00  0.00     0.275 HD
HETATM   13  H           1     -25.156  -8.584 -19.000  0.00  0.00     0.275 HD
HETATM   14  H           1     -23.824  -7.633 -18.517  0.00  0.00     0.275 HD
ENDBRANCH   5  11
ENDBRANCH   4   5
BRANCH   3  15
HETATM   15  C           1     -28.308  -6.113 -16.988  0.00  0.00     0.189 C 
BRANCH  15  16
HETATM   16  C           1     -29.672  -5.537 -17.347  0.00  0.00     0.014 C 
HETATM   17  C           1     -30.435  -5.207 -16.071  0.00  0.00     0.012 C 
BRANCH  16  18
HETATM   18  C           1     -29.485  -4.268 -18.170  0.00  0.00     0.002 C 
HETATM   19  C           1     -28.876  -3.180 -17.296  0.00  0.00     0.005 C 
ENDBRANCH  16  18
ENDBRANCH  15  16
BRANCH  15  20
HETATM   20  C           1     -28.490  -7.428 -16.271  0.00  0.00     0.197 C 
HETATM   21  O           1     -29.190  -8.328 -16.786  0.00  0.00    -0.646 OA
HETATM   22  O           1     -27.945  -7.617 -15.162  0.00  0.00    -0.646 OA
ENDBRANCH  15  20
ENDBRANCH   3  15
TORSDOF 9
ENDMDL
MODEL 5
REMARK VINA RESULT:      -6.2      2.401      3.402
REMARK  9 active torsions:
REMARK  status: ('A' for Active; 'I' for Inactive)
REMARK    1  A    between atoms: C_1  and  C_11 
REMARK    2  A    between atoms: C_5  and  C_10 
REMARK    3  A    between atoms: C_10  and  C_21 
REMARK    4  A    between atoms: C_11  and  C_20 
REMARK    5  A    between atoms: N_15  and  C_20 
REMARK       I    between atoms: N_15  and  C_16 
REMARK    6  A    between atoms: C_16  and  C_17 
REMARK    7  A    between atoms: C_17  and  C_21 
REMARK    8  A    between atoms: C_17  and  N_22 
REMARK    9  A    between atoms: C_19  and  C_20 
ROOT
HETATM    1  H           1     -27.471  -6.910 -18.664  0.00  0.00     0.163 HD
HETATM    2  O           1     -24.453  -6.385 -17.993  0.00  0.00    -0.271 OA
HETATM    3  N           1     -26.671  -6.604 -18.125  0.00  0.00    -0.344 N 
HETATM    4  C           1     -25.409  -6.750 -18.635  0.00  0.00     0.249 C 
ENDROOT
BRANCH   4   5
HETATM    5  C           1     -25.211  -7.368 -19.997  0.00  0.00     0.275 C 
BRANCH   5   6
HETATM    6  C           1     -23.773  -7.847 -20.135  0.00  0.00     0.053 C 
BRANCH   6   7
HETATM    7  C           1     -23.530  -8.325 -21.560  0.00  0.00     0.115 C 
BRANCH   7   8
HETATM    8  C           1     -22.085  -8.733 -21.716  0.00  0.00     0.172 C 
HETATM    9  O           1     -21.297  -8.622 -20.753  0.00  0.00    -0.648 OA
HETATM   10  O           1     -21.678  -9.183 -22.808  0.00  0.00    -0.648 OA
ENDBRANCH   7   8
ENDBRANCH   6   7
ENDBRANCH   5   6
BRANCH   5  11
HETATM   11  N           1     -25.499  -6.344 -21.055  0.00  0.00    -0.066 N 
HETATM   12  H           1     -25.306  -6.752 -21.997  0.00  0.00     0.275 HD
HETATM   13  H           1     -24.890  -5.507 -20.908  0.00  0.00     0.275 HD
HETATM   14  H           1     -26.502  -6.057 -20.999  0.00  0.00     0.275 HD
ENDBRANCH   5  11
ENDBRANCH   4   5
BRANCH   3  15
HETATM   15  C           1     -26.860  -6.011 -16.816  0.00  0.00     0.189 C 
BRANCH  15  16
HETATM   16  C           1     -28.252  -5.396 -16.735  0.00  0.00     0.014 C 
HETATM   17  C           1     -28.141  -3.879 -16.816  0.00  0.00     0.012 C 
BRANCH  16  18
HETATM   18  C           1     -29.100  -5.906 -17.893  0.00  0.00     0.002 C 
HETATM   19  C           1     -30.485  -6.283 -17.382  0.00  0.00     0.005 C 
ENDBRANCH  16  18
ENDBRANCH  15  16
BRANCH  15  20
HETATM   20  C           1     -26.718  -7.076 -15.757  0.00  0.00     0.197 C 
HETATM   21  O           1     -27.736  -7.537 -15.194  0.00  0.00    -0.646 OA
HETATM   22  O           1     -25.585  -7.497 -15.440  0.00  0.00    -0.646 OA
ENDBRANCH  15  20
ENDBRANCH   3  15
TORSDOF 9
ENDMDL
MODEL 6
REMARK VINA RESULT:      -6.1      9.350     12.044
REMARK  9 active torsions:
REMARK  status: ('A' for Active; 'I' for Inactive)
REMARK    1  A    between atoms: C_1  and  C_11 
REMARK    2  A    between atoms: C_5  and  C_10 
REMARK    3  A    between atoms: C_10  and  C_21 
REMARK    4  A    between atoms: C_11  and  C_20 
REMARK    5  A    between atoms: N_15  and  C_20 
REMARK       I    between atoms: N_15  and  C_16 
REMARK    6  A    between atoms: C_16  and  C_17 
REMARK    7  A    between atoms: C_17  and  C_21 
REMARK    8  A    between atoms: C_17  and  N_22 
REMARK    9  A    between atoms: C_19  and  C_20 
ROOT
HETATM    1  H           1     -34.985  -0.136 -12.295  0.00  0.00     0.163 HD
HETATM    2  O           1     -37.885  -0.791 -13.294  0.00  0.00    -0.271 OA
HETATM    3  N           1     -35.931  -0.493 -12.255  0.00  0.00    -0.344 N 
HETATM    4  C           1     -36.756  -0.365 -13.340  0.00  0.00     0.249 C 
ENDROOT
BRANCH   4   5
HETATM    5  C           1     -36.256   0.308 -14.595  0.00  0.00     0.275 C 
BRANCH   5   6
HETATM    6  C           1     -36.583  -0.558 -15.803  0.00  0.00     0.053 C 
BRANCH   6   7
HETATM    7  C           1     -35.349  -0.688 -16.685  0.00  0.00     0.115 C 
BRANCH   7   8
HETATM    8  C           1     -34.714  -2.040 -16.468  0.00  0.00     0.172 C 
HETATM    9  O           1     -34.000  -2.546 -17.361  0.00  0.00    -0.648 OA
HETATM   10  O           1     -34.902  -2.654 -15.396  0.00  0.00    -0.648 OA
ENDBRANCH   7   8
ENDBRANCH   6   7
ENDBRANCH   5   6
BRANCH   5  11
HETATM   11  N           1     -34.770   0.495 -14.502  0.00  0.00    -0.066 N 
HETATM   12  H           1     -34.471   0.419 -13.504  0.00  0.00     0.275 HD
HETATM   13  H           1     -34.512   1.439 -14.871  0.00  0.00     0.275 HD
HETATM   14  H           1     -34.290  -0.242 -15.067  0.00  0.00     0.275 HD
ENDBRANCH   5  11
ENDBRANCH   4   5
BRANCH   3  15
HETATM   15  C           1     -36.412  -1.140 -11.051  0.00  0.00     0.189 C 
BRANCH  15  16
HETATM   16  C           1     -35.349  -2.099 -10.531  0.00  0.00     0.014 C 
HETATM   17  C           1     -35.795  -3.534 -10.780  0.00  0.00     0.012 C 
BRANCH  16  18
HETATM   18  C           1     -34.035  -1.842 -11.258  0.00  0.00     0.002 C 
HETATM   19  C           1     -33.191  -3.109 -11.248  0.00  0.00     0.005 C 
ENDBRANCH  16  18
ENDBRANCH  15  16
BRANCH  15  20
HETATM   20  C           1     -36.703  -0.095 -10.002  0.00  0.00     0.197 C 
HETATM   21  O           1     -37.533   0.811 -10.236  0.00  0.00    -0.646 OA
HETATM   22  O           1     -36.115  -0.135  -8.900  0.00  0.00    -0.646 OA
ENDBRANCH  15  20
ENDBRANCH   3  15
TORSDOF 9
ENDMDL
MODEL 7
REMARK VINA RESULT:      -6.0     12.574     14.478
REMARK  9 active torsions:
REMARK  status: ('A' for Active; 'I' for Inactive)
REMARK    1  A    between atoms: C_1  and  C_11 
REMARK    2  A    between atoms: C_5  and  C_10 
REMARK    3  A    between atoms: C_10  and  C_21 
REMARK    4  A    between atoms: C_11  and  C_20 
REMARK    5  A    between atoms: N_15  and  C_20 
REMARK       I    between atoms: N_15  and  C_16 
REMARK    6  A    between atoms: C_16  and  C_17 
REMARK    7  A    between atoms: C_17  and  C_21 
REMARK    8  A    between atoms: C_17  and  N_22 
REMARK    9  A    between atoms: C_19  and  C_20 
ROOT
HETATM    1  H           1     -22.662  -6.369  -5.466  0.00  0.00     0.163 HD
HETATM    2  O           1     -19.998  -5.004  -6.400  0.00  0.00    -0.271 OA
HETATM    3  N           1     -21.666  -6.199  -5.521  0.00  0.00    -0.344 N 
HETATM    4  C           1     -21.186  -5.208  -6.335  0.00  0.00     0.249 C 
ENDROOT
BRANCH   4   5
HETATM    5  C           1     -22.141  -4.372  -7.151  0.00  0.00     0.275 C 
BRANCH   5   6
HETATM    6  C           1     -22.229  -4.933  -8.563  0.00  0.00     0.053 C 
BRANCH   6   7
HETATM    7  C           1     -22.519  -3.804  -9.542  0.00  0.00     0.115 C 
BRANCH   7   8
HETATM    8  C           1     -23.923  -3.946 -10.075  0.00  0.00     0.172 C 
HETATM    9  O           1     -24.511  -2.955 -10.559  0.00  0.00    -0.648 OA
HETATM   10  O           1     -24.498  -5.055 -10.034  0.00  0.00    -0.648 OA
ENDBRANCH   7   8
ENDBRANCH   6   7
ENDBRANCH   5   6
BRANCH   5  11
HETATM   11  N           1     -21.644  -2.958  -7.205  0.00  0.00    -0.066 N 
HETATM   12  H           1     -22.213  -2.415  -7.893  0.00  0.00     0.275 HD
HETATM   13  H           1     -20.641  -2.951  -7.502  0.00  0.00     0.275 HD
HETATM   14  H           1     -21.729  -2.522  -6.260  0.00  0.00     0.275 HD
ENDBRANCH   5  11
ENDBRANCH   4   5
BRANCH   3  15
HETATM   15  C           1     -20.749  -7.002  -4.737  0.00  0.00     0.189 C 
BRANCH  15  16
HETATM   16  C           1     -21.425  -7.422  -3.438  0.00  0.00     0.014 C 
HETATM   17  C           1     -20.436  -8.200  -2.580  0.00  0.00     0.012 C 
BRANCH  16  18
HETATM   18  C           1     -21.886  -6.181  -2.683  0.00  0.00     0.002 C 
HETATM   19  C           1     -22.294  -6.569  -1.267  0.00  0.00     0.005 C 
ENDBRANCH  16  18
ENDBRANCH  15  16
BRANCH  15  20
HETATM   20  C           1     -20.361  -8.231  -5.521  0.00  0.00     0.197 C 
HETATM   21  O           1     -19.164  -8.422  -5.830  0.00  0.00    -0.646 OA
HETATM   22  O           1     -21.234  -9.057  -5.864  0.00  0.00    -0.646 OA
ENDBRANCH  15  20
ENDBRANCH   3  15
TORSDOF 9
ENDMDL
MODEL 8
REMARK VINA RESULT:      -5.9      9.981     13.475
REMARK  9 active torsions:
REMARK  status: ('A' for Active; 'I' for Inactive)
REMARK    1  A    between atoms: C_1  and  C_11 
REMARK    2  A    between atoms: C_5  and  C_10 
REMARK    3  A    between atoms: C_10  and  C_21 
REMARK    4  A    between atoms: C_11  and  C_20 
REMARK    5  A    between atoms: N_15  and  C_20 
REMARK       I    between atoms: N_15  and  C_16 
REMARK    6  A    between atoms: C_16  and  C_17 
REMARK    7  A    between atoms: C_17  and  C_21 
REMARK    8  A    between atoms: C_17  and  N_22 
REMARK    9  A    between atoms: C_19  and  C_20 
ROOT
HETATM    1  H           1     -36.366  -2.599 -11.744  0.00  0.00     0.163 HD
HETATM    2  O           1     -34.749   0.070 -12.059  0.00  0.00    -0.271 OA
HETATM    3  N           1     -35.602  -1.993 -12.015  0.00  0.00    -0.344 N 
HETATM    4  C           1     -35.661  -0.654 -11.737  0.00  0.00     0.249 C 
ENDROOT
BRANCH   4   5
HETATM    5  C           1     -36.864  -0.081 -11.029  0.00  0.00     0.275 C 
BRANCH   5   6
HETATM    6  C           1     -37.087  -0.827  -9.721  0.00  0.00     0.053 C 
BRANCH   6   7
HETATM    7  C           1     -37.783   0.090  -8.725  0.00  0.00     0.115 C 
BRANCH   7   8
HETATM    8  C           1     -36.750   0.787  -7.874  0.00  0.00     0.172 C 
HETATM    9  O           1     -35.562   0.399  -7.889  0.00  0.00    -0.648 OA
HETATM   10  O           1     -37.082   1.754  -7.155  0.00  0.00    -0.648 OA
ENDBRANCH   7   8
ENDBRANCH   6   7
ENDBRANCH   5   6
BRANCH   5  11
HETATM   11  N           1     -38.074  -0.231 -11.902  0.00  0.00    -0.066 N 
HETATM   12  H           1     -37.793  -0.149 -12.905  0.00  0.00     0.275 HD
HETATM   13  H           1     -38.765   0.520 -11.673  0.00  0.00     0.275 HD
HETATM   14  H           1     -38.510  -1.166 -11.737  0.00  0.00     0.275 HD
ENDBRANCH   5  11
ENDBRANCH   4   5
BRANCH   3  15
HETATM   15  C           1     -34.446  -2.543 -12.695  0.00  0.00     0.189 C 
BRANCH  15  16
HETATM   16  C           1     -34.131  -3.921 -12.127  0.00  0.00     0.014 C 
HETATM   17  C           1     -32.673  -3.967 -11.689  0.00  0.00     0.012 C 
BRANCH  16  18
HETATM   18  C           1     -35.031  -4.193 -10.928  0.00  0.00     0.002 C 
HETATM   19  C           1     -34.666  -5.538 -10.313  0.00  0.00     0.005 C 
ENDBRANCH  16  18
ENDBRANCH  15  16
BRANCH  15  20
HETATM   20  C           1     -34.741  -2.662 -14.170  0.00  0.00     0.197 C 
HETATM   21  O           1     -35.292  -1.717 -14.775  0.00  0.00    -0.646 OA
HETATM   22  O           1     -34.436  -3.706 -14.786  0.00  0.00    -0.646 OA
ENDBRANCH  15  20
ENDBRANCH   3  15
TORSDOF 9
ENDMDL
MODEL 9
REMARK VINA RESULT:      -5.9      9.975     11.948
REMARK  9 active torsions:
REMARK  status: ('A' for Active; 'I' for Inactive)
REMARK    1  A    between atoms: C_1  and  C_11 
REMARK    2  A    between atoms: C_5  and  C_10 
REMARK    3  A    between atoms: C_10  and  C_21 
REMARK    4  A    between atoms: C_11  and  C_20 
REMARK    5  A    between atoms: N_15  and  C_20 
REMARK       I    between atoms: N_15  and  C_16 
REMARK    6  A    between atoms: C_16  and  C_17 
REMARK    7  A    between atoms: C_17  and  C_21 
REMARK    8  A    between atoms: C_17  and  N_22 
REMARK    9  A    between atoms: C_19  and  C_20 
ROOT
HETATM    1  H           1     -36.355  -3.089 -11.859  0.00  0.00     0.163 HD
HETATM    2  O           1     -34.670  -1.363  -9.855  0.00  0.00    -0.271 OA
HETATM    3  N           1     -35.592  -2.854 -11.237  0.00  0.00    -0.344 N 
HETATM    4  C           1     -35.580  -1.644 -10.597  0.00  0.00     0.249 C 
ENDROOT
BRANCH   4   5
HETATM    5  C           1     -36.703  -0.661 -10.820  0.00  0.00     0.275 C 
BRANCH   5   6
HETATM    6  C           1     -36.786  -0.309 -12.298  0.00  0.00     0.053 C 
BRANCH   6   7
HETATM    7  C           1     -35.457   0.273 -12.758  0.00  0.00     0.115 C 
BRANCH   7   8
HETATM    8  C           1     -35.222  -0.087 -14.205  0.00  0.00     0.172 C 
HETATM    9  O           1     -34.402   0.566 -14.887  0.00  0.00    -0.648 OA
HETATM   10  O           1     -35.846  -1.039 -14.721  0.00  0.00    -0.648 OA
ENDBRANCH   7   8
ENDBRANCH   6   7
ENDBRANCH   5   6
BRANCH   5  11
HETATM   11  N           1     -36.441   0.584 -10.024  0.00  0.00    -0.066 N 
HETATM   12  H           1     -36.492   1.417 -10.654  0.00  0.00     0.275 HD
HETATM   13  H           1     -35.489   0.531  -9.595  0.00  0.00     0.275 HD
HETATM   14  H           1     -37.158   0.673  -9.269  0.00  0.00     0.275 HD
ENDBRANCH   5  11
ENDBRANCH   4   5
BRANCH   3  15
HETATM   15  C           1     -34.513  -3.798 -11.024  0.00  0.00     0.189 C 
BRANCH  15  16
HETATM   16  C           1     -35.077  -5.212 -10.980  0.00  0.00     0.014 C 
HETATM   17  C           1     -35.060  -5.808 -12.381  0.00  0.00     0.012 C 
BRANCH  16  18
HETATM   18  C           1     -34.225  -6.070 -10.053  0.00  0.00     0.002 C 
HETATM   19  C           1     -34.867  -7.441  -9.895  0.00  0.00     0.005 C 
ENDBRANCH  16  18
ENDBRANCH  15  16
BRANCH  15  20
HETATM   20  C           1     -33.518  -3.688 -12.153  0.00  0.00     0.197 C 
HETATM   21  O           1     -32.330  -4.036 -11.974  0.00  0.00    -0.646 OA
HETATM   22  O           1     -33.880  -3.249 -13.265  0.00  0.00    -0.646 OA
ENDBRANCH  15  20
ENDBRANCH   3  15
TORSDOF 9
ENDMDL
