MODEL 1
REMARK VINA RESULT:      -5.7      0.000      0.000
REMARK  8 active torsions:
REMARK  status: ('A' for Active; 'I' for Inactive)
REMARK    1  A    between atoms: C_1  and  C_14 
REMARK    2  A    between atoms: C_1  and  C_12 
REMARK    3  A    between atoms: C_1  and  N_5 
REMARK       I    between atoms: N_5  and  C_15 
REMARK    4  A    between atoms: N_6  and  C_19 
REMARK    5  A    between atoms: C_14  and  C_18 
REMARK    6  A    between atoms: C_15  and  C_19 
REMARK    7  A    between atoms: C_19  and  C_20 
REMARK    8  A    between atoms: C_20  and  O_21 
ROOT
HETATM    1  O           1     -21.224  -3.413  -7.085  0.00  0.00    -0.271 OA
HETATM    2  N           1     -22.814  -4.744  -7.913  0.00  0.00    -0.345 N 
HETATM    3  C           1     -21.895  -4.409  -6.955  0.00  0.00     0.251 C 
HETATM    4  H           1     -23.376  -5.578  -7.804  0.00  0.00     0.163 HD
ENDROOT
BRANCH   3   5
HETATM    5  C           1     -21.721  -5.284  -5.738  0.00  0.00     0.302 C 
BRANCH   5   6
HETATM    6  N           1     -23.024  -5.951  -5.412  0.00  0.00    -0.064 N 
HETATM    7  H           1     -23.170  -6.764  -6.053  0.00  0.00     0.275 HD
HETATM    8  H           1     -23.004  -6.288  -4.423  0.00  0.00     0.275 HD
HETATM    9  H           1     -23.806  -5.268  -5.533  0.00  0.00     0.275 HD
ENDBRANCH   5   6
BRANCH   5  10
HETATM   10  C           1     -20.666  -6.345  -6.022  0.00  0.00     0.153 C 
HETATM   11  C           1     -21.210  -7.715  -5.639  0.00  0.00     0.042 C 
BRANCH  10  12
HETATM   12  O           1     -20.347  -6.334  -7.387  0.00  0.00    -0.393 OA
HETATM   13  H           1     -20.977  -5.778  -7.812  0.00  0.00     0.210 HD
ENDBRANCH  10  12
ENDBRANCH   5  10
ENDBRANCH   3   5
BRANCH   2  14
HETATM   14  C           1     -22.981  -3.905  -9.082  0.00  0.00     0.185 C 
BRANCH  14  15
HETATM   15  C           1     -22.204  -4.499 -10.250  0.00  0.00     0.040 C 
BRANCH  15  16
HETATM   16  C           1     -20.875  -3.772 -10.399  0.00  0.00    -0.020 C 
HETATM   17  C           1     -20.920  -2.882 -11.635  0.00  0.00     0.009 C 
HETATM   18  C           1     -19.753  -4.791 -10.548  0.00  0.00     0.009 C 
ENDBRANCH  15  16
ENDBRANCH  14  15
BRANCH  14  19
HETATM   19  C           1     -24.446  -3.829  -9.440  0.00  0.00     0.196 C 
HETATM   20  O           1     -25.040  -2.730  -9.414  0.00  0.00    -0.646 OA
HETATM   21  O           1     -25.065  -4.866  -9.763  0.00  0.00    -0.646 OA
ENDBRANCH  14  19
ENDBRANCH   2  14
TORSDOF 8
ENDMDL
MODEL 2
REMARK VINA RESULT:      -5.3      2.689      6.499
REMARK  8 active torsions:
REMARK  status: ('A' for Active; 'I' for Inactive)
REMARK    1  A    between atoms: C_1  and  C_14 
REMARK    2  A    between atoms: C_1  and  C_12 
REMARK    3  A    between atoms: C_1  and  N_5 
REMARK       I    between atoms: N_5  and  C_15 
REMARK    4  A    between atoms: N_6  and  C_19 
REMARK    5  A    between atoms: C_14  and  C_18 
REMARK    6  A    between atoms: C_15  and  C_19 
REMARK    7  A    between atoms: C_19  and  C_20 
REMARK    8  A    between atoms: C_20  and  O_21 
ROOT
HETATM    1  O           1     -20.451  -4.857  -5.647  0.00  0.00    -0.271 OA
HETATM    2  N           1     -20.970  -6.962  -6.182  0.00  0.00    -0.345 N 
HETATM    3  C           1     -20.928  -5.621  -6.452  0.00  0.00     0.251 C 
HETATM    4  H           1     -21.370  -7.601  -6.856  0.00  0.00     0.163 HD
ENDROOT
BRANCH   3   5
HETATM    5  C           1     -21.478  -5.096  -7.756  0.00  0.00     0.302 C 
BRANCH   5   6
HETATM    6  N           1     -22.272  -3.850  -7.498  0.00  0.00    -0.064 N 
HETATM    7  H           1     -23.193  -4.105  -7.075  0.00  0.00     0.275 HD
HETATM    8  H           1     -21.746  -3.233  -6.838  0.00  0.00     0.275 HD
HETATM    9  H           1     -22.431  -3.345  -8.398  0.00  0.00     0.275 HD
ENDBRANCH   5   6
BRANCH   5  10
HETATM   10  C           1     -20.326  -4.777  -8.700  0.00  0.00     0.153 C 
HETATM   11  C           1     -20.884  -4.304 -10.037  0.00  0.00     0.042 C 
BRANCH  10  12
HETATM   12  O           1     -19.529  -3.767  -8.144  0.00  0.00    -0.393 OA
HETATM   13  H           1     -20.019  -3.393  -7.431  0.00  0.00     0.210 HD
ENDBRANCH  10  12
ENDBRANCH   5  10
ENDBRANCH   3   5
BRANCH   2  14
HETATM   14  C           1     -20.443  -7.465  -4.929  0.00  0.00     0.185 C 
BRANCH  14  15
HETATM   15  C           1     -21.567  -7.561  -3.906  0.00  0.00     0.040 C 
BRANCH  15  16
HETATM   16  C           1     -21.096  -6.988  -2.576  0.00  0.00    -0.020 C 
HETATM   17  C           1     -20.742  -8.128  -1.630  0.00  0.00     0.009 C 
HETATM   18  C           1     -22.208  -6.147  -1.964  0.00  0.00     0.009 C 
ENDBRANCH  15  16
ENDBRANCH  14  15
BRANCH  14  19
HETATM   19  C           1     -19.847  -8.835  -5.150  0.00  0.00     0.196 C 
HETATM   20  O           1     -18.707  -9.099  -4.712  0.00  0.00    -0.646 OA
HETATM   21  O           1     -20.493  -9.704  -5.773  0.00  0.00    -0.646 OA
ENDBRANCH  14  19
ENDBRANCH   2  14
TORSDOF 8
ENDMDL
MODEL 3
REMARK VINA RESULT:      -5.2      1.782      5.802
REMARK  8 active torsions:
REMARK  status: ('A' for Active; 'I' for Inactive)
REMARK    1  A    between atoms: C_1  and  C_14 
REMARK    2  A    between atoms: C_1  and  C_12 
REMARK    3  A    between atoms: C_1  and  N_5 
REMARK       I    between atoms: N_5  and  C_15 
REMARK    4  A    between atoms: N_6  and  C_19 
REMARK    5  A    between atoms: C_14  and  C_18 
REMARK    6  A    between atoms: C_15  and  C_19 
REMARK    7  A    between atoms: C_19  and  C_20 
REMARK    8  A    between atoms: C_20  and  O_21 
ROOT
HETATM    1  O           1     -21.704  -3.349  -7.330  0.00  0.00    -0.271 OA
HETATM    2  N           1     -22.311  -5.451  -6.887  0.00  0.00    -0.345 N 
HETATM    3  C           1     -22.337  -4.323  -7.661  0.00  0.00     0.251 C 
HETATM    4  H           1     -22.841  -6.267  -7.164  0.00  0.00     0.163 HD
ENDROOT
BRANCH   3   5
HETATM    5  C           1     -23.157  -4.296  -8.928  0.00  0.00     0.302 C 
BRANCH   5   6
HETATM    6  N           1     -24.469  -3.620  -8.658  0.00  0.00    -0.064 N 
HETATM    7  H           1     -25.239  -4.158  -9.116  0.00  0.00     0.275 HD
HETATM    8  H           1     -24.635  -3.584  -7.627  0.00  0.00     0.275 HD
HETATM    9  H           1     -24.447  -2.649  -9.043  0.00  0.00     0.275 HD
ENDBRANCH   5   6
BRANCH   5  10
HETATM   10  C           1     -22.402  -3.526 -10.004  0.00  0.00     0.153 C 
HETATM   11  C           1     -21.431  -4.463 -10.710  0.00  0.00     0.042 C 
BRANCH  10  12
HETATM   12  O           1     -23.312  -3.008 -10.936  0.00  0.00    -0.393 OA
HETATM   13  H           1     -24.165  -3.327 -10.693  0.00  0.00     0.210 HD
ENDBRANCH  10  12
ENDBRANCH   5  10
ENDBRANCH   3   5
BRANCH   2  14
HETATM   14  C           1     -21.523  -5.478  -5.670  0.00  0.00     0.185 C 
BRANCH  14  15
HETATM   15  C           1     -22.044  -6.577  -4.753  0.00  0.00     0.040 C 
BRANCH  15  16
HETATM   16  C           1     -21.253  -6.571  -3.452  0.00  0.00    -0.020 C 
HETATM   17  C           1     -20.724  -7.972  -3.173  0.00  0.00     0.009 C 
HETATM   18  C           1     -22.159  -6.134  -2.309  0.00  0.00     0.009 C 
ENDBRANCH  15  16
ENDBRANCH  14  15
BRANCH  14  19
HETATM   19  C           1     -20.079  -5.751  -6.013  0.00  0.00     0.196 C 
HETATM   20  O           1     -19.224  -4.849  -5.883  0.00  0.00    -0.646 OA
HETATM   21  O           1     -19.738  -6.880  -6.427  0.00  0.00    -0.646 OA
ENDBRANCH  14  19
ENDBRANCH   2  14
TORSDOF 8
ENDMDL
MODEL 4
REMARK VINA RESULT:      -5.0      1.919      5.338
REMARK  8 active torsions:
REMARK  status: ('A' for Active; 'I' for Inactive)
REMARK    1  A    between atoms: C_1  and  C_14 
REMARK    2  A    between atoms: C_1  and  C_12 
REMARK    3  A    between atoms: C_1  and  N_5 
REMARK       I    between atoms: N_5  and  C_15 
REMARK    4  A    between atoms: N_6  and  C_19 
REMARK    5  A    between atoms: C_14  and  C_18 
REMARK    6  A    between atoms: C_15  and  C_19 
REMARK    7  A    between atoms: C_19  and  C_20 
REMARK    8  A    between atoms: C_20  and  O_21 
ROOT
HETATM    1  O           1     -22.742  -3.478  -8.341  0.00  0.00    -0.271 OA
HETATM    2  N           1     -21.543  -5.359  -8.415  0.00  0.00    -0.345 N 
HETATM    3  C           1     -22.541  -4.543  -8.873  0.00  0.00     0.251 C 
HETATM    4  H           1     -21.375  -6.252  -8.860  0.00  0.00     0.163 HD
ENDROOT
BRANCH   3   5
HETATM    5  C           1     -23.391  -4.975 -10.043  0.00  0.00     0.302 C 
BRANCH   5   6
HETATM    6  N           1     -24.831  -4.667  -9.754  0.00  0.00    -0.064 N 
HETATM    7  H           1     -24.888  -3.896  -9.052  0.00  0.00     0.275 HD
HETATM    8  H           1     -25.306  -4.370 -10.636  0.00  0.00     0.275 HD
HETATM    9  H           1     -25.300  -5.519  -9.374  0.00  0.00     0.275 HD
ENDBRANCH   5   6
BRANCH   5  10
HETATM   10  C           1     -22.953  -4.223 -11.293  0.00  0.00     0.153 C 
HETATM   11  C           1     -21.457  -4.416 -11.502  0.00  0.00     0.042 C 
BRANCH  10  12
HETATM   12  O           1     -23.648  -4.719 -12.405  0.00  0.00    -0.393 OA
HETATM   13  H           1     -23.974  -5.570 -12.168  0.00  0.00     0.210 HD
ENDBRANCH  10  12
ENDBRANCH   5  10
ENDBRANCH   3   5
BRANCH   2  14
HETATM   14  C           1     -20.726  -4.945  -7.291  0.00  0.00     0.185 C 
BRANCH  14  15
HETATM   15  C           1     -20.311  -6.170  -6.486  0.00  0.00     0.040 C 
BRANCH  15  16
HETATM   16  C           1     -21.451  -6.583  -5.564  0.00  0.00    -0.020 C 
HETATM   17  C           1     -21.256  -5.940  -4.197  0.00  0.00     0.009 C 
HETATM   18  C           1     -21.459  -8.099  -5.415  0.00  0.00     0.009 C 
ENDBRANCH  15  16
ENDBRANCH  14  15
BRANCH  14  19
HETATM   19  C           1     -19.494  -4.237  -7.799  0.00  0.00     0.196 C 
HETATM   20  O           1     -18.378  -4.480  -7.291  0.00  0.00    -0.646 OA
HETATM   21  O           1     -19.590  -3.406  -8.728  0.00  0.00    -0.646 OA
ENDBRANCH  14  19
ENDBRANCH   2  14
TORSDOF 8
ENDMDL
MODEL 5
REMARK VINA RESULT:      -4.9      4.474      8.468
REMARK  8 active torsions:
REMARK  status: ('A' for Active; 'I' for Inactive)
REMARK    1  A    between atoms: C_1  and  C_14 
REMARK    2  A    between atoms: C_1  and  C_12 
REMARK    3  A    between atoms: C_1  and  N_5 
REMARK       I    between atoms: N_5  and  C_15 
REMARK    4  A    between atoms: N_6  and  C_19 
REMARK    5  A    between atoms: C_14  and  C_18 
REMARK    6  A    between atoms: C_15  and  C_19 
REMARK    7  A    between atoms: C_19  and  C_20 
REMARK    8  A    between atoms: C_20  and  O_21 
ROOT
HETATM    1  O           1     -21.190  -6.302  -3.102  0.00  0.00    -0.271 OA
HETATM    2  N           1     -21.160  -8.528  -3.265  0.00  0.00    -0.345 N 
HETATM    3  C           1     -21.450  -7.284  -3.755  0.00  0.00     0.251 C 
HETATM    4  H           1     -21.379  -9.351  -3.811  0.00  0.00     0.163 HD
ENDROOT
BRANCH   3   5
HETATM    5  C           1     -22.095  -7.139  -5.112  0.00  0.00     0.302 C 
BRANCH   5   6
HETATM    6  N           1     -23.067  -5.997  -5.084  0.00  0.00    -0.064 N 
HETATM    7  H           1     -23.084  -5.531  -6.019  0.00  0.00     0.275 HD
HETATM    8  H           1     -24.021  -6.359  -4.859  0.00  0.00     0.275 HD
HETATM    9  H           1     -22.774  -5.308  -4.357  0.00  0.00     0.275 HD
ENDBRANCH   5   6
BRANCH   5  10
HETATM   10  C           1     -21.021  -6.865  -6.158  0.00  0.00     0.153 C 
HETATM   11  C           1     -20.817  -5.361  -6.291  0.00  0.00     0.042 C 
BRANCH  10  12
HETATM   12  O           1     -19.818  -7.466  -5.763  0.00  0.00    -0.393 OA
HETATM   13  H           1     -20.026  -8.065  -5.066  0.00  0.00     0.210 HD
ENDBRANCH  10  12
ENDBRANCH   5  10
ENDBRANCH   3   5
BRANCH   2  14
HETATM   14  C           1     -20.542  -8.668  -1.961  0.00  0.00     0.185 C 
BRANCH  14  15
HETATM   15  C           1     -21.564  -9.207  -0.969  0.00  0.00     0.040 C 
BRANCH  15  16
HETATM   16  C           1     -21.732  -8.218   0.177  0.00  0.00    -0.020 C 
HETATM   17  C           1     -20.991  -8.734   1.404  0.00  0.00     0.009 C 
HETATM   18  C           1     -23.212  -8.066   0.503  0.00  0.00     0.009 C 
ENDBRANCH  15  16
ENDBRANCH  14  15
BRANCH  14  19
HETATM   19  C           1     -19.380  -9.626  -2.057  0.00  0.00     0.196 C 
HETATM   20  O           1     -18.385  -9.336  -2.755  0.00  0.00    -0.646 OA
HETATM   21  O           1     -19.414 -10.713  -1.439  0.00  0.00    -0.646 OA
ENDBRANCH  14  19
ENDBRANCH   2  14
TORSDOF 8
ENDMDL
MODEL 6
REMARK VINA RESULT:      -4.9      6.169      8.068
REMARK  8 active torsions:
REMARK  status: ('A' for Active; 'I' for Inactive)
REMARK    1  A    between atoms: C_1  and  C_14 
REMARK    2  A    between atoms: C_1  and  C_12 
REMARK    3  A    between atoms: C_1  and  N_5 
REMARK       I    between atoms: N_5  and  C_15 
REMARK    4  A    between atoms: N_6  and  C_19 
REMARK    5  A    between atoms: C_14  and  C_18 
REMARK    6  A    between atoms: C_15  and  C_19 
REMARK    7  A    between atoms: C_19  and  C_20 
REMARK    8  A    between atoms: C_20  and  O_21 
ROOT
HETATM    1  O           1     -22.050 -10.106  -3.889  0.00  0.00    -0.271 OA
HETATM    2  N           1     -20.538  -8.596  -3.241  0.00  0.00    -0.345 N 
HETATM    3  C           1     -20.927  -9.673  -3.990  0.00  0.00     0.251 C 
HETATM    4  H           1     -19.597  -8.234  -3.326  0.00  0.00     0.163 HD
ENDROOT
BRANCH   3   5
HETATM    5  C           1     -19.951 -10.322  -4.941  0.00  0.00     0.302 C 
BRANCH   5   6
HETATM    6  N           1     -20.656 -10.673  -6.218  0.00  0.00    -0.064 N 
HETATM    7  H           1     -20.114 -11.409  -6.725  0.00  0.00     0.275 HD
HETATM    8  H           1     -21.612 -11.034  -5.999  0.00  0.00     0.275 HD
HETATM    9  H           1     -20.733  -9.822  -6.819  0.00  0.00     0.275 HD
ENDBRANCH   5   6
BRANCH   5  10
HETATM   10  C           1     -18.814  -9.354  -5.240  0.00  0.00     0.153 C 
HETATM   11  C           1     -17.758 -10.057  -6.083  0.00  0.00     0.042 C 
BRANCH  10  12
HETATM   12  O           1     -19.312  -8.248  -5.943  0.00  0.00    -0.393 OA
HETATM   13  H           1     -18.607  -7.922  -6.477  0.00  0.00     0.210 HD
ENDBRANCH  10  12
ENDBRANCH   5  10
ENDBRANCH   3   5
BRANCH   2  14
HETATM   14  C           1     -21.475  -7.972  -2.327  0.00  0.00     0.185 C 
BRANCH  14  15
HETATM   15  C           1     -20.856  -7.900  -0.937  0.00  0.00     0.040 C 
BRANCH  15  16
HETATM   16  C           1     -21.899  -8.281   0.105  0.00  0.00    -0.020 C 
HETATM   17  C           1     -21.201  -8.681   1.398  0.00  0.00     0.009 C 
HETATM   18  C           1     -22.726  -9.452  -0.409  0.00  0.00     0.009 C 
ENDBRANCH  15  16
ENDBRANCH  14  15
BRANCH  14  19
HETATM   19  C           1     -21.794  -6.578  -2.809  0.00  0.00     0.196 C 
HETATM   20  O           1     -22.612  -5.871  -2.182  0.00  0.00    -0.646 OA
HETATM   21  O           1     -21.240  -6.129  -3.836  0.00  0.00    -0.646 OA
ENDBRANCH  14  19
ENDBRANCH   2  14
TORSDOF 8
ENDMDL
MODEL 7
REMARK VINA RESULT:      -4.8      5.366      8.936
REMARK  8 active torsions:
REMARK  status: ('A' for Active; 'I' for Inactive)
REMARK    1  A    between atoms: C_1  and  C_14 
REMARK    2  A    between atoms: C_1  and  C_12 
REMARK    3  A    between atoms: C_1  and  N_5 
REMARK       I    between atoms: N_5  and  C_15 
REMARK    4  A    between atoms: N_6  and  C_19 
REMARK    5  A    between atoms: C_14  and  C_18 
REMARK    6  A    between atoms: C_15  and  C_19 
REMARK    7  A    between atoms: C_19  and  C_20 
REMARK    8  A    between atoms: C_20  and  O_21 
ROOT
HETATM    1  O           1     -22.122  -9.552  -3.329  0.00  0.00    -0.271 OA
HETATM    2  N           1     -21.027  -8.309  -1.832  0.00  0.00    -0.345 N 
HETATM    3  C           1     -21.257  -8.737  -3.112  0.00  0.00     0.251 C 
HETATM    4  H           1     -20.302  -7.628  -1.650  0.00  0.00     0.163 HD
ENDROOT
BRANCH   3   5
HETATM    5  C           1     -20.430  -8.192  -4.250  0.00  0.00     0.302 C 
BRANCH   5   6
HETATM    6  N           1     -20.620  -9.054  -5.463  0.00  0.00    -0.064 N 
HETATM    7  H           1     -19.720  -9.118  -5.990  0.00  0.00     0.275 HD
HETATM    8  H           1     -20.917 -10.011  -5.166  0.00  0.00     0.275 HD
HETATM    9  H           1     -21.354  -8.635  -6.077  0.00  0.00     0.275 HD
ENDBRANCH   5   6
BRANCH   5  10
HETATM   10  C           1     -20.875  -6.770  -4.565  0.00  0.00     0.153 C 
HETATM   11  C           1     -21.177  -6.652  -6.053  0.00  0.00     0.042 C 
BRANCH  10  12
HETATM   12  O           1     -22.027  -6.465  -3.829  0.00  0.00    -0.393 OA
HETATM   13  H           1     -22.414  -7.285  -3.572  0.00  0.00     0.210 HD
ENDBRANCH  10  12
ENDBRANCH   5  10
ENDBRANCH   3   5
BRANCH   2  14
HETATM   14  C           1     -21.821  -8.833  -0.739  0.00  0.00     0.185 C 
BRANCH  14  15
HETATM   15  C           1     -20.899  -9.295   0.383  0.00  0.00     0.040 C 
BRANCH  15  16
HETATM   16  C           1     -21.042 -10.799   0.573  0.00  0.00    -0.020 C 
HETATM   17  C           1     -19.886 -11.510  -0.117  0.00  0.00     0.009 C 
HETATM   18  C           1     -22.359 -11.263  -0.035  0.00  0.00     0.009 C 
ENDBRANCH  15  16
ENDBRANCH  14  15
BRANCH  14  19
HETATM   19  C           1     -22.738  -7.751  -0.222  0.00  0.00     0.196 C 
HETATM   20  O           1     -22.769  -6.636  -0.784  0.00  0.00    -0.646 OA
HETATM   21  O           1     -23.467  -7.972   0.770  0.00  0.00    -0.646 OA
ENDBRANCH  14  19
ENDBRANCH   2  14
TORSDOF 8
ENDMDL
MODEL 8
REMARK VINA RESULT:      -4.7      6.285      8.531
REMARK  8 active torsions:
REMARK  status: ('A' for Active; 'I' for Inactive)
REMARK    1  A    between atoms: C_1  and  C_14 
REMARK    2  A    between atoms: C_1  and  C_12 
REMARK    3  A    between atoms: C_1  and  N_5 
REMARK       I    between atoms: N_5  and  C_15 
REMARK    4  A    between atoms: N_6  and  C_19 
REMARK    5  A    between atoms: C_14  and  C_18 
REMARK    6  A    between atoms: C_15  and  C_19 
REMARK    7  A    between atoms: C_19  and  C_20 
REMARK    8  A    between atoms: C_20  and  O_21 
ROOT
HETATM    1  O           1     -21.117 -10.595  -3.071  0.00  0.00    -0.271 OA
HETATM    2  N           1     -20.244  -8.541  -2.994  0.00  0.00    -0.345 N 
HETATM    3  C           1     -20.191  -9.866  -3.335  0.00  0.00     0.251 C 
HETATM    4  H           1     -19.468  -7.931  -3.214  0.00  0.00     0.163 HD
ENDROOT
BRANCH   3   5
HETATM    5  C           1     -18.974 -10.415  -4.039  0.00  0.00     0.302 C 
BRANCH   5   6
HETATM    6  N           1     -18.459  -9.397  -5.012  0.00  0.00    -0.064 N 
HETATM    7  H           1     -19.080  -8.556  -4.999  0.00  0.00     0.275 HD
HETATM    8  H           1     -17.489  -9.117  -4.741  0.00  0.00     0.275 HD
HETATM    9  H           1     -18.449  -9.806  -5.973  0.00  0.00     0.275 HD
ENDBRANCH   5   6
BRANCH   5  10
HETATM   10  C           1     -17.892 -10.728  -3.013  0.00  0.00     0.153 C 
HETATM   11  C           1     -16.834  -9.632  -3.043  0.00  0.00     0.042 C 
BRANCH  10  12
HETATM   12  O           1     -18.462 -10.792  -1.735  0.00  0.00    -0.393 OA
HETATM   13  H           1     -17.754 -10.895  -1.123  0.00  0.00     0.210 HD
ENDBRANCH  10  12
ENDBRANCH   5  10
ENDBRANCH   3   5
BRANCH   2  14
HETATM   14  C           1     -21.412  -8.013  -2.317  0.00  0.00     0.185 C 
BRANCH  14  15
HETATM   15  C           1     -21.094  -7.808  -0.841  0.00  0.00     0.040 C 
BRANCH  15  16
HETATM   16  C           1     -21.887  -8.805  -0.007  0.00  0.00    -0.020 C 
HETATM   17  C           1     -23.180  -8.155   0.468  0.00  0.00     0.009 C 
HETATM   18  C           1     -21.059  -9.229   1.200  0.00  0.00     0.009 C 
ENDBRANCH  15  16
ENDBRANCH  14  15
BRANCH  14  19
HETATM   19  C           1     -21.797  -6.692  -2.936  0.00  0.00     0.196 C 
HETATM   20  O           1     -21.516  -6.456  -4.131  0.00  0.00    -0.646 OA
HETATM   21  O           1     -22.395  -5.832  -2.254  0.00  0.00    -0.646 OA
ENDBRANCH  14  19
ENDBRANCH   2  14
TORSDOF 8
ENDMDL
MODEL 9
REMARK VINA RESULT:      -4.7      4.973      7.086
REMARK  8 active torsions:
REMARK  status: ('A' for Active; 'I' for Inactive)
REMARK    1  A    between atoms: C_1  and  C_14 
REMARK    2  A    between atoms: C_1  and  C_12 
REMARK    3  A    between atoms: C_1  and  N_5 
REMARK       I    between atoms: N_5  and  C_15 
REMARK    4  A    between atoms: N_6  and  C_19 
REMARK    5  A    between atoms: C_14  and  C_18 
REMARK    6  A    between atoms: C_15  and  C_19 
REMARK    7  A    between atoms: C_19  and  C_20 
REMARK    8  A    between atoms: C_20  and  O_21 
ROOT
HETATM    1  O           1     -20.208  -7.979  -1.569  0.00  0.00    -0.271 OA
HETATM    2  N           1     -21.530  -8.593  -3.260  0.00  0.00    -0.345 N 
HETATM    3  C           1     -21.226  -8.520  -1.928  0.00  0.00     0.251 C 
HETATM    4  H           1     -22.383  -9.047  -3.560  0.00  0.00     0.163 HD
ENDROOT
BRANCH   3   5
HETATM    5  C           1     -22.164  -9.117  -0.907  0.00  0.00     0.302 C 
BRANCH   5   6
HETATM    6  N           1     -21.388  -9.996   0.029  0.00  0.00    -0.064 N 
HETATM    7  H           1     -21.834  -9.977   0.975  0.00  0.00     0.275 HD
HETATM    8  H           1     -21.387 -10.976  -0.335  0.00  0.00     0.275 HD
HETATM    9  H           1     -20.406  -9.649   0.101  0.00  0.00     0.275 HD
ENDBRANCH   5   6
BRANCH   5  10
HETATM   10  C           1     -22.831  -7.999  -0.116  0.00  0.00     0.153 C 
HETATM   11  C           1     -22.167  -7.880   1.250  0.00  0.00     0.042 C 
BRANCH  10  12
HETATM   12  O           1     -22.694  -6.789  -0.808  0.00  0.00    -0.393 OA
HETATM   13  H           1     -21.823  -6.774  -1.167  0.00  0.00     0.210 HD
ENDBRANCH  10  12
ENDBRANCH   5  10
ENDBRANCH   3   5
BRANCH   2  14
HETATM   14  C           1     -20.630  -8.021  -4.242  0.00  0.00     0.185 C 
BRANCH  14  15
HETATM   15  C           1     -19.975  -9.139  -5.043  0.00  0.00     0.040 C 
BRANCH  15  16
HETATM   16  C           1     -18.471  -9.122  -4.806  0.00  0.00    -0.020 C 
HETATM   17  C           1     -17.759  -9.694  -6.024  0.00  0.00     0.009 C 
HETATM   18  C           1     -18.142  -9.966  -3.582  0.00  0.00     0.009 C 
ENDBRANCH  15  16
ENDBRANCH  14  15
BRANCH  14  19
HETATM   19  C           1     -21.408  -7.123  -5.173  0.00  0.00     0.196 C 
HETATM   20  O           1     -22.300  -6.374  -4.720  0.00  0.00    -0.646 OA
HETATM   21  O           1     -21.160  -7.130  -6.398  0.00  0.00    -0.646 OA
ENDBRANCH  14  19
ENDBRANCH   2  14
TORSDOF 8
ENDMDL
