MODEL 1
REMARK VINA RESULT:      -6.4      0.000      0.000
REMARK  8 active torsions:
REMARK  status: ('A' for Active; 'I' for Inactive)
REMARK    1  A    between atoms: N_2  and  C_11 
REMARK       I    between atoms: N_2  and  C_14 
REMARK       I    between atoms: N_5  and  C_18 
REMARK    2  A    between atoms: C_6  and  C_18 
REMARK    3  A    between atoms: C_6  and  C_11 
REMARK    4  A    between atoms: O_7  and  C_12 
REMARK    5  A    between atoms: N_9  and  C_13 
REMARK    6  A    between atoms: C_11  and  C_20 
REMARK    7  A    between atoms: C_12  and  C_13 
REMARK    8  A    between atoms: C_13  and  C_14 
ROOT
HETATM    1  N           1     -27.725  -6.509 -19.110  0.00  0.00    -0.344 N 
HETATM    2  O           1     -25.988  -6.169 -17.749  0.00  0.00    -0.271 OA
HETATM    3  C           1     -26.383  -6.507 -18.840  0.00  0.00     0.251 C 
HETATM    4  H           1     -28.057  -6.792 -20.023  0.00  0.00     0.163 HD
ENDROOT
BRANCH   1   5
HETATM    5  C           1     -28.671  -6.104 -18.089  0.00  0.00     0.194 C 
BRANCH   5   6
HETATM    6  C           1     -29.277  -4.757 -18.462  0.00  0.00     0.138 C 
BRANCH   6   7
HETATM    7  C           1     -28.896  -3.729 -17.426  0.00  0.00     0.217 C 
HETATM    8  O           1     -28.104  -4.010 -16.558  0.00  0.00    -0.274 OA
HETATM    9  N           1     -29.449  -2.477 -17.469  0.00  0.00    -0.370 N 
HETATM   10  H           1     -30.112  -2.241 -18.196  0.00  0.00     0.159 HD
HETATM   11  H           1     -29.194  -1.787 -16.775  0.00  0.00     0.159 HD
ENDBRANCH   6   7
ENDBRANCH   5   6
BRANCH   5  12
HETATM   12  C           1     -29.767  -7.137 -17.982  0.00  0.00     0.197 C 
HETATM   13  O           1     -30.724  -6.954 -17.199  0.00  0.00    -0.646 OA
HETATM   14  O           1     -29.717  -8.174 -18.676  0.00  0.00    -0.646 OA
ENDBRANCH   5  12
ENDBRANCH   1   5
BRANCH   3  15
HETATM   15  C           1     -25.399  -6.928 -19.902  0.00  0.00     0.297 C 
BRANCH  15  16
HETATM   16  N           1     -24.246  -7.643 -19.260  0.00  0.00    -0.064 N 
HETATM   17  H           1     -23.936  -7.115 -18.414  0.00  0.00     0.275 HD
HETATM   18  H           1     -24.546  -8.605 -18.981  0.00  0.00     0.275 HD
HETATM   19  H           1     -23.455  -7.708 -19.940  0.00  0.00     0.275 HD
ENDBRANCH  15  16
BRANCH  15  20
HETATM   20  C           1     -26.084  -7.858 -20.892  0.00  0.00     0.206 C 
BRANCH  20  21
HETATM   21  O           1     -25.115  -8.561 -21.623  0.00  0.00    -0.398 OA
HETATM   22  H           1     -25.259  -9.478 -21.459  0.00  0.00     0.209 HD
ENDBRANCH  20  21
ENDBRANCH  15  20
ENDBRANCH   3  15
TORSDOF 8
ENDMDL
MODEL 2
REMARK VINA RESULT:      -6.2      2.261      4.884
REMARK  8 active torsions:
REMARK  status: ('A' for Active; 'I' for Inactive)
REMARK    1  A    between atoms: N_2  and  C_11 
REMARK       I    between atoms: N_2  and  C_14 
REMARK       I    between atoms: N_5  and  C_18 
REMARK    2  A    between atoms: C_6  and  C_18 
REMARK    3  A    between atoms: C_6  and  C_11 
REMARK    4  A    between atoms: O_7  and  C_12 
REMARK    5  A    between atoms: N_9  and  C_13 
REMARK    6  A    between atoms: C_11  and  C_20 
REMARK    7  A    between atoms: C_12  and  C_13 
REMARK    8  A    between atoms: C_13  and  C_14 
ROOT
HETATM    1  N           1     -27.205  -7.062 -19.059  0.00  0.00    -0.344 N 
HETATM    2  O           1     -28.538  -5.271 -19.063  0.00  0.00    -0.271 OA
HETATM    3  C           1     -28.099  -6.219 -18.456  0.00  0.00     0.251 C 
HETATM    4  H           1     -26.838  -7.856 -18.550  0.00  0.00     0.163 HD
ENDROOT
BRANCH   1   5
HETATM    5  C           1     -26.785  -6.818 -20.424  0.00  0.00     0.194 C 
BRANCH   5   6
HETATM    6  C           1     -25.381  -6.224 -20.425  0.00  0.00     0.138 C 
BRANCH   6   7
HETATM    7  C           1     -24.531  -6.940 -19.405  0.00  0.00     0.217 C 
HETATM    8  O           1     -24.573  -6.609 -18.244  0.00  0.00    -0.274 OA
HETATM    9  N           1     -23.712  -7.966 -19.796  0.00  0.00    -0.370 N 
HETATM   10  H           1     -23.678  -8.243 -20.768  0.00  0.00     0.159 HD
HETATM   11  H           1     -23.142  -8.446 -19.112  0.00  0.00     0.159 HD
ENDBRANCH   6   7
ENDBRANCH   5   6
BRANCH   5  12
HETATM   12  C           1     -26.781  -8.119 -21.189  0.00  0.00     0.197 C 
HETATM   13  O           1     -25.754  -8.480 -21.803  0.00  0.00    -0.646 OA
HETATM   14  O           1     -27.805  -8.834 -21.209  0.00  0.00    -0.646 OA
ENDBRANCH   5  12
ENDBRANCH   1   5
BRANCH   3  15
HETATM   15  C           1     -28.537  -6.473 -17.035  0.00  0.00     0.297 C 
BRANCH  15  16
HETATM   16  N           1     -29.021  -7.887 -16.907  0.00  0.00    -0.064 N 
HETATM   17  H           1     -29.458  -8.189 -17.806  0.00  0.00     0.275 HD
HETATM   18  H           1     -28.213  -8.512 -16.685  0.00  0.00     0.275 HD
HETATM   19  H           1     -29.727  -7.944 -16.138  0.00  0.00     0.275 HD
ENDBRANCH  15  16
BRANCH  15  20
HETATM   20  C           1     -27.362  -6.251 -16.093  0.00  0.00     0.206 C 
BRANCH  20  21
HETATM   21  O           1     -26.509  -5.277 -16.629  0.00  0.00    -0.398 OA
HETATM   22  H           1     -26.534  -5.377 -17.566  0.00  0.00     0.209 HD
ENDBRANCH  20  21
ENDBRANCH  15  20
ENDBRANCH   3  15
TORSDOF 8
ENDMDL
MODEL 3
REMARK VINA RESULT:      -5.8      2.193      5.260
REMARK  8 active torsions:
REMARK  status: ('A' for Active; 'I' for Inactive)
REMARK    1  A    between atoms: N_2  and  C_11 
REMARK       I    between atoms: N_2  and  C_14 
REMARK       I    between atoms: N_5  and  C_18 
REMARK    2  A    between atoms: C_6  and  C_18 
REMARK    3  A    between atoms: C_6  and  C_11 
REMARK    4  A    between atoms: O_7  and  C_12 
REMARK    5  A    between atoms: N_9  and  C_13 
REMARK    6  A    between atoms: C_11  and  C_20 
REMARK    7  A    between atoms: C_12  and  C_13 
REMARK    8  A    between atoms: C_13  and  C_14 
ROOT
HETATM    1  N           1     -28.784  -5.512 -16.468  0.00  0.00    -0.344 N 
HETATM    2  O           1     -29.677  -5.561 -18.514  0.00  0.00    -0.271 OA
HETATM    3  C           1     -29.705  -5.105 -17.396  0.00  0.00     0.251 C 
HETATM    4  H           1     -28.807  -5.130 -15.532  0.00  0.00     0.163 HD
ENDROOT
BRANCH   1   5
HETATM    5  C           1     -27.776  -6.490 -16.828  0.00  0.00     0.194 C 
BRANCH   5   6
HETATM    6  C           1     -26.577  -5.781 -17.444  0.00  0.00     0.138 C 
BRANCH   6   7
HETATM    7  C           1     -26.189  -6.471 -18.728  0.00  0.00     0.217 C 
HETATM    8  O           1     -25.023  -6.648 -18.990  0.00  0.00    -0.274 OA
HETATM    9  N           1     -27.159  -6.897 -19.596  0.00  0.00    -0.370 N 
HETATM   10  H           1     -28.135  -6.749 -19.376  0.00  0.00     0.159 HD
HETATM   11  H           1     -26.898  -7.360 -20.457  0.00  0.00     0.159 HD
ENDBRANCH   6   7
ENDBRANCH   5   6
BRANCH   5  12
HETATM   12  C           1     -27.339  -7.238 -15.592  0.00  0.00     0.197 C 
HETATM   13  O           1     -28.193  -7.672 -14.789  0.00  0.00    -0.646 OA
HETATM   14  O           1     -26.123  -7.422 -15.371  0.00  0.00    -0.646 OA
ENDBRANCH   5  12
ENDBRANCH   1   5
BRANCH   3  15
HETATM   15  C           1     -30.754  -4.087 -17.023  0.00  0.00     0.297 C 
BRANCH  15  16
HETATM   16  N           1     -30.844  -3.045 -18.098  0.00  0.00    -0.064 N 
HETATM   17  H           1     -31.413  -3.414 -18.893  0.00  0.00     0.275 HD
HETATM   18  H           1     -31.298  -2.186 -17.714  0.00  0.00     0.275 HD
HETATM   19  H           1     -29.883  -2.811 -18.436  0.00  0.00     0.275 HD
ENDBRANCH  15  16
BRANCH  15  20
HETATM   20  C           1     -32.102  -4.778 -16.871  0.00  0.00     0.206 C 
BRANCH  20  21
HETATM   21  O           1     -31.919  -6.168 -16.879  0.00  0.00    -0.398 OA
HETATM   22  H           1     -32.316  -6.493 -17.669  0.00  0.00     0.209 HD
ENDBRANCH  20  21
ENDBRANCH  15  20
ENDBRANCH   3  15
TORSDOF 8
ENDMDL
MODEL 4
REMARK VINA RESULT:      -5.8      1.771      2.961
REMARK  8 active torsions:
REMARK  status: ('A' for Active; 'I' for Inactive)
REMARK    1  A    between atoms: N_2  and  C_11 
REMARK       I    between atoms: N_2  and  C_14 
REMARK       I    between atoms: N_5  and  C_18 
REMARK    2  A    between atoms: C_6  and  C_18 
REMARK    3  A    between atoms: C_6  and  C_11 
REMARK    4  A    between atoms: O_7  and  C_12 
REMARK    5  A    between atoms: N_9  and  C_13 
REMARK    6  A    between atoms: C_11  and  C_20 
REMARK    7  A    between atoms: C_12  and  C_13 
REMARK    8  A    between atoms: C_13  and  C_14 
ROOT
HETATM    1  N           1     -26.821  -6.332 -18.088  0.00  0.00    -0.344 N 
HETATM    2  O           1     -26.988  -6.512 -20.307  0.00  0.00    -0.271 OA
HETATM    3  C           1     -26.287  -6.572 -19.326  0.00  0.00     0.251 C 
HETATM    4  H           1     -26.233  -6.383 -17.266  0.00  0.00     0.163 HD
ENDROOT
BRANCH   1   5
HETATM    5  C           1     -28.227  -6.008 -17.956  0.00  0.00     0.194 C 
BRANCH   5   6
HETATM    6  C           1     -28.935  -7.119 -17.191  0.00  0.00     0.138 C 
BRANCH   6   7
HETATM    7  C           1     -30.296  -7.359 -17.797  0.00  0.00     0.217 C 
HETATM    8  O           1     -30.410  -8.076 -18.762  0.00  0.00    -0.274 OA
HETATM    9  N           1     -31.402  -6.764 -17.251  0.00  0.00    -0.370 N 
HETATM   10  H           1     -31.307  -6.164 -16.442  0.00  0.00     0.159 HD
HETATM   11  H           1     -32.315  -6.925 -17.657  0.00  0.00     0.159 HD
ENDBRANCH   6   7
ENDBRANCH   5   6
BRANCH   5  12
HETATM   12  C           1     -28.374  -4.707 -17.204  0.00  0.00     0.197 C 
HETATM   13  O           1     -27.998  -4.627 -16.015  0.00  0.00    -0.646 OA
HETATM   14  O           1     -28.872  -3.711 -17.771  0.00  0.00    -0.646 OA
ENDBRANCH   5  12
ENDBRANCH   1   5
BRANCH   3  15
HETATM   15  C           1     -24.823  -6.910 -19.464  0.00  0.00     0.297 C 
BRANCH  15  16
HETATM   16  N           1     -24.311  -7.453 -18.163  0.00  0.00    -0.064 N 
HETATM   17  H           1     -23.303  -7.204 -18.054  0.00  0.00     0.275 HD
HETATM   18  H           1     -24.859  -7.042 -17.374  0.00  0.00     0.275 HD
HETATM   19  H           1     -24.416  -8.494 -18.155  0.00  0.00     0.275 HD
ENDBRANCH  15  16
BRANCH  15  20
HETATM   20  C           1     -24.643  -7.956 -20.556  0.00  0.00     0.206 C 
BRANCH  20  21
HETATM   21  O           1     -24.587  -7.322 -21.805  0.00  0.00    -0.398 OA
HETATM   22  H           1     -23.991  -6.597 -21.719  0.00  0.00     0.209 HD
ENDBRANCH  20  21
ENDBRANCH  15  20
ENDBRANCH   3  15
TORSDOF 8
ENDMDL
MODEL 5
REMARK VINA RESULT:      -5.8      1.905      2.610
REMARK  8 active torsions:
REMARK  status: ('A' for Active; 'I' for Inactive)
REMARK    1  A    between atoms: N_2  and  C_11 
REMARK       I    between atoms: N_2  and  C_14 
REMARK       I    between atoms: N_5  and  C_18 
REMARK    2  A    between atoms: C_6  and  C_18 
REMARK    3  A    between atoms: C_6  and  C_11 
REMARK    4  A    between atoms: O_7  and  C_12 
REMARK    5  A    between atoms: N_9  and  C_13 
REMARK    6  A    between atoms: C_11  and  C_20 
REMARK    7  A    between atoms: C_12  and  C_13 
REMARK    8  A    between atoms: C_13  and  C_14 
ROOT
HETATM    1  N           1     -26.802  -6.507 -18.264  0.00  0.00    -0.344 N 
HETATM    2  O           1     -24.599  -6.396 -18.611  0.00  0.00    -0.271 OA
HETATM    3  C           1     -25.689  -6.697 -19.037  0.00  0.00     0.251 C 
HETATM    4  H           1     -27.715  -6.759 -18.621  0.00  0.00     0.163 HD
ENDROOT
BRANCH   1   5
HETATM    5  C           1     -26.674  -5.943 -16.935  0.00  0.00     0.194 C 
BRANCH   5   6
HETATM    6  C           1     -27.903  -5.099 -16.620  0.00  0.00     0.138 C 
BRANCH   6   7
HETATM    7  C           1     -28.952  -5.324 -17.680  0.00  0.00     0.217 C 
HETATM    8  O           1     -29.545  -6.376 -17.730  0.00  0.00    -0.274 OA
HETATM    9  N           1     -29.234  -4.336 -18.585  0.00  0.00    -0.370 N 
HETATM   10  H           1     -28.737  -3.455 -18.543  0.00  0.00     0.159 HD
HETATM   11  H           1     -29.937  -4.486 -19.296  0.00  0.00     0.159 HD
ENDBRANCH   6   7
ENDBRANCH   5   6
BRANCH   5  12
HETATM   12  C           1     -26.557  -7.058 -15.925  0.00  0.00     0.197 C 
HETATM   13  O           1     -25.435  -7.534 -15.646  0.00  0.00    -0.646 OA
HETATM   14  O           1     -27.582  -7.506 -15.368  0.00  0.00    -0.646 OA
ENDBRANCH   5  12
ENDBRANCH   1   5
BRANCH   3  15
HETATM   15  C           1     -25.821  -7.284 -20.420  0.00  0.00     0.297 C 
BRANCH  15  16
HETATM   16  N           1     -24.804  -8.373 -20.601  0.00  0.00    -0.064 N 
HETATM   17  H           1     -23.984  -8.189 -19.982  0.00  0.00     0.275 HD
HETATM   18  H           1     -25.231  -9.293 -20.350  0.00  0.00     0.275 HD
HETATM   19  H           1     -24.491  -8.393 -21.599  0.00  0.00     0.275 HD
ENDBRANCH  15  16
BRANCH  15  20
HETATM   20  C           1     -27.219  -7.863 -20.596  0.00  0.00     0.206 C 
BRANCH  20  21
HETATM   21  O           1     -27.188  -8.874 -21.567  0.00  0.00    -0.398 OA
HETATM   22  H           1     -27.215  -9.696 -21.107  0.00  0.00     0.209 HD
ENDBRANCH  20  21
ENDBRANCH  15  20
ENDBRANCH   3  15
TORSDOF 8
ENDMDL
MODEL 6
REMARK VINA RESULT:      -5.6      1.410      5.506
REMARK  8 active torsions:
REMARK  status: ('A' for Active; 'I' for Inactive)
REMARK    1  A    between atoms: N_2  and  C_11 
REMARK       I    between atoms: N_2  and  C_14 
REMARK       I    between atoms: N_5  and  C_18 
REMARK    2  A    between atoms: C_6  and  C_18 
REMARK    3  A    between atoms: C_6  and  C_11 
REMARK    4  A    between atoms: O_7  and  C_12 
REMARK    5  A    between atoms: N_9  and  C_13 
REMARK    6  A    between atoms: C_11  and  C_20 
REMARK    7  A    between atoms: C_12  and  C_13 
REMARK    8  A    between atoms: C_13  and  C_14 
ROOT
HETATM    1  N           1     -27.409  -5.623 -18.985  0.00  0.00    -0.344 N 
HETATM    2  O           1     -28.841  -6.949 -17.902  0.00  0.00    -0.271 OA
HETATM    3  C           1     -28.581  -5.844 -18.314  0.00  0.00     0.251 C 
HETATM    4  H           1     -27.191  -4.697 -19.330  0.00  0.00     0.163 HD
ENDROOT
BRANCH   1   5
HETATM    5  C           1     -26.480  -6.715 -19.202  0.00  0.00     0.194 C 
BRANCH   5   6
HETATM    6  C           1     -25.909  -6.624 -20.612  0.00  0.00     0.138 C 
BRANCH   6   7
HETATM    7  C           1     -25.674  -8.013 -21.150  0.00  0.00     0.217 C 
HETATM    8  O           1     -26.613  -8.715 -21.442  0.00  0.00    -0.274 OA
HETATM    9  N           1     -24.395  -8.478 -21.308  0.00  0.00    -0.370 N 
HETATM   10  H           1     -23.609  -7.890 -21.063  0.00  0.00     0.159 HD
HETATM   11  H           1     -24.237  -9.410 -21.669  0.00  0.00     0.159 HD
ENDBRANCH   6   7
ENDBRANCH   5   6
BRANCH   5  12
HETATM   12  C           1     -25.357  -6.626 -18.197  0.00  0.00     0.197 C 
HETATM   13  O           1     -25.600  -6.301 -17.015  0.00  0.00    -0.646 OA
HETATM   14  O           1     -24.184  -6.876 -18.548  0.00  0.00    -0.646 OA
ENDBRANCH   5  12
ENDBRANCH   1   5
BRANCH   3  15
HETATM   15  C           1     -29.548  -4.708 -18.089  0.00  0.00     0.297 C 
BRANCH  15  16
HETATM   16  N           1     -30.724  -5.203 -17.300  0.00  0.00    -0.064 N 
HETATM   17  H           1     -30.589  -4.973 -16.290  0.00  0.00     0.275 HD
HETATM   18  H           1     -31.595  -4.743 -17.648  0.00  0.00     0.275 HD
HETATM   19  H           1     -30.808  -6.239 -17.414  0.00  0.00     0.275 HD
ENDBRANCH  15  16
BRANCH  15  20
HETATM   20  C           1     -28.854  -3.594 -17.318  0.00  0.00     0.206 C 
BRANCH  20  21
HETATM   21  O           1     -27.768  -4.124 -16.605  0.00  0.00    -0.398 OA
HETATM   22  H           1     -28.115  -4.782 -16.026  0.00  0.00     0.209 HD
ENDBRANCH  20  21
ENDBRANCH  15  20
ENDBRANCH   3  15
TORSDOF 8
ENDMDL
MODEL 7
REMARK VINA RESULT:      -5.3      2.083      5.410
REMARK  8 active torsions:
REMARK  status: ('A' for Active; 'I' for Inactive)
REMARK    1  A    between atoms: N_2  and  C_11 
REMARK       I    between atoms: N_2  and  C_14 
REMARK       I    between atoms: N_5  and  C_18 
REMARK    2  A    between atoms: C_6  and  C_18 
REMARK    3  A    between atoms: C_6  and  C_11 
REMARK    4  A    between atoms: O_7  and  C_12 
REMARK    5  A    between atoms: N_9  and  C_13 
REMARK    6  A    between atoms: C_11  and  C_20 
REMARK    7  A    between atoms: C_12  and  C_13 
REMARK    8  A    between atoms: C_13  and  C_14 
ROOT
HETATM    1  N           1     -27.069  -5.614 -17.482  0.00  0.00    -0.344 N 
HETATM    2  O           1     -28.784  -6.944 -16.959  0.00  0.00    -0.271 OA
HETATM    3  C           1     -28.385  -5.823 -17.168  0.00  0.00     0.251 C 
HETATM    4  H           1     -26.734  -4.675 -17.657  0.00  0.00     0.163 HD
ENDROOT
BRANCH   1   5
HETATM    5  C           1     -26.156  -6.737 -17.566  0.00  0.00     0.194 C 
BRANCH   5   6
HETATM    6  C           1     -25.294  -6.599 -18.814  0.00  0.00     0.138 C 
BRANCH   6   7
HETATM    7  C           1     -26.137  -6.857 -20.039  0.00  0.00     0.217 C 
HETATM    8  O           1     -26.982  -6.060 -20.370  0.00  0.00    -0.274 OA
HETATM    9  N           1     -25.944  -7.997 -20.774  0.00  0.00    -0.370 N 
HETATM   10  H           1     -25.236  -8.664 -20.496  0.00  0.00     0.159 HD
HETATM   11  H           1     -26.509  -8.170 -21.595  0.00  0.00     0.159 HD
ENDBRANCH   6   7
ENDBRANCH   5   6
BRANCH   5  12
HETATM   12  C           1     -25.271  -6.756 -16.343  0.00  0.00     0.197 C 
HETATM   13  O           1     -25.066  -5.702 -15.704  0.00  0.00    -0.646 OA
HETATM   14  O           1     -24.743  -7.825 -15.971  0.00  0.00    -0.646 OA
ENDBRANCH   5  12
ENDBRANCH   1   5
BRANCH   3  15
HETATM   15  C           1     -29.335  -4.655 -17.081  0.00  0.00     0.297 C 
BRANCH  15  16
HETATM   16  N           1     -29.524  -4.063 -18.447  0.00  0.00    -0.064 N 
HETATM   17  H           1     -28.594  -3.941 -18.905  0.00  0.00     0.275 HD
HETATM   18  H           1     -30.117  -4.701 -19.024  0.00  0.00     0.275 HD
HETATM   19  H           1     -29.995  -3.133 -18.360  0.00  0.00     0.275 HD
ENDBRANCH  15  16
BRANCH  15  20
HETATM   20  C           1     -30.679  -5.131 -16.545  0.00  0.00     0.206 C 
BRANCH  20  21
HETATM   21  O           1     -31.639  -4.127 -16.735  0.00  0.00    -0.398 OA
HETATM   22  H           1     -31.991  -4.244 -17.601  0.00  0.00     0.209 HD
ENDBRANCH  20  21
ENDBRANCH  15  20
ENDBRANCH   3  15
TORSDOF 8
ENDMDL
MODEL 8
REMARK VINA RESULT:      -5.2     11.401     12.686
REMARK  8 active torsions:
REMARK  status: ('A' for Active; 'I' for Inactive)
REMARK    1  A    between atoms: N_2  and  C_11 
REMARK       I    between atoms: N_2  and  C_14 
REMARK       I    between atoms: N_5  and  C_18 
REMARK    2  A    between atoms: C_6  and  C_18 
REMARK    3  A    between atoms: C_6  and  C_11 
REMARK    4  A    between atoms: O_7  and  C_12 
REMARK    5  A    between atoms: N_9  and  C_13 
REMARK    6  A    between atoms: C_11  and  C_20 
REMARK    7  A    between atoms: C_12  and  C_13 
REMARK    8  A    between atoms: C_13  and  C_14 
ROOT
HETATM    1  N           1     -21.961  -5.074  -8.784  0.00  0.00    -0.344 N 
HETATM    2  O           1     -23.690  -3.832  -8.113  0.00  0.00    -0.271 OA
HETATM    3  C           1     -23.189  -4.504  -8.982  0.00  0.00     0.251 C 
HETATM    4  H           1     -21.541  -5.637  -9.512  0.00  0.00     0.163 HD
ENDROOT
BRANCH   1   5
HETATM    5  C           1     -21.261  -4.871  -7.530  0.00  0.00     0.194 C 
BRANCH   5   6
HETATM    6  C           1     -21.180  -6.192  -6.774  0.00  0.00     0.138 C 
BRANCH   6   7
HETATM    7  C           1     -21.850  -6.044  -5.431  0.00  0.00     0.217 C 
HETATM    8  O           1     -23.053  -5.956  -5.361  0.00  0.00    -0.274 OA
HETATM    9  N           1     -21.094  -6.010  -4.289  0.00  0.00    -0.370 N 
HETATM   10  H           1     -20.086  -6.083  -4.348  0.00  0.00     0.159 HD
HETATM   11  H           1     -21.543  -5.911  -3.388  0.00  0.00     0.159 HD
ENDBRANCH   6   7
ENDBRANCH   5   6
BRANCH   5  12
HETATM   12  C           1     -19.867  -4.365  -7.809  0.00  0.00     0.197 C 
HETATM   13  O           1     -18.934  -4.638  -7.023  0.00  0.00    -0.646 OA
HETATM   14  O           1     -19.646  -3.672  -8.825  0.00  0.00    -0.646 OA
ENDBRANCH   5  12
ENDBRANCH   1   5
BRANCH   3  15
HETATM   15  C           1     -23.917  -4.715 -10.287  0.00  0.00     0.297 C 
BRANCH  15  16
HETATM   16  N           1     -24.942  -3.634 -10.467  0.00  0.00    -0.064 N 
HETATM   17  H           1     -25.878  -4.066 -10.634  0.00  0.00     0.275 HD
HETATM   18  H           1     -24.980  -3.043  -9.606  0.00  0.00     0.275 HD
HETATM   19  H           1     -24.680  -3.040 -11.286  0.00  0.00     0.275 HD
ENDBRANCH  15  16
BRANCH  15  20
HETATM   20  C           1     -22.923  -4.667 -11.439  0.00  0.00     0.206 C 
BRANCH  20  21
HETATM   21  O           1     -23.607  -4.814 -12.653  0.00  0.00    -0.398 OA
HETATM   22  H           1     -23.276  -5.596 -13.062  0.00  0.00     0.209 HD
ENDBRANCH  20  21
ENDBRANCH  15  20
ENDBRANCH   3  15
TORSDOF 8
ENDMDL
MODEL 9
REMARK VINA RESULT:      -5.2      2.138      2.437
REMARK  8 active torsions:
REMARK  status: ('A' for Active; 'I' for Inactive)
REMARK    1  A    between atoms: N_2  and  C_11 
REMARK       I    between atoms: N_2  and  C_14 
REMARK       I    between atoms: N_5  and  C_18 
REMARK    2  A    between atoms: C_6  and  C_18 
REMARK    3  A    between atoms: C_6  and  C_11 
REMARK    4  A    between atoms: O_7  and  C_12 
REMARK    5  A    between atoms: N_9  and  C_13 
REMARK    6  A    between atoms: C_11  and  C_20 
REMARK    7  A    between atoms: C_12  and  C_13 
REMARK    8  A    between atoms: C_13  and  C_14 
ROOT
HETATM    1  N           1     -27.260  -6.398 -17.867  0.00  0.00    -0.344 N 
HETATM    2  O           1     -25.029  -6.386 -17.949  0.00  0.00    -0.271 OA
HETATM    3  C           1     -26.073  -6.600 -18.518  0.00  0.00     0.251 C 
HETATM    4  H           1     -28.135  -6.577 -18.343  0.00  0.00     0.163 HD
ENDROOT
BRANCH   1   5
HETATM    5  C           1     -27.265  -5.927 -16.496  0.00  0.00     0.194 C 
BRANCH   5   6
HETATM    6  C           1     -28.610  -5.282 -16.185  0.00  0.00     0.138 C 
BRANCH   6   7
HETATM    7  C           1     -28.740  -3.993 -16.957  0.00  0.00     0.217 C 
HETATM    8  O           1     -27.945  -3.100 -16.782  0.00  0.00    -0.274 OA
HETATM    9  N           1     -29.760  -3.834 -17.857  0.00  0.00    -0.370 N 
HETATM   10  H           1     -30.426  -4.582 -18.004  0.00  0.00     0.159 HD
HETATM   11  H           1     -29.848  -2.970 -18.375  0.00  0.00     0.159 HD
ENDBRANCH   6   7
ENDBRANCH   5   6
BRANCH   5  12
HETATM   12  C           1     -27.038  -7.092 -15.564  0.00  0.00     0.197 C 
HETATM   13  O           1     -28.014  -7.705 -15.080  0.00  0.00    -0.646 OA
HETATM   14  O           1     -25.874  -7.444 -15.275  0.00  0.00    -0.646 OA
ENDBRANCH   5  12
ENDBRANCH   1   5
BRANCH   3  15
HETATM   15  C           1     -26.068  -7.090 -19.944  0.00  0.00     0.297 C 
BRANCH  15  16
HETATM   16  N           1     -26.963  -6.218 -20.775  0.00  0.00    -0.064 N 
HETATM   17  H           1     -27.025  -5.270 -20.343  0.00  0.00     0.275 HD
HETATM   18  H           1     -26.571  -6.136 -21.740  0.00  0.00     0.275 HD
HETATM   19  H           1     -27.917  -6.644 -20.822  0.00  0.00     0.275 HD
ENDBRANCH  15  16
BRANCH  15  20
HETATM   20  C           1     -24.651  -7.034 -20.497  0.00  0.00     0.206 C 
BRANCH  20  21
HETATM   21  O           1     -23.880  -8.048 -19.912  0.00  0.00    -0.398 OA
HETATM   22  H           1     -23.176  -7.625 -19.448  0.00  0.00     0.209 HD
ENDBRANCH  20  21
ENDBRANCH  15  20
ENDBRANCH   3  15
TORSDOF 8
ENDMDL
