MODEL 1
REMARK VINA RESULT:      -6.5      0.000      0.000
REMARK  9 active torsions:
REMARK  status: ('A' for Active; 'I' for Inactive)
REMARK    1  A    between atoms: C_2  and  C_12 
REMARK    2  A    between atoms: C_2  and  N_3 
REMARK    3  A    between atoms: N_6  and  C_16 
REMARK       I    between atoms: N_6  and  C_7 
REMARK    4  A    between atoms: C_7  and  C_8 
REMARK    5  A    between atoms: C_8  and  C_13 
REMARK    6  A    between atoms: C_8  and  N_19 
REMARK    7  A    between atoms: C_9  and  C_16 
REMARK    8  A    between atoms: C_12  and  C_21 
REMARK    9  A    between atoms: C_13  and  C_21 
ROOT
HETATM    1  C           1     -34.188  -3.875 -12.682  0.00  0.00     0.274 C 
ENDROOT
BRANCH   1   2
HETATM    2  C           1     -34.635  -2.470 -12.363  0.00  0.00     0.249 C 
HETATM    3  N           1     -34.971  -1.610 -13.374  0.00  0.00    -0.345 N 
HETATM    4  H           1     -34.919  -1.918 -14.337  0.00  0.00     0.163 HD
HETATM    5  O           1     -34.697  -2.102 -11.213  0.00  0.00    -0.271 OA
BRANCH   3   6
HETATM    6  C           1     -35.400  -0.261 -13.066  0.00  0.00     0.181 C 
HETATM    7  C           1     -34.927   0.684 -14.163  0.00  0.00     0.043 C 
BRANCH   6   8
HETATM    8  C           1     -36.906  -0.220 -12.981  0.00  0.00     0.196 C 
HETATM    9  O           1     -37.598  -0.667 -13.920  0.00  0.00    -0.646 OA
HETATM   10  O           1     -37.461   0.263 -11.970  0.00  0.00    -0.646 OA
ENDBRANCH   6   8
ENDBRANCH   3   6
ENDBRANCH   1   2
BRANCH   1  11
HETATM   11  C           1     -33.000  -4.244 -11.804  0.00  0.00     0.042 C 
BRANCH  11  12
HETATM   12  C           1     -33.231  -5.619 -11.189  0.00  0.00     0.004 C 
BRANCH  12  13
HETATM   13  C           1     -34.559  -5.625 -10.441  0.00  0.00     0.027 C 
BRANCH  13  14
HETATM   14  C           1     -34.806  -7.008  -9.855  0.00  0.00     0.229 C 
BRANCH  14  15
HETATM   15  N           1     -34.796  -8.028 -10.956  0.00  0.00    -0.079 N 
HETATM   16  H           1     -35.656  -8.616 -10.893  0.00  0.00     0.274 HD
HETATM   17  H           1     -34.773  -7.540 -11.880  0.00  0.00     0.274 HD
HETATM   18  H           1     -33.951  -8.635 -10.860  0.00  0.00     0.274 HD
ENDBRANCH  14  15
ENDBRANCH  13  14
ENDBRANCH  12  13
ENDBRANCH  11  12
ENDBRANCH   1  11
BRANCH   1  19
HETATM   19  N           1     -33.787  -3.956 -14.125  0.00  0.00    -0.067 N 
HETATM   20  H           1     -32.904  -3.415 -14.271  0.00  0.00     0.275 HD
HETATM   21  H           1     -34.545  -3.553 -14.720  0.00  0.00     0.275 HD
HETATM   22  H           1     -33.631  -4.954 -14.388  0.00  0.00     0.275 HD
ENDBRANCH   1  19
TORSDOF 9
ENDMDL
MODEL 2
REMARK VINA RESULT:      -5.9     12.749     14.197
REMARK  9 active torsions:
REMARK  status: ('A' for Active; 'I' for Inactive)
REMARK    1  A    between atoms: C_2  and  C_12 
REMARK    2  A    between atoms: C_2  and  N_3 
REMARK    3  A    between atoms: N_6  and  C_16 
REMARK       I    between atoms: N_6  and  C_7 
REMARK    4  A    between atoms: C_7  and  C_8 
REMARK    5  A    between atoms: C_8  and  C_13 
REMARK    6  A    between atoms: C_8  and  N_19 
REMARK    7  A    between atoms: C_9  and  C_16 
REMARK    8  A    between atoms: C_12  and  C_21 
REMARK    9  A    between atoms: C_13  and  C_21 
ROOT
HETATM    1  C           1     -21.236  -5.821  -6.936  0.00  0.00     0.274 C 
ENDROOT
BRANCH   1   2
HETATM    2  C           1     -21.678  -4.629  -7.747  0.00  0.00     0.249 C 
HETATM    3  N           1     -22.194  -4.807  -9.003  0.00  0.00    -0.345 N 
HETATM    4  H           1     -22.278  -5.740  -9.388  0.00  0.00     0.163 HD
HETATM    5  O           1     -21.578  -3.515  -7.288  0.00  0.00    -0.271 OA
BRANCH   3   6
HETATM    6  C           1     -22.619  -3.661  -9.782  0.00  0.00     0.181 C 
HETATM    7  C           1     -21.756  -3.550 -11.032  0.00  0.00     0.043 C 
BRANCH   6   8
HETATM    8  C           1     -24.064  -3.833 -10.181  0.00  0.00     0.196 C 
HETATM    9  O           1     -24.652  -2.924 -10.806  0.00  0.00    -0.646 OA
HETATM   10  O           1     -24.673  -4.884  -9.886  0.00  0.00    -0.646 OA
ENDBRANCH   6   8
ENDBRANCH   3   6
ENDBRANCH   1   2
BRANCH   1  11
HETATM   11  C           1     -21.207  -5.450  -5.459  0.00  0.00     0.042 C 
BRANCH  11  12
HETATM   12  C           1     -22.010  -6.471  -4.663  0.00  0.00     0.004 C 
BRANCH  12  13
HETATM   13  C           1     -21.081  -7.223  -3.718  0.00  0.00     0.027 C 
BRANCH  13  14
HETATM   14  C           1     -21.654  -7.188  -2.307  0.00  0.00     0.229 C 
BRANCH  14  15
HETATM   15  N           1     -22.322  -5.865  -2.071  0.00  0.00    -0.079 N 
HETATM   16  H           1     -21.595  -5.137  -1.887  0.00  0.00     0.274 HD
HETATM   17  H           1     -22.875  -5.600  -2.916  0.00  0.00     0.274 HD
HETATM   18  H           1     -22.957  -5.939  -1.245  0.00  0.00     0.274 HD
ENDBRANCH  14  15
ENDBRANCH  13  14
ENDBRANCH  12  13
ENDBRANCH  11  12
ENDBRANCH   1  11
BRANCH   1  19
HETATM   19  N           1     -19.864  -6.240  -7.372  0.00  0.00    -0.067 N 
HETATM   20  H           1     -19.855  -6.382  -8.408  0.00  0.00     0.275 HD
HETATM   21  H           1     -19.604  -7.134  -6.896  0.00  0.00     0.275 HD
HETATM   22  H           1     -19.174  -5.498  -7.117  0.00  0.00     0.275 HD
ENDBRANCH   1  19
TORSDOF 9
ENDMDL
MODEL 3
REMARK VINA RESULT:      -5.8      1.714      2.094
REMARK  9 active torsions:
REMARK  status: ('A' for Active; 'I' for Inactive)
REMARK    1  A    between atoms: C_2  and  C_12 
REMARK    2  A    between atoms: C_2  and  N_3 
REMARK    3  A    between atoms: N_6  and  C_16 
REMARK       I    between atoms: N_6  and  C_7 
REMARK    4  A    between atoms: C_7  and  C_8 
REMARK    5  A    between atoms: C_8  and  C_13 
REMARK    6  A    between atoms: C_8  and  N_19 
REMARK    7  A    between atoms: C_9  and  C_16 
REMARK    8  A    between atoms: C_12  and  C_21 
REMARK    9  A    between atoms: C_13  and  C_21 
ROOT
HETATM    1  C           1     -34.633  -3.650 -12.350  0.00  0.00     0.274 C 
ENDROOT
BRANCH   1   2
HETATM    2  C           1     -35.062  -2.205 -12.407  0.00  0.00     0.249 C 
HETATM    3  N           1     -35.934  -1.712 -11.474  0.00  0.00    -0.345 N 
HETATM    4  H           1     -36.292  -2.317 -10.746  0.00  0.00     0.163 HD
HETATM    5  O           1     -34.634  -1.482 -13.276  0.00  0.00    -0.271 OA
BRANCH   3   6
HETATM    6  C           1     -36.345  -0.323 -11.529  0.00  0.00     0.181 C 
HETATM    7  C           1     -37.527  -0.182 -12.480  0.00  0.00     0.043 C 
BRANCH   6   8
HETATM    8  C           1     -36.750   0.137 -10.150  0.00  0.00     0.196 C 
HETATM    9  O           1     -37.637   1.007 -10.016  0.00  0.00    -0.646 OA
HETATM   10  O           1     -36.198  -0.353  -9.141  0.00  0.00    -0.646 OA
ENDBRANCH   6   8
ENDBRANCH   3   6
ENDBRANCH   1   2
BRANCH   1  11
HETATM   11  C           1     -33.858  -3.902 -11.063  0.00  0.00     0.042 C 
BRANCH  11  12
HETATM   12  C           1     -33.575  -5.393 -10.924  0.00  0.00     0.004 C 
BRANCH  12  13
HETATM   13  C           1     -34.680  -6.046 -10.104  0.00  0.00     0.027 C 
BRANCH  13  14
HETATM   14  C           1     -34.758  -7.528 -10.446  0.00  0.00     0.229 C 
BRANCH  14  15
HETATM   15  N           1     -34.451  -8.341  -9.222  0.00  0.00    -0.079 N 
HETATM   16  H           1     -34.951  -7.934  -8.400  0.00  0.00     0.274 HD
HETATM   17  H           1     -34.767  -9.325  -9.371  0.00  0.00     0.274 HD
HETATM   18  H           1     -33.421  -8.327  -9.045  0.00  0.00     0.274 HD
ENDBRANCH  14  15
ENDBRANCH  13  14
ENDBRANCH  12  13
ENDBRANCH  11  12
ENDBRANCH   1  11
BRANCH   1  19
HETATM   19  N           1     -33.756  -3.957 -13.528  0.00  0.00    -0.067 N 
HETATM   20  H           1     -33.151  -4.780 -13.307  0.00  0.00     0.275 HD
HETATM   21  H           1     -33.156  -3.129 -13.740  0.00  0.00     0.275 HD
HETATM   22  H           1     -34.351  -4.176 -14.358  0.00  0.00     0.275 HD
ENDBRANCH   1  19
TORSDOF 9
ENDMDL
MODEL 4
REMARK VINA RESULT:      -5.4      4.350      5.598
REMARK  9 active torsions:
REMARK  status: ('A' for Active; 'I' for Inactive)
REMARK    1  A    between atoms: C_2  and  C_12 
REMARK    2  A    between atoms: C_2  and  N_3 
REMARK    3  A    between atoms: N_6  and  C_16 
REMARK       I    between atoms: N_6  and  C_7 
REMARK    4  A    between atoms: C_7  and  C_8 
REMARK    5  A    between atoms: C_8  and  C_13 
REMARK    6  A    between atoms: C_8  and  N_19 
REMARK    7  A    between atoms: C_9  and  C_16 
REMARK    8  A    between atoms: C_12  and  C_21 
REMARK    9  A    between atoms: C_13  and  C_21 
ROOT
HETATM    1  C           1     -32.954  -4.530 -16.720  0.00  0.00     0.274 C 
ENDROOT
BRANCH   1   2
HETATM    2  C           1     -33.815  -4.492 -15.482  0.00  0.00     0.249 C 
HETATM    3  N           1     -33.284  -4.080 -14.289  0.00  0.00    -0.345 N 
HETATM    4  H           1     -32.313  -3.801 -14.238  0.00  0.00     0.163 HD
HETATM    5  O           1     -34.976  -4.826 -15.543  0.00  0.00    -0.271 OA
BRANCH   3   6
HETATM    6  C           1     -34.113  -4.043 -13.101  0.00  0.00     0.181 C 
HETATM    7  C           1     -33.328  -4.597 -11.919  0.00  0.00     0.043 C 
BRANCH   6   8
HETATM    8  C           1     -34.517  -2.618 -12.814  0.00  0.00     0.196 C 
HETATM    9  O           1     -35.081  -1.938 -13.698  0.00  0.00    -0.646 OA
HETATM   10  O           1     -34.288  -2.117 -11.691  0.00  0.00    -0.646 OA
ENDBRANCH   6   8
ENDBRANCH   3   6
ENDBRANCH   1   2
BRANCH   1  11
HETATM   11  C           1     -31.487  -4.622 -16.318  0.00  0.00     0.042 C 
BRANCH  11  12
HETATM   12  C           1     -30.700  -5.315 -17.424  0.00  0.00     0.004 C 
BRANCH  12  13
HETATM   13  C           1     -31.018  -6.804 -17.417  0.00  0.00     0.027 C 
BRANCH  13  14
HETATM   14  C           1     -29.720  -7.601 -17.465  0.00  0.00     0.229 C 
BRANCH  14  15
HETATM   15  N           1     -29.652  -8.370 -18.751  0.00  0.00    -0.079 N 
HETATM   16  H           1     -30.372  -8.004 -19.414  0.00  0.00     0.274 HD
HETATM   17  H           1     -28.703  -8.259 -19.172  0.00  0.00     0.274 HD
HETATM   18  H           1     -29.836  -9.381 -18.562  0.00  0.00     0.274 HD
ENDBRANCH  14  15
ENDBRANCH  13  14
ENDBRANCH  12  13
ENDBRANCH  11  12
ENDBRANCH   1  11
BRANCH   1  19
HETATM   19  N           1     -33.174  -3.281 -17.520  0.00  0.00    -0.067 N 
HETATM   20  H           1     -34.115  -3.320 -17.975  0.00  0.00     0.275 HD
HETATM   21  H           1     -32.435  -3.202 -18.254  0.00  0.00     0.275 HD
HETATM   22  H           1     -33.128  -2.450 -16.890  0.00  0.00     0.275 HD
ENDBRANCH   1  19
TORSDOF 9
ENDMDL
MODEL 5
REMARK VINA RESULT:      -5.4     12.689     14.151
REMARK  9 active torsions:
REMARK  status: ('A' for Active; 'I' for Inactive)
REMARK    1  A    between atoms: C_2  and  C_12 
REMARK    2  A    between atoms: C_2  and  N_3 
REMARK    3  A    between atoms: N_6  and  C_16 
REMARK       I    between atoms: N_6  and  C_7 
REMARK    4  A    between atoms: C_7  and  C_8 
REMARK    5  A    between atoms: C_8  and  C_13 
REMARK    6  A    between atoms: C_8  and  N_19 
REMARK    7  A    between atoms: C_9  and  C_16 
REMARK    8  A    between atoms: C_12  and  C_21 
REMARK    9  A    between atoms: C_13  and  C_21 
ROOT
HETATM    1  C           1     -21.252  -5.891  -7.068  0.00  0.00     0.274 C 
ENDROOT
BRANCH   1   2
HETATM    2  C           1     -21.526  -4.669  -7.909  0.00  0.00     0.249 C 
HETATM    3  N           1     -22.274  -4.775  -9.051  0.00  0.00    -0.345 N 
HETATM    4  H           1     -22.643  -5.675  -9.331  0.00  0.00     0.163 HD
HETATM    5  O           1     -21.086  -3.594  -7.574  0.00  0.00    -0.271 OA
BRANCH   3   6
HETATM    6  C           1     -22.537  -3.600  -9.857  0.00  0.00     0.181 C 
HETATM    7  C           1     -21.713  -3.668 -11.136  0.00  0.00     0.043 C 
BRANCH   6   8
HETATM    8  C           1     -24.004  -3.548 -10.206  0.00  0.00     0.196 C 
HETATM    9  O           1     -24.812  -2.991  -9.432  0.00  0.00    -0.646 OA
HETATM   10  O           1     -24.413  -4.063 -11.270  0.00  0.00    -0.646 OA
ENDBRANCH   6   8
ENDBRANCH   3   6
ENDBRANCH   1   2
BRANCH   1  11
HETATM   11  C           1     -21.423  -5.545  -5.595  0.00  0.00     0.042 C 
BRANCH  11  12
HETATM   12  C           1     -20.836  -6.661  -4.740  0.00  0.00     0.004 C 
BRANCH  12  13
HETATM   13  C           1     -21.879  -7.754  -4.546  0.00  0.00     0.027 C 
BRANCH  13  14
HETATM   14  C           1     -21.187  -9.109  -4.471  0.00  0.00     0.229 C 
BRANCH  14  15
HETATM   15  N           1     -20.791  -9.545  -5.851  0.00  0.00    -0.079 N 
HETATM   16  H           1     -19.791  -9.849  -5.846  0.00  0.00     0.274 HD
HETATM   17  H           1     -21.396 -10.342  -6.150  0.00  0.00     0.274 HD
HETATM   18  H           1     -20.909  -8.747  -6.516  0.00  0.00     0.274 HD
ENDBRANCH  14  15
ENDBRANCH  13  14
ENDBRANCH  12  13
ENDBRANCH  11  12
ENDBRANCH   1  11
BRANCH   1  19
HETATM   19  N           1     -19.848  -6.359  -7.311  0.00  0.00    -0.067 N 
HETATM   20  H           1     -19.794  -7.392  -7.161  0.00  0.00     0.275 HD
HETATM   21  H           1     -19.200  -5.875  -6.649  0.00  0.00     0.275 HD
HETATM   22  H           1     -19.571  -6.135  -8.294  0.00  0.00     0.275 HD
ENDBRANCH   1  19
TORSDOF 9
ENDMDL
MODEL 6
REMARK VINA RESULT:      -5.4     13.472     15.749
REMARK  9 active torsions:
REMARK  status: ('A' for Active; 'I' for Inactive)
REMARK    1  A    between atoms: C_2  and  C_12 
REMARK    2  A    between atoms: C_2  and  N_3 
REMARK    3  A    between atoms: N_6  and  C_16 
REMARK       I    between atoms: N_6  and  C_7 
REMARK    4  A    between atoms: C_7  and  C_8 
REMARK    5  A    between atoms: C_8  and  C_13 
REMARK    6  A    between atoms: C_8  and  N_19 
REMARK    7  A    between atoms: C_9  and  C_16 
REMARK    8  A    between atoms: C_12  and  C_21 
REMARK    9  A    between atoms: C_13  and  C_21 
ROOT
HETATM    1  C           1     -20.754  -4.428  -6.735  0.00  0.00     0.274 C 
ENDROOT
BRANCH   1   2
HETATM    2  C           1     -21.565  -5.390  -5.903  0.00  0.00     0.249 C 
HETATM    3  N           1     -20.936  -6.268  -5.061  0.00  0.00    -0.345 N 
HETATM    4  H           1     -19.927  -6.272  -4.997  0.00  0.00     0.163 HD
HETATM    5  O           1     -22.772  -5.385  -5.979  0.00  0.00    -0.271 OA
BRANCH   3   6
HETATM    6  C           1     -21.717  -7.191  -4.262  0.00  0.00     0.181 C 
HETATM    7  C           1     -21.161  -8.599  -4.426  0.00  0.00     0.043 C 
BRANCH   6   8
HETATM    8  C           1     -21.643  -6.786  -2.810  0.00  0.00     0.196 C 
HETATM    9  O           1     -22.446  -5.944  -2.354  0.00  0.00    -0.646 OA
HETATM   10  O           1     -20.778  -7.294  -2.063  0.00  0.00    -0.646 OA
ENDBRANCH   6   8
ENDBRANCH   3   6
ENDBRANCH   1   2
BRANCH   1  11
HETATM   11  C           1     -21.656  -3.754  -7.760  0.00  0.00     0.042 C 
BRANCH  11  12
HETATM   12  C           1     -21.361  -4.316  -9.144  0.00  0.00     0.004 C 
BRANCH  12  13
HETATM   13  C           1     -22.581  -4.135 -10.037  0.00  0.00     0.027 C 
BRANCH  13  14
HETATM   14  C           1     -23.769  -3.694  -9.192  0.00  0.00     0.229 C 
BRANCH  14  15
HETATM   15  N           1     -24.991  -4.460  -9.608  0.00  0.00    -0.079 N 
HETATM   16  H           1     -25.761  -3.791  -9.833  0.00  0.00     0.274 HD
HETATM   17  H           1     -24.770  -5.033 -10.453  0.00  0.00     0.274 HD
HETATM   18  H           1     -25.291  -5.087  -8.828  0.00  0.00     0.274 HD
ENDBRANCH  14  15
ENDBRANCH  13  14
ENDBRANCH  12  13
ENDBRANCH  11  12
ENDBRANCH   1  11
BRANCH   1  19
HETATM   19  N           1     -19.665  -5.177  -7.444  0.00  0.00    -0.067 N 
HETATM   20  H           1     -18.774  -5.090  -6.905  0.00  0.00     0.275 HD
HETATM   21  H           1     -19.535  -4.778  -8.401  0.00  0.00     0.275 HD
HETATM   22  H           1     -19.928  -6.185  -7.521  0.00  0.00     0.275 HD
ENDBRANCH   1  19
TORSDOF 9
ENDMDL
MODEL 7
REMARK VINA RESULT:      -5.4      4.110      5.934
REMARK  9 active torsions:
REMARK  status: ('A' for Active; 'I' for Inactive)
REMARK    1  A    between atoms: C_2  and  C_12 
REMARK    2  A    between atoms: C_2  and  N_3 
REMARK    3  A    between atoms: N_6  and  C_16 
REMARK       I    between atoms: N_6  and  C_7 
REMARK    4  A    between atoms: C_7  and  C_8 
REMARK    5  A    between atoms: C_8  and  C_13 
REMARK    6  A    between atoms: C_8  and  N_19 
REMARK    7  A    between atoms: C_9  and  C_16 
REMARK    8  A    between atoms: C_12  and  C_21 
REMARK    9  A    between atoms: C_13  and  C_21 
ROOT
HETATM    1  C           1     -33.002  -4.576 -16.731  0.00  0.00     0.274 C 
ENDROOT
BRANCH   1   2
HETATM    2  C           1     -33.845  -4.521 -15.481  0.00  0.00     0.249 C 
HETATM    3  N           1     -33.305  -4.060 -14.309  0.00  0.00    -0.345 N 
HETATM    4  H           1     -32.341  -3.756 -14.282  0.00  0.00     0.163 HD
HETATM    5  O           1     -34.997  -4.884 -15.513  0.00  0.00    -0.271 OA
BRANCH   3   6
HETATM    6  C           1     -34.116  -4.007 -13.109  0.00  0.00     0.181 C 
HETATM    7  C           1     -33.313  -4.545 -11.932  0.00  0.00     0.043 C 
BRANCH   6   8
HETATM    8  C           1     -34.516  -2.579 -12.835  0.00  0.00     0.196 C 
HETATM    9  O           1     -34.243  -2.052 -11.735  0.00  0.00    -0.646 OA
HETATM   10  O           1     -35.122  -1.920 -13.709  0.00  0.00    -0.646 OA
ENDBRANCH   6   8
ENDBRANCH   3   6
ENDBRANCH   1   2
BRANCH   1  11
HETATM   11  C           1     -31.576  -4.968 -16.368  0.00  0.00     0.042 C 
BRANCH  11  12
HETATM   12  C           1     -30.616  -4.415 -17.414  0.00  0.00     0.004 C 
BRANCH  12  13
HETATM   13  C           1     -29.183  -4.571 -16.920  0.00  0.00     0.027 C 
BRANCH  13  14
HETATM   14  C           1     -28.443  -3.250 -17.082  0.00  0.00     0.229 C 
BRANCH  14  15
HETATM   15  N           1     -29.422  -2.168 -17.435  0.00  0.00    -0.079 N 
HETATM   16  H           1     -29.334  -1.384 -16.751  0.00  0.00     0.274 HD
HETATM   17  H           1     -29.219  -1.817 -18.397  0.00  0.00     0.274 HD
HETATM   18  H           1     -30.393  -2.553 -17.400  0.00  0.00     0.274 HD
ENDBRANCH  14  15
ENDBRANCH  13  14
ENDBRANCH  12  13
ENDBRANCH  11  12
ENDBRANCH   1  11
BRANCH   1  19
HETATM   19  N           1     -32.997  -3.228 -17.388  0.00  0.00    -0.067 N 
HETATM   20  H           1     -32.441  -2.559 -16.808  0.00  0.00     0.275 HD
HETATM   21  H           1     -33.979  -2.880 -17.477  0.00  0.00     0.275 HD
HETATM   22  H           1     -32.569  -3.304 -18.338  0.00  0.00     0.275 HD
ENDBRANCH   1  19
TORSDOF 9
ENDMDL
MODEL 8
REMARK VINA RESULT:      -5.3      1.779      1.995
REMARK  9 active torsions:
REMARK  status: ('A' for Active; 'I' for Inactive)
REMARK    1  A    between atoms: C_2  and  C_12 
REMARK    2  A    between atoms: C_2  and  N_3 
REMARK    3  A    between atoms: N_6  and  C_16 
REMARK       I    between atoms: N_6  and  C_7 
REMARK    4  A    between atoms: C_7  and  C_8 
REMARK    5  A    between atoms: C_8  and  C_13 
REMARK    6  A    between atoms: C_8  and  N_19 
REMARK    7  A    between atoms: C_9  and  C_16 
REMARK    8  A    between atoms: C_12  and  C_21 
REMARK    9  A    between atoms: C_13  and  C_21 
ROOT
HETATM    1  C           1     -33.975  -3.853 -12.687  0.00  0.00     0.274 C 
ENDROOT
BRANCH   1   2
HETATM    2  C           1     -34.672  -2.759 -13.457  0.00  0.00     0.249 C 
HETATM    3  N           1     -35.247  -1.710 -12.791  0.00  0.00    -0.345 N 
HETATM    4  H           1     -35.205  -1.669 -11.781  0.00  0.00     0.163 HD
HETATM    5  O           1     -34.723  -2.809 -14.664  0.00  0.00    -0.271 OA
BRANCH   3   6
HETATM    6  C           1     -35.916  -0.660 -13.532  0.00  0.00     0.181 C 
HETATM    7  C           1     -37.036  -0.074 -12.682  0.00  0.00     0.043 C 
BRANCH   6   8
HETATM    8  C           1     -34.924   0.424 -13.875  0.00  0.00     0.196 C 
HETATM    9  O           1     -34.420   0.471 -15.018  0.00  0.00    -0.646 OA
HETATM   10  O           1     -34.606   1.274 -13.016  0.00  0.00    -0.646 OA
ENDBRANCH   6   8
ENDBRANCH   3   6
ENDBRANCH   1   2
BRANCH   1  11
HETATM   11  C           1     -33.563  -3.329 -11.318  0.00  0.00     0.042 C 
BRANCH  11  12
HETATM   12  C           1     -33.897  -4.369 -10.255  0.00  0.00     0.004 C 
BRANCH  12  13
HETATM   13  C           1     -34.837  -5.413 -10.843  0.00  0.00     0.027 C 
BRANCH  13  14
HETATM   14  C           1     -34.283  -6.805 -10.572  0.00  0.00     0.229 C 
BRANCH  14  15
HETATM   15  N           1     -35.074  -7.454  -9.474  0.00  0.00    -0.079 N 
HETATM   16  H           1     -35.560  -8.300  -9.848  0.00  0.00     0.274 HD
HETATM   17  H           1     -34.430  -7.734  -8.701  0.00  0.00     0.274 HD
HETATM   18  H           1     -35.784  -6.778  -9.111  0.00  0.00     0.274 HD
ENDBRANCH  14  15
ENDBRANCH  13  14
ENDBRANCH  12  13
ENDBRANCH  11  12
ENDBRANCH   1  11
BRANCH   1  19
HETATM   19  N           1     -32.756  -4.294 -13.440  0.00  0.00    -0.067 N 
HETATM   20  H           1     -31.899  -3.966 -12.939  0.00  0.00     0.275 HD
HETATM   21  H           1     -32.774  -3.887 -14.403  0.00  0.00     0.275 HD
HETATM   22  H           1     -32.743  -5.336 -13.505  0.00  0.00     0.275 HD
ENDBRANCH   1  19
TORSDOF 9
ENDMDL
MODEL 9
REMARK VINA RESULT:      -5.2     12.922     14.472
REMARK  9 active torsions:
REMARK  status: ('A' for Active; 'I' for Inactive)
REMARK    1  A    between atoms: C_2  and  C_12 
REMARK    2  A    between atoms: C_2  and  N_3 
REMARK    3  A    between atoms: N_6  and  C_16 
REMARK       I    between atoms: N_6  and  C_7 
REMARK    4  A    between atoms: C_7  and  C_8 
REMARK    5  A    between atoms: C_8  and  C_13 
REMARK    6  A    between atoms: C_8  and  N_19 
REMARK    7  A    between atoms: C_9  and  C_16 
REMARK    8  A    between atoms: C_12  and  C_21 
REMARK    9  A    between atoms: C_13  and  C_21 
ROOT
HETATM    1  C           1     -21.936  -4.462  -6.785  0.00  0.00     0.274 C 
ENDROOT
BRANCH   1   2
HETATM    2  C           1     -21.583  -4.743  -8.224  0.00  0.00     0.249 C 
HETATM    3  N           1     -22.425  -4.344  -9.228  0.00  0.00    -0.345 N 
HETATM    4  H           1     -23.285  -3.860  -9.003  0.00  0.00     0.163 HD
HETATM    5  O           1     -20.556  -5.321  -8.493  0.00  0.00    -0.271 OA
BRANCH   3   6
HETATM    6  C           1     -22.085  -4.614 -10.610  0.00  0.00     0.181 C 
HETATM    7  C           1     -23.360  -4.857 -11.407  0.00  0.00     0.043 C 
BRANCH   6   8
HETATM    8  C           1     -21.348  -3.430 -11.187  0.00  0.00     0.196 C 
HETATM    9  O           1     -21.985  -2.436 -11.596  0.00  0.00    -0.646 OA
HETATM   10  O           1     -20.100  -3.444 -11.256  0.00  0.00    -0.646 OA
ENDBRANCH   6   8
ENDBRANCH   3   6
ENDBRANCH   1   2
BRANCH   1  11
HETATM   11  C           1     -21.190  -5.432  -5.878  0.00  0.00     0.042 C 
BRANCH  11  12
HETATM   12  C           1     -22.060  -6.655  -5.618  0.00  0.00     0.004 C 
BRANCH  12  13
HETATM   13  C           1     -21.837  -7.143  -4.193  0.00  0.00     0.027 C 
BRANCH  13  14
HETATM   14  C           1     -21.362  -5.984  -3.327  0.00  0.00     0.229 C 
BRANCH  14  15
HETATM   15  N           1     -22.230  -5.882  -2.107  0.00  0.00    -0.079 N 
HETATM   16  H           1     -22.604  -4.910  -2.027  0.00  0.00     0.274 HD
HETATM   17  H           1     -23.024  -6.555  -2.189  0.00  0.00     0.274 HD
HETATM   18  H           1     -21.665  -6.109  -1.258  0.00  0.00     0.274 HD
ENDBRANCH  14  15
ENDBRANCH  13  14
ENDBRANCH  12  13
ENDBRANCH  11  12
ENDBRANCH   1  11
BRANCH   1  19
HETATM   19  N           1     -23.413  -4.633  -6.591  0.00  0.00    -0.067 N 
HETATM   20  H           1     -23.586  -5.303  -5.808  0.00  0.00     0.275 HD
HETATM   21  H           1     -23.839  -5.005  -7.469  0.00  0.00     0.275 HD
HETATM   22  H           1     -23.844  -3.709  -6.360  0.00  0.00     0.275 HD
ENDBRANCH   1  19
TORSDOF 9
ENDMDL
