MODEL 1
REMARK VINA RESULT:      -6.9      0.000      0.000
REMARK  9 active torsions:
REMARK  status: ('A' for Active; 'I' for Inactive)
REMARK    1  A    between atoms: N_7  and  C_27 
REMARK       I    between atoms: N_9  and  C_11 
REMARK    2  A    between atoms: C_11  and  C_28 
REMARK    3  A    between atoms: O_12  and  C_19 
REMARK    4  A    between atoms: C_16  and  C_20 
REMARK    5  A    between atoms: C_20  and  C_21 
REMARK    6  A    between atoms: C_21  and  C_22 
REMARK    7  A    between atoms: C_21  and  N_25 
REMARK       I    between atoms: N_25  and  C_26 
REMARK    8  A    between atoms: C_26  and  C_27 
REMARK    9  A    between atoms: C_27  and  C_28 
ROOT
HETATM    1  H           1     -21.135  -5.340  -8.322  0.00  0.00     0.163 HD
HETATM    2  O           1     -23.694  -4.352  -6.800  0.00  0.00    -0.271 OA
HETATM    3  N           1     -21.735  -5.133  -7.533  0.00  0.00    -0.344 N 
HETATM    4  C           1     -22.979  -4.599  -7.740  0.00  0.00     0.249 C 
ENDROOT
BRANCH   3   5
HETATM    5  C           1     -21.277  -5.399  -6.184  0.00  0.00     0.189 C 
BRANCH   5   6
HETATM    6  C           1     -21.193  -6.904  -5.965  0.00  0.00     0.074 C 
BRANCH   6   7
HETATM    7  C           1     -21.143  -7.195  -4.498  0.00  0.00    -0.056 A 
HETATM    8  C           1     -20.301  -8.198  -4.015  0.00  0.00     0.010 A 
HETATM    9  C           1     -20.254  -8.469  -2.647  0.00  0.00     0.037 A 
HETATM   10  C           1     -21.047  -7.738  -1.763  0.00  0.00     0.065 A 
HETATM   11  C           1     -21.888  -6.735  -2.247  0.00  0.00     0.037 A 
HETATM   12  C           1     -21.935  -6.464  -3.614  0.00  0.00     0.010 A 
BRANCH  10  13
HETATM   13  O           1     -21.001  -8.001  -0.435  0.00  0.00    -0.361 OA
HETATM   14  H           1     -21.419  -8.867  -0.286  0.00  0.00     0.217 HD
ENDBRANCH  10  13
ENDBRANCH   6   7
ENDBRANCH   5   6
BRANCH   5  15
HETATM   15  C           1     -19.913  -4.784  -5.985  0.00  0.00     0.197 C 
HETATM   16  O           1     -19.092  -4.769  -6.926  0.00  0.00    -0.646 OA
HETATM   17  O           1     -19.605  -4.291  -4.878  0.00  0.00    -0.646 OA
ENDBRANCH   5  15
ENDBRANCH   3   5
BRANCH   4  18
HETATM   18  C           1     -23.456  -4.321  -9.145  0.00  0.00     0.283 C 
BRANCH  18  19
HETATM   19  N           1     -24.542  -3.287  -9.109  0.00  0.00    -0.066 N 
HETATM   20  H           1     -24.307  -2.513  -9.771  0.00  0.00     0.275 HD
HETATM   21  H           1     -25.448  -3.725  -9.390  0.00  0.00     0.275 HD
HETATM   22  H           1     -24.625  -2.903  -8.141  0.00  0.00     0.275 HD
ENDBRANCH  18  19
BRANCH  18  23
HETATM   23  C           1     -22.293  -3.807  -9.983  0.00  0.00     0.145 C 
BRANCH  23  24
HETATM   24  C           1     -22.489  -4.219 -11.422  0.00  0.00     0.217 C 
HETATM   25  O           1     -23.556  -4.650 -11.787  0.00  0.00    -0.274 OA
HETATM   26  N           1     -21.456  -4.103 -12.313  0.00  0.00    -0.370 N 
HETATM   27  H           1     -21.587  -4.379 -13.278  0.00  0.00     0.159 HD
HETATM   28  H           1     -20.562  -3.742 -12.007  0.00  0.00     0.159 HD
ENDBRANCH  23  24
ENDBRANCH  18  23
ENDBRANCH   4  18
TORSDOF 9
ENDMDL
MODEL 2
REMARK VINA RESULT:      -6.8      2.373      7.366
REMARK  9 active torsions:
REMARK  status: ('A' for Active; 'I' for Inactive)
REMARK    1  A    between atoms: N_7  and  C_27 
REMARK       I    between atoms: N_9  and  C_11 
REMARK    2  A    between atoms: C_11  and  C_28 
REMARK    3  A    between atoms: O_12  and  C_19 
REMARK    4  A    between atoms: C_16  and  C_20 
REMARK    5  A    between atoms: C_20  and  C_21 
REMARK    6  A    between atoms: C_21  and  C_22 
REMARK    7  A    between atoms: C_21  and  N_25 
REMARK       I    between atoms: N_25  and  C_26 
REMARK    8  A    between atoms: C_26  and  C_27 
REMARK    9  A    between atoms: C_27  and  C_28 
ROOT
HETATM    1  H           1     -22.404  -5.806  -5.007  0.00  0.00     0.163 HD
HETATM    2  O           1     -20.277  -7.897  -5.980  0.00  0.00    -0.271 OA
HETATM    3  N           1     -21.667  -6.196  -5.583  0.00  0.00    -0.344 N 
HETATM    4  C           1     -21.156  -7.433  -5.294  0.00  0.00     0.249 C 
ENDROOT
BRANCH   3   5
HETATM    5  C           1     -21.154  -5.444  -6.711  0.00  0.00     0.189 C 
BRANCH   5   6
HETATM    6  C           1     -22.180  -4.401  -7.134  0.00  0.00     0.074 C 
BRANCH   6   7
HETATM    7  C           1     -22.318  -4.409  -8.624  0.00  0.00    -0.056 A 
HETATM    8  C           1     -23.585  -4.451  -9.207  0.00  0.00     0.010 A 
HETATM    9  C           1     -23.714  -4.459 -10.595  0.00  0.00     0.037 A 
HETATM   10  C           1     -22.576  -4.424 -11.402  0.00  0.00     0.065 A 
HETATM   11  C           1     -21.309  -4.382 -10.819  0.00  0.00     0.037 A 
HETATM   12  C           1     -21.180  -4.374  -9.431  0.00  0.00     0.010 A 
BRANCH  10  13
HETATM   13  O           1     -22.701  -4.431 -12.751  0.00  0.00    -0.361 OA
HETATM   14  H           1     -22.197  -5.188 -13.095  0.00  0.00     0.217 HD
ENDBRANCH  10  13
ENDBRANCH   6   7
ENDBRANCH   5   6
BRANCH   5  15
HETATM   15  C           1     -19.870  -4.757  -6.315  0.00  0.00     0.197 C 
HETATM   16  O           1     -18.964  -4.592  -7.159  0.00  0.00    -0.646 OA
HETATM   17  O           1     -19.714  -4.353  -5.142  0.00  0.00    -0.646 OA
ENDBRANCH   5  15
ENDBRANCH   3   5
BRANCH   4  18
HETATM   18  C           1     -21.690  -8.215  -4.120  0.00  0.00     0.283 C 
BRANCH  18  19
HETATM   19  N           1     -21.518  -9.682  -4.377  0.00  0.00    -0.066 N 
HETATM   20  H           1     -22.289 -10.210  -3.908  0.00  0.00     0.275 HD
HETATM   21  H           1     -21.547  -9.861  -5.406  0.00  0.00     0.275 HD
HETATM   22  H           1     -20.599  -9.998  -3.994  0.00  0.00     0.275 HD
ENDBRANCH  18  19
BRANCH  18  23
HETATM   23  C           1     -20.925  -7.827  -2.861  0.00  0.00     0.145 C 
BRANCH  23  24
HETATM   24  C           1     -21.864  -7.152  -1.890  0.00  0.00     0.217 C 
HETATM   25  O           1     -22.168  -7.705  -0.861  0.00  0.00    -0.274 OA
HETATM   26  N           1     -22.368  -5.913  -2.177  0.00  0.00    -0.370 N 
HETATM   27  H           1     -22.997  -5.459  -1.526  0.00  0.00     0.159 HD
HETATM   28  H           1     -22.113  -5.449  -3.039  0.00  0.00     0.159 HD
ENDBRANCH  23  24
ENDBRANCH  18  23
ENDBRANCH   4  18
TORSDOF 9
ENDMDL
MODEL 3
REMARK VINA RESULT:      -6.6      2.128      3.501
REMARK  9 active torsions:
REMARK  status: ('A' for Active; 'I' for Inactive)
REMARK    1  A    between atoms: N_7  and  C_27 
REMARK       I    between atoms: N_9  and  C_11 
REMARK    2  A    between atoms: C_11  and  C_28 
REMARK    3  A    between atoms: O_12  and  C_19 
REMARK    4  A    between atoms: C_16  and  C_20 
REMARK    5  A    between atoms: C_20  and  C_21 
REMARK    6  A    between atoms: C_21  and  C_22 
REMARK    7  A    between atoms: C_21  and  N_25 
REMARK       I    between atoms: N_25  and  C_26 
REMARK    8  A    between atoms: C_26  and  C_27 
REMARK    9  A    between atoms: C_27  and  C_28 
ROOT
HETATM    1  H           1     -19.943  -7.362  -6.965  0.00  0.00     0.163 HD
HETATM    2  O           1     -20.335  -4.912  -5.044  0.00  0.00    -0.271 OA
HETATM    3  N           1     -20.057  -6.866  -6.089  0.00  0.00    -0.344 N 
HETATM    4  C           1     -20.200  -5.504  -6.088  0.00  0.00     0.249 C 
ENDROOT
BRANCH   3   5
HETATM    5  C           1     -20.065  -7.596  -4.837  0.00  0.00     0.189 C 
BRANCH   5   6
HETATM    6  C           1     -21.485  -8.051  -4.526  0.00  0.00     0.074 C 
BRANCH   6   7
HETATM    7  C           1     -21.719  -7.985  -3.048  0.00  0.00    -0.056 A 
HETATM    8  C           1     -21.992  -6.760  -2.440  0.00  0.00     0.010 A 
HETATM    9  C           1     -22.210  -6.698  -1.064  0.00  0.00     0.037 A 
HETATM   10  C           1     -22.156  -7.862  -0.296  0.00  0.00     0.065 A 
HETATM   11  C           1     -21.883  -9.087  -0.905  0.00  0.00     0.037 A 
HETATM   12  C           1     -21.665  -9.149  -2.281  0.00  0.00     0.010 A 
BRANCH  10  13
HETATM   13  O           1     -22.368  -7.802   1.040  0.00  0.00    -0.361 OA
HETATM   14  H           1     -23.127  -8.372   1.250  0.00  0.00     0.217 HD
ENDBRANCH  10  13
ENDBRANCH   6   7
ENDBRANCH   5   6
BRANCH   5  15
HETATM   15  C           1     -19.164  -8.802  -4.952  0.00  0.00     0.197 C 
HETATM   16  O           1     -18.461  -9.151  -3.981  0.00  0.00    -0.646 OA
HETATM   17  O           1     -19.122  -9.450  -6.021  0.00  0.00    -0.646 OA
ENDBRANCH   5  15
ENDBRANCH   3   5
BRANCH   4  18
HETATM   18  C           1     -20.191  -4.743  -7.391  0.00  0.00     0.283 C 
BRANCH  18  19
HETATM   19  N           1     -20.625  -5.651  -8.503  0.00  0.00    -0.066 N 
HETATM   20  H           1     -19.945  -5.583  -9.294  0.00  0.00     0.275 HD
HETATM   21  H           1     -20.658  -6.636  -8.155  0.00  0.00     0.275 HD
HETATM   22  H           1     -21.574  -5.367  -8.836  0.00  0.00     0.275 HD
ENDBRANCH  18  19
BRANCH  18  23
HETATM   23  C           1     -21.148  -3.562  -7.297  0.00  0.00     0.145 C 
BRANCH  23  24
HETATM   24  C           1     -22.442  -3.907  -7.994  0.00  0.00     0.217 C 
HETATM   25  O           1     -22.548  -3.742  -9.185  0.00  0.00    -0.274 OA
HETATM   26  N           1     -23.494  -4.407  -7.275  0.00  0.00    -0.370 N 
HETATM   27  H           1     -24.362  -4.639  -7.741  0.00  0.00     0.159 HD
HETATM   28  H           1     -23.404  -4.545  -6.276  0.00  0.00     0.159 HD
ENDBRANCH  23  24
ENDBRANCH  18  23
ENDBRANCH   4  18
TORSDOF 9
ENDMDL
MODEL 4
REMARK VINA RESULT:      -6.2      2.744      4.637
REMARK  9 active torsions:
REMARK  status: ('A' for Active; 'I' for Inactive)
REMARK    1  A    between atoms: N_7  and  C_27 
REMARK       I    between atoms: N_9  and  C_11 
REMARK    2  A    between atoms: C_11  and  C_28 
REMARK    3  A    between atoms: O_12  and  C_19 
REMARK    4  A    between atoms: C_16  and  C_20 
REMARK    5  A    between atoms: C_20  and  C_21 
REMARK    6  A    between atoms: C_21  and  C_22 
REMARK    7  A    between atoms: C_21  and  N_25 
REMARK       I    between atoms: N_25  and  C_26 
REMARK    8  A    between atoms: C_26  and  C_27 
REMARK    9  A    between atoms: C_27  and  C_28 
ROOT
HETATM    1  H           1     -21.644  -7.835  -3.877  0.00  0.00     0.163 HD
HETATM    2  O           1     -19.522  -7.552  -6.171  0.00  0.00    -0.271 OA
HETATM    3  N           1     -20.812  -8.043  -4.415  0.00  0.00    -0.344 N 
HETATM    4  C           1     -20.514  -7.303  -5.529  0.00  0.00     0.249 C 
ENDROOT
BRANCH   3   5
HETATM    5  C           1     -19.936  -9.123  -4.007  0.00  0.00     0.189 C 
BRANCH   5   6
HETATM    6  C           1     -19.437  -8.864  -2.592  0.00  0.00     0.074 C 
BRANCH   6   7
HETATM    7  C           1     -20.597  -8.540  -1.703  0.00  0.00    -0.056 A 
HETATM    8  C           1     -21.194  -7.280  -1.767  0.00  0.00     0.010 A 
HETATM    9  C           1     -22.275  -6.978  -0.940  0.00  0.00     0.037 A 
HETATM   10  C           1     -22.761  -7.935  -0.049  0.00  0.00     0.065 A 
HETATM   11  C           1     -22.165  -9.195   0.014  0.00  0.00     0.037 A 
HETATM   12  C           1     -21.084  -9.497  -0.813  0.00  0.00     0.010 A 
BRANCH  10  13
HETATM   13  O           1     -23.811  -7.642   0.754  0.00  0.00    -0.361 OA
HETATM   14  H           1     -23.807  -8.271   1.496  0.00  0.00     0.217 HD
ENDBRANCH  10  13
ENDBRANCH   6   7
ENDBRANCH   5   6
BRANCH   5  15
HETATM   15  C           1     -20.696 -10.427  -4.043  0.00  0.00     0.197 C 
HETATM   16  O           1     -21.921 -10.429  -4.286  0.00  0.00    -0.646 OA
HETATM   17  O           1     -20.098 -11.504  -3.829  0.00  0.00    -0.646 OA
ENDBRANCH   5  15
ENDBRANCH   3   5
BRANCH   4  18
HETATM   18  C           1     -21.427  -6.179  -5.954  0.00  0.00     0.283 C 
BRANCH  18  19
HETATM   19  N           1     -22.619  -6.132  -5.045  0.00  0.00    -0.066 N 
HETATM   20  H           1     -22.379  -6.584  -4.134  0.00  0.00     0.275 HD
HETATM   21  H           1     -22.891  -5.137  -4.880  0.00  0.00     0.275 HD
HETATM   22  H           1     -23.415  -6.643  -5.487  0.00  0.00     0.275 HD
ENDBRANCH  18  19
BRANCH  18  23
HETATM   23  C           1     -20.674  -4.857  -5.873  0.00  0.00     0.145 C 
BRANCH  23  24
HETATM   24  C           1     -20.892  -4.075  -7.145  0.00  0.00     0.217 C 
HETATM   25  O           1     -19.958  -3.825  -7.868  0.00  0.00    -0.274 OA
HETATM   26  N           1     -22.150  -3.651  -7.480  0.00  0.00    -0.370 N 
HETATM   27  H           1     -22.297  -3.128  -8.334  0.00  0.00     0.159 HD
HETATM   28  H           1     -22.933  -3.861  -6.874  0.00  0.00     0.159 HD
ENDBRANCH  23  24
ENDBRANCH  18  23
ENDBRANCH   4  18
TORSDOF 9
ENDMDL
MODEL 5
REMARK VINA RESULT:      -6.1      3.901      6.539
REMARK  9 active torsions:
REMARK  status: ('A' for Active; 'I' for Inactive)
REMARK    1  A    between atoms: N_7  and  C_27 
REMARK       I    between atoms: N_9  and  C_11 
REMARK    2  A    between atoms: C_11  and  C_28 
REMARK    3  A    between atoms: O_12  and  C_19 
REMARK    4  A    between atoms: C_16  and  C_20 
REMARK    5  A    between atoms: C_20  and  C_21 
REMARK    6  A    between atoms: C_21  and  C_22 
REMARK    7  A    between atoms: C_21  and  N_25 
REMARK       I    between atoms: N_25  and  C_26 
REMARK    8  A    between atoms: C_26  and  C_27 
REMARK    9  A    between atoms: C_27  and  C_28 
ROOT
HETATM    1  H           1     -20.468  -7.615  -2.297  0.00  0.00     0.163 HD
HETATM    2  O           1     -22.133  -9.947  -3.574  0.00  0.00    -0.271 OA
HETATM    3  N           1     -21.170  -8.343  -2.356  0.00  0.00    -0.344 N 
HETATM    4  C           1     -21.296  -9.081  -3.503  0.00  0.00     0.249 C 
ENDROOT
BRANCH   3   5
HETATM    5  C           1     -22.043  -8.602  -1.228  0.00  0.00     0.189 C 
BRANCH   5   6
HETATM    6  C           1     -21.255  -9.302  -0.129  0.00  0.00     0.074 C 
BRANCH   6   7
HETATM    7  C           1     -21.884 -10.626   0.173  0.00  0.00    -0.056 A 
HETATM    8  C           1     -23.212 -10.863  -0.181  0.00  0.00     0.010 A 
HETATM    9  C           1     -23.799 -12.097   0.099  0.00  0.00     0.037 A 
HETATM   10  C           1     -23.058 -13.094   0.734  0.00  0.00     0.065 A 
HETATM   11  C           1     -21.729 -12.856   1.088  0.00  0.00     0.037 A 
HETATM   12  C           1     -21.143 -11.623   0.808  0.00  0.00     0.010 A 
BRANCH  10  13
HETATM   13  O           1     -23.627 -14.292   1.007  0.00  0.00    -0.361 OA
HETATM   14  H           1     -24.050 -14.232   1.880  0.00  0.00     0.217 HD
ENDBRANCH  10  13
ENDBRANCH   6   7
ENDBRANCH   5   6
BRANCH   5  15
HETATM   15  C           1     -22.589  -7.296  -0.704  0.00  0.00     0.197 C 
HETATM   16  O           1     -22.372  -6.234  -1.325  0.00  0.00    -0.646 OA
HETATM   17  O           1     -23.259  -7.278   0.352  0.00  0.00    -0.646 OA
ENDBRANCH   5  15
ENDBRANCH   3   5
BRANCH   4  18
HETATM   18  C           1     -20.387  -8.810  -4.678  0.00  0.00     0.283 C 
BRANCH  18  19
HETATM   19  N           1     -21.004  -9.370  -5.925  0.00  0.00    -0.066 N 
HETATM   20  H           1     -20.724 -10.371  -6.032  0.00  0.00     0.275 HD
HETATM   21  H           1     -22.045  -9.303  -5.859  0.00  0.00     0.275 HD
HETATM   22  H           1     -20.671  -8.826  -6.753  0.00  0.00     0.275 HD
ENDBRANCH  18  19
BRANCH  18  23
HETATM   23  C           1     -20.196  -7.307  -4.836  0.00  0.00     0.145 C 
BRANCH  23  24
HETATM   24  C           1     -21.306  -6.746  -5.692  0.00  0.00     0.217 C 
HETATM   25  O           1     -21.199  -6.746  -6.894  0.00  0.00    -0.274 OA
HETATM   26  N           1     -22.433  -6.240  -5.104  0.00  0.00    -0.370 N 
HETATM   27  H           1     -23.178  -5.864  -5.677  0.00  0.00     0.159 HD
HETATM   28  H           1     -22.523  -6.241  -4.096  0.00  0.00     0.159 HD
ENDBRANCH  23  24
ENDBRANCH  18  23
ENDBRANCH   4  18
TORSDOF 9
ENDMDL
MODEL 6
REMARK VINA RESULT:      -5.9      5.535      7.440
REMARK  9 active torsions:
REMARK  status: ('A' for Active; 'I' for Inactive)
REMARK    1  A    between atoms: N_7  and  C_27 
REMARK       I    between atoms: N_9  and  C_11 
REMARK    2  A    between atoms: C_11  and  C_28 
REMARK    3  A    between atoms: O_12  and  C_19 
REMARK    4  A    between atoms: C_16  and  C_20 
REMARK    5  A    between atoms: C_20  and  C_21 
REMARK    6  A    between atoms: C_21  and  C_22 
REMARK    7  A    between atoms: C_21  and  N_25 
REMARK       I    between atoms: N_25  and  C_26 
REMARK    8  A    between atoms: C_26  and  C_27 
REMARK    9  A    between atoms: C_27  and  C_28 
ROOT
HETATM    1  H           1     -19.588  -7.831  -2.434  0.00  0.00     0.163 HD
HETATM    2  O           1     -21.276 -10.172  -3.663  0.00  0.00    -0.271 OA
HETATM    3  N           1     -20.398  -8.416  -2.601  0.00  0.00    -0.344 N 
HETATM    4  C           1     -20.311  -9.475  -3.464  0.00  0.00     0.249 C 
ENDROOT
BRANCH   3   5
HETATM    5  C           1     -21.649  -8.131  -1.926  0.00  0.00     0.189 C 
BRANCH   5   6
HETATM    6  C           1     -21.494  -8.405  -0.436  0.00  0.00     0.074 C 
BRANCH   6   7
HETATM    7  C           1     -22.019  -9.771  -0.121  0.00  0.00    -0.056 A 
HETATM    8  C           1     -23.358 -10.077  -0.365  0.00  0.00     0.010 A 
HETATM    9  C           1     -23.847 -11.350  -0.072  0.00  0.00     0.037 A 
HETATM   10  C           1     -22.998 -12.317   0.464  0.00  0.00     0.065 A 
HETATM   11  C           1     -21.659 -12.011   0.708  0.00  0.00     0.037 A 
HETATM   12  C           1     -21.169 -10.739   0.415  0.00  0.00     0.010 A 
BRANCH  10  13
HETATM   13  O           1     -23.473 -13.553   0.749  0.00  0.00    -0.361 OA
HETATM   14  H           1     -24.438 -13.489   0.846  0.00  0.00     0.217 HD
ENDBRANCH  10  13
ENDBRANCH   6   7
ENDBRANCH   5   6
BRANCH   5  15
HETATM   15  C           1     -22.016  -6.683  -2.137  0.00  0.00     0.197 C 
HETATM   16  O           1     -21.941  -6.179  -3.278  0.00  0.00    -0.646 OA
HETATM   17  O           1     -22.394  -5.987  -1.169  0.00  0.00    -0.646 OA
ENDBRANCH   5  15
ENDBRANCH   3   5
BRANCH   4  18
HETATM   18  C           1     -19.008  -9.771  -4.166  0.00  0.00     0.283 C 
BRANCH  18  19
HETATM   19  N           1     -18.971  -9.044  -5.477  0.00  0.00    -0.066 N 
HETATM   20  H           1     -18.243  -8.294  -5.438  0.00  0.00     0.275 HD
HETATM   21  H           1     -18.738  -9.716  -6.242  0.00  0.00     0.275 HD
HETATM   22  H           1     -19.903  -8.612  -5.664  0.00  0.00     0.275 HD
ENDBRANCH  18  19
BRANCH  18  23
HETATM   23  C           1     -17.846  -9.310  -3.296  0.00  0.00     0.145 C 
BRANCH  23  24
HETATM   24  C           1     -16.615 -10.117  -3.632  0.00  0.00     0.217 C 
HETATM   25  O           1     -16.420 -10.477  -4.767  0.00  0.00    -0.274 OA
HETATM   26  N           1     -15.720 -10.438  -2.648  0.00  0.00    -0.370 N 
HETATM   27  H           1     -14.893 -10.979  -2.872  0.00  0.00     0.159 HD
HETATM   28  H           1     -15.883 -10.136  -1.696  0.00  0.00     0.159 HD
ENDBRANCH  23  24
ENDBRANCH  18  23
ENDBRANCH   4  18
TORSDOF 9
ENDMDL
MODEL 7
REMARK VINA RESULT:      -5.9      3.634      6.873
REMARK  9 active torsions:
REMARK  status: ('A' for Active; 'I' for Inactive)
REMARK    1  A    between atoms: N_7  and  C_27 
REMARK       I    between atoms: N_9  and  C_11 
REMARK    2  A    between atoms: C_11  and  C_28 
REMARK    3  A    between atoms: O_12  and  C_19 
REMARK    4  A    between atoms: C_16  and  C_20 
REMARK    5  A    between atoms: C_20  and  C_21 
REMARK    6  A    between atoms: C_21  and  C_22 
REMARK    7  A    between atoms: C_21  and  N_25 
REMARK       I    between atoms: N_25  and  C_26 
REMARK    8  A    between atoms: C_26  and  C_27 
REMARK    9  A    between atoms: C_27  and  C_28 
ROOT
HETATM    1  H           1     -22.407  -9.129  -3.787  0.00  0.00     0.163 HD
HETATM    2  O           1     -19.798  -8.876  -5.511  0.00  0.00    -0.271 OA
HETATM    3  N           1     -21.615  -8.678  -4.229  0.00  0.00    -0.344 N 
HETATM    4  C           1     -20.743  -9.413  -4.986  0.00  0.00     0.249 C 
ENDROOT
BRANCH   3   5
HETATM    5  C           1     -21.403  -7.254  -4.057  0.00  0.00     0.189 C 
BRANCH   5   6
HETATM    6  C           1     -22.392  -6.487  -4.925  0.00  0.00     0.074 C 
BRANCH   6   7
HETATM    7  C           1     -21.644  -5.645  -5.911  0.00  0.00    -0.056 A 
HETATM    8  C           1     -22.341  -4.910  -6.871  0.00  0.00     0.010 A 
HETATM    9  C           1     -21.645  -4.125  -7.790  0.00  0.00     0.037 A 
HETATM   10  C           1     -20.252  -4.073  -7.748  0.00  0.00     0.065 A 
HETATM   11  C           1     -19.555  -4.808  -6.789  0.00  0.00     0.037 A 
HETATM   12  C           1     -20.251  -5.593  -5.870  0.00  0.00     0.010 A 
BRANCH  10  13
HETATM   13  O           1     -19.576  -3.311  -8.641  0.00  0.00    -0.361 OA
HETATM   14  H           1     -19.155  -2.581  -8.155  0.00  0.00     0.217 HD
ENDBRANCH  10  13
ENDBRANCH   6   7
ENDBRANCH   5   6
BRANCH   5  15
HETATM   15  C           1     -21.612  -6.885  -2.609  0.00  0.00     0.197 C 
HETATM   16  O           1     -22.392  -5.958  -2.307  0.00  0.00    -0.646 OA
HETATM   17  O           1     -21.003  -7.508  -1.711  0.00  0.00    -0.646 OA
ENDBRANCH   5  15
ENDBRANCH   3   5
BRANCH   4  18
HETATM   18  C           1     -20.963 -10.896  -5.164  0.00  0.00     0.283 C 
BRANCH  18  19
HETATM   19  N           1     -21.298 -11.182  -6.598  0.00  0.00    -0.066 N 
HETATM   20  H           1     -21.140 -10.322  -7.170  0.00  0.00     0.275 HD
HETATM   21  H           1     -20.687 -11.953  -6.950  0.00  0.00     0.275 HD
HETATM   22  H           1     -22.299 -11.470  -6.671  0.00  0.00     0.275 HD
ENDBRANCH  18  19
BRANCH  18  23
HETATM   23  C           1     -19.695 -11.647  -4.779  0.00  0.00     0.145 C 
BRANCH  23  24
HETATM   24  C           1     -18.938 -12.030  -6.028  0.00  0.00     0.217 C 
HETATM   25  O           1     -19.203 -13.057  -6.603  0.00  0.00    -0.274 OA
HETATM   26  N           1     -17.952 -11.210  -6.507  0.00  0.00    -0.370 N 
HETATM   27  H           1     -17.444 -11.465  -7.345  0.00  0.00     0.159 HD
HETATM   28  H           1     -17.730 -10.349  -6.024  0.00  0.00     0.159 HD
ENDBRANCH  23  24
ENDBRANCH  18  23
ENDBRANCH   4  18
TORSDOF 9
ENDMDL
MODEL 8
REMARK VINA RESULT:      -5.8      5.582      7.727
REMARK  9 active torsions:
REMARK  status: ('A' for Active; 'I' for Inactive)
REMARK    1  A    between atoms: N_7  and  C_27 
REMARK       I    between atoms: N_9  and  C_11 
REMARK    2  A    between atoms: C_11  and  C_28 
REMARK    3  A    between atoms: O_12  and  C_19 
REMARK    4  A    between atoms: C_16  and  C_20 
REMARK    5  A    between atoms: C_20  and  C_21 
REMARK    6  A    between atoms: C_21  and  C_22 
REMARK    7  A    between atoms: C_21  and  N_25 
REMARK       I    between atoms: N_25  and  C_26 
REMARK    8  A    between atoms: C_26  and  C_27 
REMARK    9  A    between atoms: C_27  and  C_28 
ROOT
HETATM    1  H           1     -17.887  -8.790  -4.828  0.00  0.00     0.163 HD
HETATM    2  O           1     -18.251 -10.445  -2.188  0.00  0.00    -0.271 OA
HETATM    3  N           1     -18.376  -9.273  -4.084  0.00  0.00    -0.344 N 
HETATM    4  C           1     -17.668  -9.869  -3.074  0.00  0.00     0.249 C 
ENDROOT
BRANCH   3   5
HETATM    5  C           1     -19.824  -9.336  -4.089  0.00  0.00     0.189 C 
BRANCH   5   6
HETATM    6  C           1     -20.392  -7.943  -3.850  0.00  0.00     0.074 C 
BRANCH   6   7
HETATM    7  C           1     -21.211  -7.944  -2.597  0.00  0.00    -0.056 A 
HETATM    8  C           1     -21.488  -9.147  -1.947  0.00  0.00     0.010 A 
HETATM    9  C           1     -22.251  -9.149  -0.780  0.00  0.00     0.037 A 
HETATM   10  C           1     -22.736  -7.948  -0.261  0.00  0.00     0.065 A 
HETATM   11  C           1     -22.459  -6.745  -0.912  0.00  0.00     0.037 A 
HETATM   12  C           1     -21.696  -6.743  -2.079  0.00  0.00     0.010 A 
BRANCH  10  13
HETATM   13  O           1     -23.477  -7.950   0.872  0.00  0.00    -0.361 OA
HETATM   14  H           1     -23.450  -8.846   1.249  0.00  0.00     0.217 HD
ENDBRANCH  10  13
ENDBRANCH   6   7
ENDBRANCH   5   6
BRANCH   5  15
HETATM   15  C           1     -20.301  -9.853  -5.424  0.00  0.00     0.197 C 
HETATM   16  O           1     -21.310  -9.351  -5.964  0.00  0.00    -0.646 OA
HETATM   17  O           1     -19.686 -10.783  -5.990  0.00  0.00    -0.646 OA
ENDBRANCH   5  15
ENDBRANCH   3   5
BRANCH   4  18
HETATM   18  C           1     -16.160  -9.804  -3.070  0.00  0.00     0.283 C 
BRANCH  18  19
HETATM   19  N           1     -15.627 -10.654  -1.955  0.00  0.00    -0.066 N 
HETATM   20  H           1     -14.626 -10.409  -1.780  0.00  0.00     0.275 HD
HETATM   21  H           1     -16.186 -10.483  -1.089  0.00  0.00     0.275 HD
HETATM   22  H           1     -15.696 -11.662  -2.222  0.00  0.00     0.275 HD
ENDBRANCH  18  19
BRANCH  18  23
HETATM   23  C           1     -15.626 -10.317  -4.400  0.00  0.00     0.145 C 
BRANCH  23  24
HETATM   24  C           1     -16.049 -11.753  -4.592  0.00  0.00     0.217 C 
HETATM   25  O           1     -15.563 -12.622  -3.909  0.00  0.00    -0.274 OA
HETATM   26  N           1     -16.984 -12.070  -5.539  0.00  0.00    -0.370 N 
HETATM   27  H           1     -17.269 -13.033  -5.668  0.00  0.00     0.159 HD
HETATM   28  H           1     -17.392 -11.342  -6.112  0.00  0.00     0.159 HD
ENDBRANCH  23  24
ENDBRANCH  18  23
ENDBRANCH   4  18
TORSDOF 9
ENDMDL
MODEL 9
REMARK VINA RESULT:      -5.6      4.995      7.364
REMARK  9 active torsions:
REMARK  status: ('A' for Active; 'I' for Inactive)
REMARK    1  A    between atoms: N_7  and  C_27 
REMARK       I    between atoms: N_9  and  C_11 
REMARK    2  A    between atoms: C_11  and  C_28 
REMARK    3  A    between atoms: O_12  and  C_19 
REMARK    4  A    between atoms: C_16  and  C_20 
REMARK    5  A    between atoms: C_20  and  C_21 
REMARK    6  A    between atoms: C_21  and  C_22 
REMARK    7  A    between atoms: C_21  and  N_25 
REMARK       I    between atoms: N_25  and  C_26 
REMARK    8  A    between atoms: C_26  and  C_27 
REMARK    9  A    between atoms: C_27  and  C_28 
ROOT
HETATM    1  H           1     -21.127 -10.518  -2.466  0.00  0.00     0.163 HD
HETATM    2  O           1     -18.275  -9.218  -2.614  0.00  0.00    -0.271 OA
HETATM    3  N           1     -20.133 -10.415  -2.299  0.00  0.00    -0.344 N 
HETATM    4  C           1     -19.460  -9.339  -2.812  0.00  0.00     0.249 C 
ENDROOT
BRANCH   3   5
HETATM    5  C           1     -19.423 -11.409  -1.518  0.00  0.00     0.189 C 
BRANCH   5   6
HETATM    6  C           1     -20.158 -11.641  -0.204  0.00  0.00     0.074 C 
BRANCH   6   7
HETATM    7  C           1     -21.153 -10.544   0.013  0.00  0.00    -0.056 A 
HETATM    8  C           1     -22.482 -10.722  -0.372  0.00  0.00     0.010 A 
HETATM    9  C           1     -23.409  -9.701  -0.170  0.00  0.00     0.037 A 
HETATM   10  C           1     -23.009  -8.502   0.419  0.00  0.00     0.065 A 
HETATM   11  C           1     -21.680  -8.323   0.804  0.00  0.00     0.037 A 
HETATM   12  C           1     -20.752  -9.345   0.602  0.00  0.00     0.010 A 
BRANCH  10  13
HETATM   13  O           1     -23.909  -7.509   0.616  0.00  0.00    -0.361 OA
HETATM   14  H           1     -23.419  -6.683   0.763  0.00  0.00     0.217 HD
ENDBRANCH  10  13
ENDBRANCH   6   7
ENDBRANCH   5   6
BRANCH   5  15
HETATM   15  C           1     -19.355 -12.703  -2.293  0.00  0.00     0.197 C 
HETATM   16  O           1     -18.992 -13.754  -1.723  0.00  0.00    -0.646 OA
HETATM   17  O           1     -19.662 -12.722  -3.505  0.00  0.00    -0.646 OA
ENDBRANCH   5  15
ENDBRANCH   3   5
BRANCH   4  18
HETATM   18  C           1     -20.199  -8.304  -3.625  0.00  0.00     0.283 C 
BRANCH  18  19
HETATM   19  N           1     -20.432  -8.831  -5.010  0.00  0.00    -0.066 N 
HETATM   20  H           1     -21.444  -9.067  -5.126  0.00  0.00     0.275 HD
HETATM   21  H           1     -20.161  -8.103  -5.709  0.00  0.00     0.275 HD
HETATM   22  H           1     -19.856  -9.689  -5.159  0.00  0.00     0.275 HD
ENDBRANCH  18  19
BRANCH  18  23
HETATM   23  C           1     -21.538  -8.002  -2.965  0.00  0.00     0.145 C 
BRANCH  23  24
HETATM   24  C           1     -21.792  -6.514  -3.001  0.00  0.00     0.217 C 
HETATM   25  O           1     -21.529  -5.881  -3.994  0.00  0.00    -0.274 OA
HETATM   26  N           1     -22.321  -5.885  -1.907  0.00  0.00    -0.370 N 
HETATM   27  H           1     -22.493  -4.887  -1.930  0.00  0.00     0.159 HD
HETATM   28  H           1     -22.542  -6.416  -1.074  0.00  0.00     0.159 HD
ENDBRANCH  23  24
ENDBRANCH  18  23
ENDBRANCH   4  18
TORSDOF 9
ENDMDL
