MODEL 1
REMARK VINA RESULT:      -6.4      0.000      0.000
REMARK  8 active torsions:
REMARK  status: ('A' for Active; 'I' for Inactive)
REMARK    1  A    between atoms: C_1  and  C_14 
REMARK    2  A    between atoms: C_4  and  C_21 
REMARK    3  A    between atoms: C_7  and  C_20 
REMARK    4  A    between atoms: C_9  and  C_10 
REMARK    5  A    between atoms: C_9  and  C_20 
REMARK    6  A    between atoms: C_9  and  N_12 
REMARK       I    between atoms: C_10  and  N_11 
REMARK    7  A    between atoms: N_11  and  C_21 
REMARK    8  A    between atoms: C_14  and  C_21 
ROOT
HETATM    1  C           1     -36.378  -0.382 -12.999  0.00  0.00     0.249 C 
HETATM    2  N           1     -35.595  -0.741 -11.935  0.00  0.00    -0.344 N 
HETATM    3  O           1     -37.519  -0.771 -13.067  0.00  0.00    -0.271 OA
HETATM    4  H           1     -34.638  -0.416 -11.878  0.00  0.00     0.163 HD
ENDROOT
BRANCH   1   5
HETATM    5  C           1     -35.814   0.500 -14.086  0.00  0.00     0.284 C 
BRANCH   5   6
HETATM    6  C           1     -35.495  -0.347 -15.312  0.00  0.00     0.155 C 
BRANCH   6   7
HETATM    7  C           1     -36.622  -0.234 -16.309  0.00  0.00     0.175 C 
HETATM    8  O           1     -36.662  -0.998 -17.297  0.00  0.00    -0.648 OA
HETATM    9  O           1     -37.517   0.623 -16.146  0.00  0.00    -0.648 OA
ENDBRANCH   6   7
ENDBRANCH   5   6
BRANCH   5  10
HETATM   10  N           1     -34.560   1.158 -13.594  0.00  0.00    -0.066 N 
HETATM   11  H           1     -33.903   1.302 -14.396  0.00  0.00     0.275 HD
HETATM   12  H           1     -34.796   2.083 -13.169  0.00  0.00     0.275 HD
HETATM   13  H           1     -34.104   0.550 -12.877  0.00  0.00     0.275 HD
ENDBRANCH   5  10
ENDBRANCH   1   5
BRANCH   2  14
HETATM   14  C           1     -36.135  -1.589 -10.890  0.00  0.00     0.189 C 
BRANCH  14  15
HETATM   15  C           1     -36.573  -0.733  -9.726  0.00  0.00     0.197 C 
HETATM   16  O           1     -37.775  -0.412  -9.606  0.00  0.00    -0.646 OA
HETATM   17  O           1     -35.734  -0.346  -8.884  0.00  0.00    -0.646 OA
ENDBRANCH  14  15
BRANCH  14  18
HETATM   18  C           1     -35.064  -2.567 -10.426  0.00  0.00     0.014 C 
HETATM   19  C           1     -35.432  -3.974 -10.879  0.00  0.00     0.012 C 
BRANCH  18  20
HETATM   20  C           1     -33.722  -2.173 -11.029  0.00  0.00     0.002 C 
HETATM   21  C           1     -32.990  -3.423 -11.500  0.00  0.00     0.005 C 
ENDBRANCH  18  20
ENDBRANCH  14  18
ENDBRANCH   2  14
TORSDOF 8
ENDMDL
MODEL 2
REMARK VINA RESULT:      -6.2      2.917      5.529
REMARK  8 active torsions:
REMARK  status: ('A' for Active; 'I' for Inactive)
REMARK    1  A    between atoms: C_1  and  C_14 
REMARK    2  A    between atoms: C_4  and  C_21 
REMARK    3  A    between atoms: C_7  and  C_20 
REMARK    4  A    between atoms: C_9  and  C_10 
REMARK    5  A    between atoms: C_9  and  C_20 
REMARK    6  A    between atoms: C_9  and  N_12 
REMARK       I    between atoms: C_10  and  N_11 
REMARK    7  A    between atoms: N_11  and  C_21 
REMARK    8  A    between atoms: C_14  and  C_21 
ROOT
HETATM    1  C           1     -34.145  -2.533 -11.616  0.00  0.00     0.249 C 
HETATM    2  N           1     -35.086  -1.883 -12.368  0.00  0.00    -0.344 N 
HETATM    3  O           1     -33.485  -1.918 -10.813  0.00  0.00    -0.271 OA
HETATM    4  H           1     -35.639  -2.398 -13.042  0.00  0.00     0.163 HD
ENDROOT
BRANCH   1   5
HETATM    5  C           1     -33.933  -4.017 -11.790  0.00  0.00     0.284 C 
BRANCH   5   6
HETATM    6  C           1     -34.070  -4.711 -10.440  0.00  0.00     0.155 C 
BRANCH   6   7
HETATM    7  C           1     -34.591  -6.113 -10.645  0.00  0.00     0.175 C 
HETATM    8  O           1     -34.763  -6.865  -9.663  0.00  0.00    -0.648 OA
HETATM    9  O           1     -34.853  -6.520 -11.798  0.00  0.00    -0.648 OA
ENDBRANCH   6   7
ENDBRANCH   5   6
BRANCH   5  10
HETATM   10  N           1     -32.561  -4.264 -12.341  0.00  0.00    -0.066 N 
HETATM   11  H           1     -32.066  -4.967 -11.746  0.00  0.00     0.275 HD
HETATM   12  H           1     -32.638  -4.627 -13.318  0.00  0.00     0.275 HD
HETATM   13  H           1     -32.020  -3.370 -12.343  0.00  0.00     0.275 HD
ENDBRANCH   5  10
ENDBRANCH   1   5
BRANCH   2  14
HETATM   14  C           1     -35.290  -0.458 -12.202  0.00  0.00     0.189 C 
BRANCH  14  15
HETATM   15  C           1     -36.433  -0.223 -11.245  0.00  0.00     0.197 C 
HETATM   16  O           1     -36.328   0.639 -10.346  0.00  0.00    -0.646 OA
HETATM   17  O           1     -37.485  -0.890 -11.352  0.00  0.00    -0.646 OA
ENDBRANCH  14  15
BRANCH  14  18
HETATM   18  C           1     -35.620   0.168 -13.551  0.00  0.00     0.014 C 
HETATM   19  C           1     -34.615   1.269 -13.858  0.00  0.00     0.012 C 
BRANCH  18  20
HETATM   20  C           1     -35.553  -0.900 -14.635  0.00  0.00     0.002 C 
HETATM   21  C           1     -35.966  -0.294 -15.970  0.00  0.00     0.005 C 
ENDBRANCH  18  20
ENDBRANCH  14  18
ENDBRANCH   2  14
TORSDOF 8
ENDMDL
MODEL 3
REMARK VINA RESULT:      -6.0      1.851      2.437
REMARK  8 active torsions:
REMARK  status: ('A' for Active; 'I' for Inactive)
REMARK    1  A    between atoms: C_1  and  C_14 
REMARK    2  A    between atoms: C_4  and  C_21 
REMARK    3  A    between atoms: C_7  and  C_20 
REMARK    4  A    between atoms: C_9  and  C_10 
REMARK    5  A    between atoms: C_9  and  C_20 
REMARK    6  A    between atoms: C_9  and  N_12 
REMARK       I    between atoms: C_10  and  N_11 
REMARK    7  A    between atoms: N_11  and  C_21 
REMARK    8  A    between atoms: C_14  and  C_21 
ROOT
HETATM    1  C           1     -35.636  -0.393 -12.384  0.00  0.00     0.249 C 
HETATM    2  N           1     -35.189  -1.685 -12.460  0.00  0.00    -0.344 N 
HETATM    3  O           1     -35.927   0.083 -11.312  0.00  0.00    -0.271 OA
HETATM    4  H           1     -34.947  -2.085 -13.358  0.00  0.00     0.163 HD
ENDROOT
BRANCH   1   5
HETATM    5  C           1     -35.765   0.435 -13.638  0.00  0.00     0.284 C 
BRANCH   5   6
HETATM    6  C           1     -36.753  -0.232 -14.587  0.00  0.00     0.155 C 
BRANCH   6   7
HETATM    7  C           1     -36.008  -0.798 -15.772  0.00  0.00     0.175 C 
HETATM    8  O           1     -36.136  -0.275 -16.899  0.00  0.00    -0.648 OA
HETATM    9  O           1     -35.262  -1.790 -15.625  0.00  0.00    -0.648 OA
ENDBRANCH   6   7
ENDBRANCH   5   6
BRANCH   5  10
HETATM   10  N           1     -34.426   0.543 -14.305  0.00  0.00    -0.066 N 
HETATM   11  H           1     -33.897   1.348 -13.898  0.00  0.00     0.275 HD
HETATM   12  H           1     -33.889  -0.340 -14.151  0.00  0.00     0.275 HD
HETATM   13  H           1     -34.558   0.697 -15.330  0.00  0.00     0.275 HD
ENDBRANCH   5  10
ENDBRANCH   1   5
BRANCH   2  14
HETATM   14  C           1     -35.066  -2.482 -11.255  0.00  0.00     0.189 C 
BRANCH  14  15
HETATM   15  C           1     -33.731  -2.207 -10.606  0.00  0.00     0.197 C 
HETATM   16  O           1     -32.676  -2.565 -11.172  0.00  0.00    -0.646 OA
HETATM   17  O           1     -33.682  -1.621  -9.503  0.00  0.00    -0.646 OA
ENDBRANCH  14  15
BRANCH  14  18
HETATM   18  C           1     -35.162  -3.959 -11.613  0.00  0.00     0.014 C 
HETATM   19  C           1     -34.394  -4.220 -12.901  0.00  0.00     0.012 C 
BRANCH  18  20
HETATM   20  C           1     -34.566  -4.794 -10.486  0.00  0.00     0.002 C 
HETATM   21  C           1     -33.759  -5.943 -11.078  0.00  0.00     0.005 C 
ENDBRANCH  18  20
ENDBRANCH  14  18
ENDBRANCH   2  14
TORSDOF 8
ENDMDL
MODEL 4
REMARK VINA RESULT:      -5.9      1.937      2.356
REMARK  8 active torsions:
REMARK  status: ('A' for Active; 'I' for Inactive)
REMARK    1  A    between atoms: C_1  and  C_14 
REMARK    2  A    between atoms: C_4  and  C_21 
REMARK    3  A    between atoms: C_7  and  C_20 
REMARK    4  A    between atoms: C_9  and  C_10 
REMARK    5  A    between atoms: C_9  and  C_20 
REMARK    6  A    between atoms: C_9  and  N_12 
REMARK       I    between atoms: C_10  and  N_11 
REMARK    7  A    between atoms: N_11  and  C_21 
REMARK    8  A    between atoms: C_14  and  C_21 
ROOT
HETATM    1  C           1     -35.520  -1.189 -13.656  0.00  0.00     0.249 C 
HETATM    2  N           1     -35.468  -1.667 -12.374  0.00  0.00    -0.344 N 
HETATM    3  O           1     -35.089  -1.856 -14.566  0.00  0.00    -0.271 OA
HETATM    4  H           1     -35.829  -1.108 -11.611  0.00  0.00     0.163 HD
ENDROOT
BRANCH   1   5
HETATM    5  C           1     -36.115   0.170 -13.931  0.00  0.00     0.284 C 
BRANCH   5   6
HETATM    6  C           1     -37.578   0.012 -14.328  0.00  0.00     0.155 C 
BRANCH   6   7
HETATM    7  C           1     -37.728   0.264 -15.808  0.00  0.00     0.175 C 
HETATM    8  O           1     -37.510  -0.657 -16.624  0.00  0.00    -0.648 OA
HETATM    9  O           1     -38.074   1.393 -16.218  0.00  0.00    -0.648 OA
ENDBRANCH   6   7
ENDBRANCH   5   6
BRANCH   5  10
HETATM   10  N           1     -35.363   0.827 -15.050  0.00  0.00    -0.066 N 
HETATM   11  H           1     -34.651   1.483 -14.653  0.00  0.00     0.275 HD
HETATM   12  H           1     -34.882   0.097 -15.622  0.00  0.00     0.275 HD
HETATM   13  H           1     -36.029   1.361 -15.652  0.00  0.00     0.275 HD
ENDBRANCH   5  10
ENDBRANCH   1   5
BRANCH   2  14
HETATM   14  C           1     -34.896  -2.972 -12.108  0.00  0.00     0.189 C 
BRANCH  14  15
HETATM   15  C           1     -35.712  -3.671 -11.048  0.00  0.00     0.197 C 
HETATM   16  O           1     -36.613  -3.051 -10.443  0.00  0.00    -0.646 OA
HETATM   17  O           1     -35.486  -4.870 -10.775  0.00  0.00    -0.646 OA
ENDBRANCH  14  15
BRANCH  14  18
HETATM   18  C           1     -33.463  -2.807 -11.620  0.00  0.00     0.014 C 
HETATM   19  C           1     -33.443  -1.892 -10.404  0.00  0.00     0.012 C 
BRANCH  18  20
HETATM   20  C           1     -32.895  -4.169 -11.243  0.00  0.00     0.002 C 
HETATM   21  C           1     -32.025  -4.690 -12.379  0.00  0.00     0.005 C 
ENDBRANCH  18  20
ENDBRANCH  14  18
ENDBRANCH   2  14
TORSDOF 8
ENDMDL
MODEL 5
REMARK VINA RESULT:      -5.8      2.127      5.336
REMARK  8 active torsions:
REMARK  status: ('A' for Active; 'I' for Inactive)
REMARK    1  A    between atoms: C_1  and  C_14 
REMARK    2  A    between atoms: C_4  and  C_21 
REMARK    3  A    between atoms: C_7  and  C_20 
REMARK    4  A    between atoms: C_9  and  C_10 
REMARK    5  A    between atoms: C_9  and  C_20 
REMARK    6  A    between atoms: C_9  and  N_12 
REMARK       I    between atoms: C_10  and  N_11 
REMARK    7  A    between atoms: N_11  and  C_21 
REMARK    8  A    between atoms: C_14  and  C_21 
ROOT
HETATM    1  C           1     -36.514   0.027 -10.788  0.00  0.00     0.249 C 
HETATM    2  N           1     -36.188  -1.208 -11.281  0.00  0.00    -0.344 N 
HETATM    3  O           1     -35.858   0.992 -11.096  0.00  0.00    -0.271 OA
HETATM    4  H           1     -36.737  -2.018 -11.022  0.00  0.00     0.163 HD
ENDROOT
BRANCH   1   5
HETATM    5  C           1     -37.694   0.180  -9.859  0.00  0.00     0.284 C 
BRANCH   5   6
HETATM    6  C           1     -37.564   1.485  -9.085  0.00  0.00     0.155 C 
BRANCH   6   7
HETATM    7  C           1     -36.972   1.207  -7.725  0.00  0.00     0.175 C 
HETATM    8  O           1     -35.788   0.820  -7.626  0.00  0.00    -0.648 OA
HETATM    9  O           1     -37.664   1.367  -6.696  0.00  0.00    -0.648 OA
ENDBRANCH   6   7
ENDBRANCH   5   6
BRANCH   5  10
HETATM   10  N           1     -37.724  -0.971  -8.897  0.00  0.00    -0.066 N 
HETATM   11  H           1     -37.881  -1.861  -9.423  0.00  0.00     0.275 HD
HETATM   12  H           1     -36.813  -1.023  -8.388  0.00  0.00     0.275 HD
HETATM   13  H           1     -38.501  -0.832  -8.212  0.00  0.00     0.275 HD
ENDBRANCH   5  10
ENDBRANCH   1   5
BRANCH   2  14
HETATM   14  C           1     -35.054  -1.357 -12.173  0.00  0.00     0.189 C 
BRANCH  14  15
HETATM   15  C           1     -35.548  -1.502 -13.591  0.00  0.00     0.197 C 
HETATM   16  O           1     -34.855  -2.112 -14.434  0.00  0.00    -0.646 OA
HETATM   17  O           1     -36.650  -1.013 -13.923  0.00  0.00    -0.646 OA
ENDBRANCH  14  15
BRANCH  14  18
HETATM   18  C           1     -34.260  -2.596 -11.781  0.00  0.00     0.014 C 
HETATM   19  C           1     -33.252  -2.231 -10.699  0.00  0.00     0.012 C 
BRANCH  18  20
HETATM   20  C           1     -35.211  -3.662 -11.253  0.00  0.00     0.002 C 
HETATM   21  C           1     -34.406  -4.832 -10.702  0.00  0.00     0.005 C 
ENDBRANCH  18  20
ENDBRANCH  14  18
ENDBRANCH   2  14
TORSDOF 8
ENDMDL
MODEL 6
REMARK VINA RESULT:      -5.7     14.764     16.979
REMARK  8 active torsions:
REMARK  status: ('A' for Active; 'I' for Inactive)
REMARK    1  A    between atoms: C_1  and  C_14 
REMARK    2  A    between atoms: C_4  and  C_21 
REMARK    3  A    between atoms: C_7  and  C_20 
REMARK    4  A    between atoms: C_9  and  C_10 
REMARK    5  A    between atoms: C_9  and  C_20 
REMARK    6  A    between atoms: C_9  and  N_12 
REMARK       I    between atoms: C_10  and  N_11 
REMARK    7  A    between atoms: N_11  and  C_21 
REMARK    8  A    between atoms: C_14  and  C_21 
ROOT
HETATM    1  C           1     -21.098  -5.285  -6.217  0.00  0.00     0.249 C 
HETATM    2  N           1     -21.582  -6.332  -5.478  0.00  0.00    -0.344 N 
HETATM    3  O           1     -19.921  -5.018  -6.185  0.00  0.00    -0.271 OA
HETATM    4  H           1     -22.568  -6.556  -5.503  0.00  0.00     0.163 HD
ENDROOT
BRANCH   1   5
HETATM    5  C           1     -22.037  -4.468  -7.070  0.00  0.00     0.284 C 
BRANCH   5   6
HETATM    6  C           1     -22.043  -5.019  -8.489  0.00  0.00     0.155 C 
BRANCH   6   7
HETATM    7  C           1     -22.535  -3.956  -9.441  0.00  0.00     0.175 C 
HETATM    8  O           1     -23.711  -3.540  -9.359  0.00  0.00    -0.648 OA
HETATM    9  O           1     -21.766  -3.489 -10.309  0.00  0.00    -0.648 OA
ENDBRANCH   6   7
ENDBRANCH   5   6
BRANCH   5  10
HETATM   10  N           1     -21.576  -3.040  -7.090  0.00  0.00    -0.066 N 
HETATM   11  H           1     -22.397  -2.411  -7.250  0.00  0.00     0.275 HD
HETATM   12  H           1     -21.130  -2.805  -6.175  0.00  0.00     0.275 HD
HETATM   13  H           1     -20.883  -2.909  -7.861  0.00  0.00     0.275 HD
ENDBRANCH   5  10
ENDBRANCH   1   5
BRANCH   2  14
HETATM   14  C           1     -20.681  -7.118  -4.658  0.00  0.00     0.189 C 
BRANCH  14  15
HETATM   15  C           1     -20.277  -8.364  -5.409  0.00  0.00     0.197 C 
HETATM   16  O           1     -19.076  -8.556  -5.699  0.00  0.00    -0.646 OA
HETATM   17  O           1     -21.143  -9.202  -5.741  0.00  0.00    -0.646 OA
ENDBRANCH  14  15
BRANCH  14  18
HETATM   18  C           1     -21.384  -7.510  -3.365  0.00  0.00     0.014 C 
HETATM   19  C           1     -20.402  -8.230  -2.452  0.00  0.00     0.012 C 
BRANCH  18  20
HETATM   20  C           1     -21.902  -6.258  -2.670  0.00  0.00     0.002 C 
HETATM   21  C           1     -22.296  -6.598  -1.238  0.00  0.00     0.005 C 
ENDBRANCH  18  20
ENDBRANCH  14  18
ENDBRANCH   2  14
TORSDOF 8
ENDMDL
MODEL 7
REMARK VINA RESULT:      -5.6      2.634      3.991
REMARK  8 active torsions:
REMARK  status: ('A' for Active; 'I' for Inactive)
REMARK    1  A    between atoms: C_1  and  C_14 
REMARK    2  A    between atoms: C_4  and  C_21 
REMARK    3  A    between atoms: C_7  and  C_20 
REMARK    4  A    between atoms: C_9  and  C_10 
REMARK    5  A    between atoms: C_9  and  C_20 
REMARK    6  A    between atoms: C_9  and  N_12 
REMARK       I    between atoms: C_10  and  N_11 
REMARK    7  A    between atoms: N_11  and  C_21 
REMARK    8  A    between atoms: C_14  and  C_21 
ROOT
HETATM    1  C           1     -35.202  -1.683 -11.022  0.00  0.00     0.249 C 
HETATM    2  N           1     -35.276  -2.924 -11.597  0.00  0.00    -0.344 N 
HETATM    3  O           1     -34.325  -1.437 -10.229  0.00  0.00    -0.271 OA
HETATM    4  H           1     -36.011  -3.131 -12.261  0.00  0.00     0.163 HD
ENDROOT
BRANCH   1   5
HETATM    5  C           1     -36.215  -0.624 -11.381  0.00  0.00     0.284 C 
BRANCH   5   6
HETATM    6  C           1     -35.726   0.157 -12.593  0.00  0.00     0.155 C 
BRANCH   6   7
HETATM    7  C           1     -36.684  -0.044 -13.742  0.00  0.00     0.175 C 
HETATM    8  O           1     -37.704  -0.747 -13.589  0.00  0.00    -0.648 OA
HETATM    9  O           1     -36.457   0.496 -14.847  0.00  0.00    -0.648 OA
ENDBRANCH   6   7
ENDBRANCH   5   6
BRANCH   5  10
HETATM   10  N           1     -36.391   0.311 -10.221  0.00  0.00    -0.066 N 
HETATM   11  H           1     -36.534  -0.242  -9.345  0.00  0.00     0.275 HD
HETATM   12  H           1     -35.538   0.906 -10.122  0.00  0.00     0.275 HD
HETATM   13  H           1     -37.224   0.919 -10.387  0.00  0.00     0.275 HD
ENDBRANCH   5  10
ENDBRANCH   1   5
BRANCH   2  14
HETATM   14  C           1     -34.303  -3.942 -11.253  0.00  0.00     0.189 C 
BRANCH  14  15
HETATM   15  C           1     -33.291  -4.065 -12.366  0.00  0.00     0.197 C 
HETATM   16  O           1     -32.145  -4.498 -12.122  0.00  0.00    -0.646 OA
HETATM   17  O           1     -33.601  -3.734 -13.531  0.00  0.00    -0.646 OA
ENDBRANCH  14  15
BRANCH  14  18
HETATM   18  C           1     -35.012  -5.276 -11.060  0.00  0.00     0.014 C 
HETATM   19  C           1     -35.108  -5.997 -12.398  0.00  0.00     0.012 C 
BRANCH  18  20
HETATM   20  C           1     -34.225  -6.132 -10.076  0.00  0.00     0.002 C 
HETATM   21  C           1     -34.858  -7.514  -9.985  0.00  0.00     0.005 C 
ENDBRANCH  18  20
ENDBRANCH  14  18
ENDBRANCH   2  14
TORSDOF 8
ENDMDL
MODEL 8
REMARK VINA RESULT:      -5.5     15.642     17.504
REMARK  8 active torsions:
REMARK  status: ('A' for Active; 'I' for Inactive)
REMARK    1  A    between atoms: C_1  and  C_14 
REMARK    2  A    between atoms: C_4  and  C_21 
REMARK    3  A    between atoms: C_7  and  C_20 
REMARK    4  A    between atoms: C_9  and  C_10 
REMARK    5  A    between atoms: C_9  and  C_20 
REMARK    6  A    between atoms: C_9  and  N_12 
REMARK       I    between atoms: C_10  and  N_11 
REMARK    7  A    between atoms: N_11  and  C_21 
REMARK    8  A    between atoms: C_14  and  C_21 
ROOT
HETATM    1  C           1     -21.370  -5.920  -5.491  0.00  0.00     0.249 C 
HETATM    2  N           1     -20.761  -6.766  -4.604  0.00  0.00    -0.344 N 
HETATM    3  O           1     -22.575  -5.837  -5.516  0.00  0.00    -0.271 OA
HETATM    4  H           1     -19.751  -6.837  -4.584  0.00  0.00     0.163 HD
ENDROOT
BRANCH   1   5
HETATM    5  C           1     -20.537  -5.092  -6.439  0.00  0.00     0.284 C 
BRANCH   5   6
HETATM    6  C           1     -21.419  -4.050  -7.113  0.00  0.00     0.155 C 
BRANCH   6   7
HETATM    7  C           1     -21.434  -4.291  -8.603  0.00  0.00     0.175 C 
HETATM    8  O           1     -20.494  -3.874  -9.313  0.00  0.00    -0.648 OA
HETATM    9  O           1     -22.385  -4.911  -9.127  0.00  0.00    -0.648 OA
ENDBRANCH   6   7
ENDBRANCH   5   6
BRANCH   5  10
HETATM   10  N           1     -19.931  -5.985  -7.481  0.00  0.00    -0.066 N 
HETATM   11  H           1     -20.047  -6.984  -7.194  0.00  0.00     0.275 HD
HETATM   12  H           1     -20.411  -5.828  -8.395  0.00  0.00     0.275 HD
HETATM   13  H           1     -18.914  -5.767  -7.578  0.00  0.00     0.275 HD
ENDBRANCH   5  10
ENDBRANCH   1   5
BRANCH   2  14
HETATM   14  C           1     -21.561  -7.562  -3.694  0.00  0.00     0.189 C 
BRANCH  14  15
HETATM   15  C           1     -21.619  -6.880  -2.349  0.00  0.00     0.197 C 
HETATM   16  O           1     -20.960  -7.335  -1.389  0.00  0.00    -0.646 OA
HETATM   17  O           1     -22.325  -5.860  -2.196  0.00  0.00    -0.646 OA
ENDBRANCH  14  15
BRANCH  14  18
HETATM   18  C           1     -20.931  -8.940  -3.539  0.00  0.00     0.014 C 
HETATM   19  C           1     -21.857  -9.990  -4.138  0.00  0.00     0.012 C 
BRANCH  18  20
HETATM   20  C           1     -19.591  -8.970  -4.262  0.00  0.00     0.002 C 
HETATM   21  C           1     -18.495  -9.369  -3.282  0.00  0.00     0.005 C 
ENDBRANCH  18  20
ENDBRANCH  14  18
ENDBRANCH   2  14
TORSDOF 8
ENDMDL
MODEL 9
REMARK VINA RESULT:      -5.3      2.274      4.073
REMARK  8 active torsions:
REMARK  status: ('A' for Active; 'I' for Inactive)
REMARK    1  A    between atoms: C_1  and  C_14 
REMARK    2  A    between atoms: C_4  and  C_21 
REMARK    3  A    between atoms: C_7  and  C_20 
REMARK    4  A    between atoms: C_9  and  C_10 
REMARK    5  A    between atoms: C_9  and  C_20 
REMARK    6  A    between atoms: C_9  and  N_12 
REMARK       I    between atoms: C_10  and  N_11 
REMARK    7  A    between atoms: N_11  and  C_21 
REMARK    8  A    between atoms: C_14  and  C_21 
ROOT
HETATM    1  C           1     -35.600  -1.191 -13.236  0.00  0.00     0.249 C 
HETATM    2  N           1     -35.352  -2.071 -12.216  0.00  0.00    -0.344 N 
HETATM    3  O           1     -35.157  -1.407 -14.339  0.00  0.00    -0.271 OA
HETATM    4  H           1     -35.722  -1.890 -11.292  0.00  0.00     0.163 HD
ENDROOT
BRANCH   1   5
HETATM    5  C           1     -36.425   0.046 -12.982  0.00  0.00     0.284 C 
BRANCH   5   6
HETATM    6  C           1     -37.452  -0.244 -11.894  0.00  0.00     0.155 C 
BRANCH   6   7
HETATM    7  C           1     -36.808  -0.084 -10.538  0.00  0.00     0.175 C 
HETATM    8  O           1     -36.349   1.025 -10.192  0.00  0.00    -0.648 OA
HETATM    9  O           1     -36.736  -1.061  -9.761  0.00  0.00    -0.648 OA
ENDBRANCH   6   7
ENDBRANCH   5   6
BRANCH   5  10
HETATM   10  N           1     -37.133   0.442 -14.244  0.00  0.00    -0.066 N 
HETATM   11  H           1     -36.770   1.367 -14.571  0.00  0.00     0.275 HD
HETATM   12  H           1     -36.961  -0.279 -14.980  0.00  0.00     0.275 HD
HETATM   13  H           1     -38.158   0.516 -14.060  0.00  0.00     0.275 HD
ENDBRANCH   5  10
ENDBRANCH   1   5
BRANCH   2  14
HETATM   14  C           1     -34.559  -3.260 -12.460  0.00  0.00     0.189 C 
BRANCH  14  15
HETATM   15  C           1     -35.268  -4.462 -11.887  0.00  0.00     0.197 C 
HETATM   16  O           1     -35.173  -5.572 -12.453  0.00  0.00    -0.646 OA
HETATM   17  O           1     -35.952  -4.347 -10.846  0.00  0.00    -0.646 OA
ENDBRANCH  14  15
BRANCH  14  18
HETATM   18  C           1     -33.198  -3.106 -11.793  0.00  0.00     0.014 C 
HETATM   19  C           1     -33.338  -2.236 -10.551  0.00  0.00     0.012 C 
BRANCH  18  20
HETATM   20  C           1     -32.670  -4.479 -11.395  0.00  0.00     0.002 C 
HETATM   21  C           1     -31.595  -4.914 -12.382  0.00  0.00     0.005 C 
ENDBRANCH  18  20
ENDBRANCH  14  18
ENDBRANCH   2  14
TORSDOF 8
ENDMDL
