MODEL 1
REMARK VINA RESULT:      -6.0      0.000      0.000
REMARK  5 active torsions:
REMARK  status: ('A' for Active; 'I' for Inactive)
REMARK    1  A    between atoms: C_2  and  C_17 
REMARK       I    between atoms: N_3  and  C_4 
REMARK    2  A    between atoms: C_4  and  C_11 
REMARK       I    between atoms: N_8  and  C_9 
REMARK    3  A    between atoms: C_9  and  C_10 
REMARK    4  A    between atoms: C_10  and  C_11 
REMARK    5  A    between atoms: C_11  and  N_12 
ROOT
HETATM    1  C           1     -20.573  -5.248  -7.188  0.00  0.00     0.283 C 
ENDROOT
BRANCH   1   2
HETATM    2  C           1     -21.633  -4.494  -7.952  0.00  0.00     0.251 C 
HETATM    3  N           1     -21.531  -4.357  -9.311  0.00  0.00    -0.336 N 
HETATM    4  C           1     -22.454  -3.666 -10.206  0.00  0.00     0.188 C 
HETATM    5  C           1     -20.475  -4.871 -10.179  0.00  0.00     0.127 C 
HETATM    6  C           1     -21.540  -2.949 -11.185  0.00  0.00     0.038 C 
HETATM    7  C           1     -20.240  -3.743 -11.170  0.00  0.00     0.022 C 
HETATM    8  O           1     -22.571  -4.010  -7.365  0.00  0.00    -0.271 OA
BRANCH   4   9
HETATM    9  C           1     -23.341  -4.652 -10.926  0.00  0.00     0.196 C 
HETATM   10  O           1     -23.410  -4.635 -12.174  0.00  0.00    -0.646 OA
HETATM   11  O           1     -24.009  -5.485 -10.275  0.00  0.00    -0.646 OA
ENDBRANCH   4   9
ENDBRANCH   1   2
BRANCH   1  12
HETATM   12  C           1     -21.130  -6.593  -6.738  0.00  0.00     0.145 C 
BRANCH  12  13
HETATM   13  C           1     -21.578  -6.497  -5.301  0.00  0.00     0.217 C 
HETATM   14  O           1     -20.794  -6.715  -4.408  0.00  0.00    -0.274 OA
HETATM   15  N           1     -22.873  -6.164  -5.009  0.00  0.00    -0.370 N 
HETATM   16  H           1     -23.174  -6.100  -4.045  0.00  0.00     0.159 HD
HETATM   17  H           1     -23.530  -5.982  -5.757  0.00  0.00     0.159 HD
ENDBRANCH  12  13
ENDBRANCH   1  12
BRANCH   1  18
HETATM   18  N           1     -20.163  -4.451  -5.985  0.00  0.00    -0.066 N 
HETATM   19  H           1     -19.932  -5.101  -5.199  0.00  0.00     0.275 HD
HETATM   20  H           1     -19.322  -3.876  -6.219  0.00  0.00     0.275 HD
HETATM   21  H           1     -20.947  -3.823  -5.699  0.00  0.00     0.275 HD
ENDBRANCH   1  18
TORSDOF 5
ENDMDL
MODEL 2
REMARK VINA RESULT:      -5.7      1.824      2.500
REMARK  5 active torsions:
REMARK  status: ('A' for Active; 'I' for Inactive)
REMARK    1  A    between atoms: C_2  and  C_17 
REMARK       I    between atoms: N_3  and  C_4 
REMARK    2  A    between atoms: C_4  and  C_11 
REMARK       I    between atoms: N_8  and  C_9 
REMARK    3  A    between atoms: C_9  and  C_10 
REMARK    4  A    between atoms: C_10  and  C_11 
REMARK    5  A    between atoms: C_11  and  N_12 
ROOT
HETATM    1  C           1     -21.632  -4.237  -6.937  0.00  0.00     0.283 C 
ENDROOT
BRANCH   1   2
HETATM    2  C           1     -21.358  -4.757  -8.327  0.00  0.00     0.251 C 
HETATM    3  N           1     -22.136  -4.347  -9.376  0.00  0.00    -0.336 N 
HETATM    4  C           1     -22.019  -4.742 -10.777  0.00  0.00     0.188 C 
HETATM    5  C           1     -23.264  -3.420  -9.338  0.00  0.00     0.127 C 
HETATM    6  C           1     -23.459  -4.917 -11.226  0.00  0.00     0.038 C 
HETATM    7  C           1     -24.278  -4.044 -10.282  0.00  0.00     0.022 C 
HETATM    8  O           1     -20.453  -5.535  -8.513  0.00  0.00    -0.271 OA
BRANCH   4   9
HETATM    9  C           1     -21.333  -3.665 -11.582  0.00  0.00     0.196 C 
HETATM   10  O           1     -21.726  -3.407 -12.740  0.00  0.00    -0.646 OA
HETATM   11  O           1     -20.373  -3.033 -11.091  0.00  0.00    -0.646 OA
ENDBRANCH   4   9
ENDBRANCH   1   2
BRANCH   1  12
HETATM   12  C           1     -20.492  -4.640  -6.009  0.00  0.00     0.145 C 
BRANCH  12  13
HETATM   13  C           1     -20.863  -5.906  -5.277  0.00  0.00     0.217 C 
HETATM   14  O           1     -21.488  -5.846  -4.244  0.00  0.00    -0.274 OA
HETATM   15  N           1     -20.492  -7.123  -5.782  0.00  0.00    -0.370 N 
HETATM   16  H           1     -20.740  -7.972  -5.291  0.00  0.00     0.159 HD
HETATM   17  H           1     -19.969  -7.174  -6.647  0.00  0.00     0.159 HD
ENDBRANCH  12  13
ENDBRANCH   1  12
BRANCH   1  18
HETATM   18  N           1     -22.918  -4.821  -6.430  0.00  0.00    -0.066 N 
HETATM   19  H           1     -22.721  -5.723  -5.940  0.00  0.00     0.275 HD
HETATM   20  H           1     -23.364  -4.153  -5.762  0.00  0.00     0.275 HD
HETATM   21  H           1     -23.562  -4.995  -7.233  0.00  0.00     0.275 HD
ENDBRANCH   1  18
TORSDOF 5
ENDMDL
MODEL 3
REMARK VINA RESULT:      -5.7      9.731     11.539
REMARK  5 active torsions:
REMARK  status: ('A' for Active; 'I' for Inactive)
REMARK    1  A    between atoms: C_2  and  C_17 
REMARK       I    between atoms: N_3  and  C_4 
REMARK    2  A    between atoms: C_4  and  C_11 
REMARK       I    between atoms: N_8  and  C_9 
REMARK    3  A    between atoms: C_9  and  C_10 
REMARK    4  A    between atoms: C_10  and  C_11 
REMARK    5  A    between atoms: C_11  and  N_12 
ROOT
HETATM    1  C           1     -25.811  -6.415 -17.034  0.00  0.00     0.283 C 
ENDROOT
BRANCH   1   2
HETATM    2  C           1     -27.166  -6.620 -16.402  0.00  0.00     0.251 C 
HETATM    3  N           1     -28.276  -6.046 -16.961  0.00  0.00    -0.336 N 
HETATM    4  C           1     -29.656  -6.136 -16.491  0.00  0.00     0.188 C 
HETATM    5  C           1     -28.339  -5.212 -18.158  0.00  0.00     0.127 C 
HETATM    6  C           1     -30.199  -4.732 -16.691  0.00  0.00     0.038 C 
HETATM    7  C           1     -29.335  -4.125 -17.790  0.00  0.00     0.022 C 
HETATM    8  O           1     -27.271  -7.290 -15.402  0.00  0.00    -0.271 OA
BRANCH   4   9
HETATM    9  C           1     -30.437  -7.135 -17.309  0.00  0.00     0.196 C 
HETATM   10  O           1     -31.644  -6.927 -17.561  0.00  0.00    -0.646 OA
HETATM   11  O           1     -29.879  -8.170 -17.734  0.00  0.00    -0.646 OA
ENDBRANCH   4   9
ENDBRANCH   1   2
BRANCH   1  12
HETATM   12  C           1     -25.895  -6.711 -18.526  0.00  0.00     0.145 C 
BRANCH  12  13
HETATM   13  C           1     -24.520  -7.038 -19.053  0.00  0.00     0.217 C 
HETATM   14  O           1     -23.566  -6.390 -18.693  0.00  0.00    -0.274 OA
HETATM   15  N           1     -24.354  -8.068 -19.939  0.00  0.00    -0.370 N 
HETATM   16  H           1     -23.431  -8.287 -20.293  0.00  0.00     0.159 HD
HETATM   17  H           1     -25.153  -8.611 -20.240  0.00  0.00     0.159 HD
ENDBRANCH  12  13
ENDBRANCH   1  12
BRANCH   1  18
HETATM   18  N           1     -24.818  -7.341 -16.397  0.00  0.00    -0.066 N 
HETATM   19  H           1     -23.954  -6.808 -16.147  0.00  0.00     0.275 HD
HETATM   20  H           1     -25.233  -7.754 -15.532  0.00  0.00     0.275 HD
HETATM   21  H           1     -24.574  -8.105 -17.067  0.00  0.00     0.275 HD
ENDBRANCH   1  18
TORSDOF 5
ENDMDL
MODEL 4
REMARK VINA RESULT:      -5.3      2.318      6.167
REMARK  5 active torsions:
REMARK  status: ('A' for Active; 'I' for Inactive)
REMARK    1  A    between atoms: C_2  and  C_17 
REMARK       I    between atoms: N_3  and  C_4 
REMARK    2  A    between atoms: C_4  and  C_11 
REMARK       I    between atoms: N_8  and  C_9 
REMARK    3  A    between atoms: C_9  and  C_10 
REMARK    4  A    between atoms: C_10  and  C_11 
REMARK    5  A    between atoms: C_11  and  N_12 
ROOT
HETATM    1  C           1     -20.982  -5.023  -6.952  0.00  0.00     0.283 C 
ENDROOT
BRANCH   1   2
HETATM    2  C           1     -21.848  -5.714  -5.929  0.00  0.00     0.251 C 
HETATM    3  N           1     -21.323  -6.708  -5.147  0.00  0.00    -0.336 N 
HETATM    4  C           1     -22.006  -7.481  -4.114  0.00  0.00     0.188 C 
HETATM    5  C           1     -19.957  -7.225  -5.164  0.00  0.00     0.127 C 
HETATM    6  C           1     -21.485  -8.893  -4.314  0.00  0.00     0.038 C 
HETATM    7  C           1     -20.135  -8.725  -5.002  0.00  0.00     0.022 C 
HETATM    8  O           1     -23.005  -5.392  -5.799  0.00  0.00    -0.271 OA
BRANCH   4   9
HETATM    9  C           1     -21.652  -6.969  -2.739  0.00  0.00     0.196 C 
HETATM   10  O           1     -21.973  -5.808  -2.403  0.00  0.00    -0.646 OA
HETATM   11  O           1     -21.038  -7.705  -1.936  0.00  0.00    -0.646 OA
ENDBRANCH   4   9
ENDBRANCH   1   2
BRANCH   1  12
HETATM   12  C           1     -21.568  -3.653  -7.273  0.00  0.00     0.145 C 
BRANCH  12  13
HETATM   13  C           1     -22.464  -3.759  -8.482  0.00  0.00     0.217 C 
HETATM   14  O           1     -21.995  -3.663  -9.591  0.00  0.00    -0.274 OA
HETATM   15  N           1     -23.808  -3.963  -8.321  0.00  0.00    -0.370 N 
HETATM   16  H           1     -24.409  -4.034  -9.132  0.00  0.00     0.159 HD
HETATM   17  H           1     -24.200  -4.043  -7.392  0.00  0.00     0.159 HD
ENDBRANCH  12  13
ENDBRANCH   1  12
BRANCH   1  18
HETATM   18  N           1     -20.932  -5.849  -8.204  0.00  0.00    -0.066 N 
HETATM   19  H           1     -21.904  -6.013  -8.551  0.00  0.00     0.275 HD
HETATM   20  H           1     -20.384  -5.341  -8.934  0.00  0.00     0.275 HD
HETATM   21  H           1     -20.476  -6.766  -7.999  0.00  0.00     0.275 HD
ENDBRANCH   1  18
TORSDOF 5
ENDMDL
MODEL 5
REMARK VINA RESULT:      -5.1      2.188      3.205
REMARK  5 active torsions:
REMARK  status: ('A' for Active; 'I' for Inactive)
REMARK    1  A    between atoms: C_2  and  C_17 
REMARK       I    between atoms: N_3  and  C_4 
REMARK    2  A    between atoms: C_4  and  C_11 
REMARK       I    between atoms: N_8  and  C_9 
REMARK    3  A    between atoms: C_9  and  C_10 
REMARK    4  A    between atoms: C_10  and  C_11 
REMARK    5  A    between atoms: C_11  and  N_12 
ROOT
HETATM    1  C           1     -21.766  -5.827  -5.209  0.00  0.00     0.283 C 
ENDROOT
BRANCH   1   2
HETATM    2  C           1     -21.286  -5.998  -6.629  0.00  0.00     0.251 C 
HETATM    3  N           1     -21.710  -5.134  -7.604  0.00  0.00    -0.336 N 
HETATM    4  C           1     -21.352  -5.148  -9.019  0.00  0.00     0.188 C 
HETATM    5  C           1     -22.616  -4.000  -7.453  0.00  0.00     0.127 C 
HETATM    6  C           1     -22.658  -4.823  -9.725  0.00  0.00     0.038 C 
HETATM    7  C           1     -23.487  -4.064  -8.696  0.00  0.00     0.022 C 
HETATM    8  O           1     -20.530  -6.898  -6.907  0.00  0.00    -0.271 OA
BRANCH   4   9
HETATM    9  C           1     -20.307  -4.101  -9.318  0.00  0.00     0.196 C 
HETATM   10  O           1     -20.303  -3.521 -10.426  0.00  0.00    -0.646 OA
HETATM   11  O           1     -19.444  -3.815  -8.460  0.00  0.00    -0.646 OA
ENDBRANCH   4   9
ENDBRANCH   1   2
BRANCH   1  12
HETATM   12  C           1     -20.895  -6.656  -4.274  0.00  0.00     0.145 C 
BRANCH  12  13
HETATM   13  C           1     -21.589  -6.810  -2.944  0.00  0.00     0.217 C 
HETATM   14  O           1     -22.172  -5.872  -2.454  0.00  0.00    -0.274 OA
HETATM   15  N           1     -21.557  -8.013  -2.291  0.00  0.00    -0.370 N 
HETATM   16  H           1     -22.023  -8.118  -1.399  0.00  0.00     0.159 HD
HETATM   17  H           1     -21.069  -8.799  -2.702  0.00  0.00     0.159 HD
ENDBRANCH  12  13
ENDBRANCH   1  12
BRANCH   1  18
HETATM   18  N           1     -23.190  -6.290  -5.104  0.00  0.00    -0.066 N 
HETATM   19  H           1     -23.708  -5.673  -4.438  0.00  0.00     0.275 HD
HETATM   20  H           1     -23.641  -6.241  -6.045  0.00  0.00     0.275 HD
HETATM   21  H           1     -23.212  -7.274  -4.756  0.00  0.00     0.275 HD
ENDBRANCH   1  18
TORSDOF 5
ENDMDL
MODEL 6
REMARK VINA RESULT:      -5.1     17.422     19.374
REMARK  5 active torsions:
REMARK  status: ('A' for Active; 'I' for Inactive)
REMARK    1  A    between atoms: C_2  and  C_17 
REMARK       I    between atoms: N_3  and  C_4 
REMARK    2  A    between atoms: C_4  and  C_11 
REMARK       I    between atoms: N_8  and  C_9 
REMARK    3  A    between atoms: C_9  and  C_10 
REMARK    4  A    between atoms: C_10  and  C_11 
REMARK    5  A    between atoms: C_11  and  N_12 
ROOT
HETATM    1  C           1     -12.147   4.451 -20.968  0.00  0.00     0.283 C 
ENDROOT
BRANCH   1   2
HETATM    2  C           1     -11.725   5.570 -20.049  0.00  0.00     0.251 C 
HETATM    3  N           1     -11.590   6.842 -20.537  0.00  0.00    -0.336 N 
HETATM    4  C           1     -11.194   8.039 -19.800  0.00  0.00     0.188 C 
HETATM    5  C           1     -11.811   7.297 -21.907  0.00  0.00     0.127 C 
HETATM    6  C           1     -10.271   8.768 -20.762  0.00  0.00     0.038 C 
HETATM    7  C           1     -10.680   8.283 -22.148  0.00  0.00     0.022 C 
HETATM    8  O           1     -11.505   5.344 -18.883  0.00  0.00    -0.271 OA
BRANCH   4   9
HETATM    9  C           1     -12.398   8.887 -19.467  0.00  0.00     0.196 C 
HETATM   10  O           1     -12.408  10.101 -19.763  0.00  0.00    -0.646 OA
HETATM   11  O           1     -13.384   8.375 -18.894  0.00  0.00    -0.646 OA
ENDBRANCH   4   9
ENDBRANCH   1   2
BRANCH   1  12
HETATM   12  C           1     -13.474   3.874 -20.492  0.00  0.00     0.145 C 
BRANCH  12  13
HETATM   13  C           1     -14.561   4.907 -20.657  0.00  0.00     0.217 C 
HETATM   14  O           1     -15.064   5.416 -19.684  0.00  0.00    -0.274 OA
HETATM   15  N           1     -14.977   5.269 -21.910  0.00  0.00    -0.370 N 
HETATM   16  H           1     -15.706   5.961 -22.022  0.00  0.00     0.159 HD
HETATM   17  H           1     -14.555   4.843 -22.726  0.00  0.00     0.159 HD
ENDBRANCH  12  13
ENDBRANCH   1  12
BRANCH   1  18
HETATM   18  N           1     -11.102   3.374 -20.955  0.00  0.00    -0.066 N 
HETATM   19  H           1     -10.832   3.163 -19.968  0.00  0.00     0.275 HD
HETATM   20  H           1     -11.487   2.511 -21.402  0.00  0.00     0.275 HD
HETATM   21  H           1     -10.262   3.697 -21.485  0.00  0.00     0.275 HD
ENDBRANCH   1  18
TORSDOF 5
ENDMDL
MODEL 7
REMARK VINA RESULT:      -5.0      2.057      5.044
REMARK  5 active torsions:
REMARK  status: ('A' for Active; 'I' for Inactive)
REMARK    1  A    between atoms: C_2  and  C_17 
REMARK       I    between atoms: N_3  and  C_4 
REMARK    2  A    between atoms: C_4  and  C_11 
REMARK       I    between atoms: N_8  and  C_9 
REMARK    3  A    between atoms: C_9  and  C_10 
REMARK    4  A    between atoms: C_10  and  C_11 
REMARK    5  A    between atoms: C_11  and  N_12 
ROOT
HETATM    1  C           1     -21.812  -3.746 -10.677  0.00  0.00     0.283 C 
ENDROOT
BRANCH   1   2
HETATM    2  C           1     -20.756  -4.466  -9.875  0.00  0.00     0.251 C 
HETATM    3  N           1     -20.836  -4.496  -8.509  0.00  0.00    -0.336 N 
HETATM    4  C           1     -19.912  -5.140  -7.578  0.00  0.00     0.188 C 
HETATM    5  C           1     -21.863  -3.892  -7.665  0.00  0.00     0.127 C 
HETATM    6  C           1     -19.796  -4.144  -6.437  0.00  0.00     0.038 C 
HETATM    7  C           1     -21.080  -3.325  -6.491  0.00  0.00     0.022 C 
HETATM    8  O           1     -19.840  -5.016 -10.439  0.00  0.00    -0.271 OA
BRANCH   4   9
HETATM    9  C           1     -20.472  -6.453  -7.089  0.00  0.00     0.196 C 
HETATM   10  O           1     -21.665  -6.748  -7.321  0.00  0.00    -0.646 OA
HETATM   11  O           1     -19.745  -7.244  -6.450  0.00  0.00    -0.646 OA
ENDBRANCH   4   9
ENDBRANCH   1   2
BRANCH   1  12
HETATM   12  C           1     -22.978  -4.688 -10.945  0.00  0.00     0.145 C 
BRANCH  12  13
HETATM   13  C           1     -24.257  -4.063 -10.445  0.00  0.00     0.217 C 
HETATM   14  O           1     -24.621  -2.997 -10.884  0.00  0.00    -0.274 OA
HETATM   15  N           1     -25.004  -4.702  -9.493  0.00  0.00    -0.370 N 
HETATM   16  H           1     -25.862  -4.283  -9.157  0.00  0.00     0.159 HD
HETATM   17  H           1     -24.700  -5.594  -9.125  0.00  0.00     0.159 HD
ENDBRANCH  12  13
ENDBRANCH   1  12
BRANCH   1  18
HETATM   18  N           1     -21.226  -3.294 -11.982  0.00  0.00    -0.066 N 
HETATM   19  H           1     -21.330  -2.258 -12.071  0.00  0.00     0.275 HD
HETATM   20  H           1     -20.212  -3.545 -12.013  0.00  0.00     0.275 HD
HETATM   21  H           1     -21.726  -3.763 -12.770  0.00  0.00     0.275 HD
ENDBRANCH   1  18
TORSDOF 5
ENDMDL
MODEL 8
REMARK VINA RESULT:      -4.9      2.569      6.677
REMARK  5 active torsions:
REMARK  status: ('A' for Active; 'I' for Inactive)
REMARK    1  A    between atoms: C_2  and  C_17 
REMARK       I    between atoms: N_3  and  C_4 
REMARK    2  A    between atoms: C_4  and  C_11 
REMARK       I    between atoms: N_8  and  C_9 
REMARK    3  A    between atoms: C_9  and  C_10 
REMARK    4  A    between atoms: C_10  and  C_11 
REMARK    5  A    between atoms: C_11  and  N_12 
ROOT
HETATM    1  C           1     -21.065  -5.565  -5.961  0.00  0.00     0.283 C 
ENDROOT
BRANCH   1   2
HETATM    2  C           1     -20.518  -6.843  -5.375  0.00  0.00     0.251 C 
HETATM    3  N           1     -20.961  -7.282  -4.156  0.00  0.00    -0.336 N 
HETATM    4  C           1     -20.547  -8.486  -3.440  0.00  0.00     0.188 C 
HETATM    5  C           1     -21.950  -6.648  -3.289  0.00  0.00     0.127 C 
HETATM    6  C           1     -20.449  -8.031  -1.994  0.00  0.00     0.038 C 
HETATM    7  C           1     -21.375  -6.825  -1.893  0.00  0.00     0.022 C 
HETATM    8  O           1     -19.688  -7.479  -5.981  0.00  0.00    -0.271 OA
BRANCH   4   9
HETATM    9  C           1     -21.576  -9.579  -3.590  0.00  0.00     0.196 C 
HETATM   10  O           1     -21.897  -9.983  -4.729  0.00  0.00    -0.646 OA
HETATM   11  O           1     -22.107 -10.082  -2.576  0.00  0.00    -0.646 OA
ENDBRANCH   4   9
ENDBRANCH   1   2
BRANCH   1  12
HETATM   12  C           1     -21.204  -5.716  -7.471  0.00  0.00     0.145 C 
BRANCH  12  13
HETATM   13  C           1     -21.483  -4.368  -8.088  0.00  0.00     0.217 C 
HETATM   14  O           1     -20.632  -3.817  -8.745  0.00  0.00    -0.274 OA
HETATM   15  N           1     -22.700  -3.770  -7.903  0.00  0.00    -0.370 N 
HETATM   16  H           1     -22.887  -2.865  -8.317  0.00  0.00     0.159 HD
HETATM   17  H           1     -23.413  -4.231  -7.353  0.00  0.00     0.159 HD
ENDBRANCH  12  13
ENDBRANCH   1  12
BRANCH   1  18
HETATM   18  N           1     -20.126  -4.435  -5.657  0.00  0.00    -0.066 N 
HETATM   19  H           1     -20.392  -3.996  -4.747  0.00  0.00     0.275 HD
HETATM   20  H           1     -19.150  -4.802  -5.594  0.00  0.00     0.275 HD
HETATM   21  H           1     -20.182  -3.721  -6.418  0.00  0.00     0.275 HD
ENDBRANCH   1  18
TORSDOF 5
ENDMDL
MODEL 9
REMARK VINA RESULT:      -4.9      3.300      7.033
REMARK  5 active torsions:
REMARK  status: ('A' for Active; 'I' for Inactive)
REMARK    1  A    between atoms: C_2  and  C_17 
REMARK       I    between atoms: N_3  and  C_4 
REMARK    2  A    between atoms: C_4  and  C_11 
REMARK       I    between atoms: N_8  and  C_9 
REMARK    3  A    between atoms: C_9  and  C_10 
REMARK    4  A    between atoms: C_10  and  C_11 
REMARK    5  A    between atoms: C_11  and  N_12 
ROOT
HETATM    1  C           1     -20.308  -6.141  -5.808  0.00  0.00     0.283 C 
ENDROOT
BRANCH   1   2
HETATM    2  C           1     -21.116  -6.746  -4.687  0.00  0.00     0.251 C 
HETATM    3  N           1     -20.884  -8.037  -4.296  0.00  0.00    -0.336 N 
HETATM    4  C           1     -21.563  -8.782  -3.239  0.00  0.00     0.188 C 
HETATM    5  C           1     -19.904  -8.970  -4.846  0.00  0.00     0.127 C 
HETATM    6  C           1     -21.741 -10.169  -3.830  0.00  0.00     0.038 C 
HETATM    7  C           1     -20.647 -10.295  -4.884  0.00  0.00     0.022 C 
HETATM    8  O           1     -21.968  -6.091  -4.134  0.00  0.00    -0.271 OA
BRANCH   4   9
HETATM    9  C           1     -20.715  -8.835  -1.991  0.00  0.00     0.196 C 
HETATM   10  O           1     -20.479  -9.933  -1.444  0.00  0.00    -0.646 OA
HETATM   11  O           1     -20.250  -7.781  -1.505  0.00  0.00    -0.646 OA
ENDBRANCH   4   9
ENDBRANCH   1   2
BRANCH   1  12
HETATM   12  C           1     -20.335  -4.622  -5.692  0.00  0.00     0.145 C 
BRANCH  12  13
HETATM   13  C           1     -20.625  -4.018  -7.044  0.00  0.00     0.217 C 
HETATM   14  O           1     -19.805  -4.094  -7.928  0.00  0.00    -0.274 OA
HETATM   15  N           1     -21.817  -3.384  -7.269  0.00  0.00    -0.370 N 
HETATM   16  H           1     -22.011  -2.979  -8.176  0.00  0.00     0.159 HD
HETATM   17  H           1     -22.504  -3.320  -6.529  0.00  0.00     0.159 HD
ENDBRANCH  12  13
ENDBRANCH   1  12
BRANCH   1  18
HETATM   18  N           1     -20.899  -6.550  -7.126  0.00  0.00    -0.066 N 
HETATM   19  H           1     -21.775  -6.007  -7.298  0.00  0.00     0.275 HD
HETATM   20  H           1     -20.213  -6.355  -7.890  0.00  0.00     0.275 HD
HETATM   21  H           1     -21.120  -7.571  -7.106  0.00  0.00     0.275 HD
ENDBRANCH   1  18
TORSDOF 5
ENDMDL
