MODEL 1
REMARK VINA RESULT:      -5.8      0.000      0.000
REMARK  8 active torsions:
REMARK  status: ('A' for Active; 'I' for Inactive)
REMARK    1  A    between atoms: C_1  and  C_5 
REMARK    2  A    between atoms: C_1  and  C_2 
REMARK    3  A    between atoms: C_2  and  C_12 
REMARK    4  A    between atoms: C_2  and  N_9 
REMARK    5  A    between atoms: O_7  and  C_8 
REMARK    6  A    between atoms: C_8  and  C_14 
REMARK       I    between atoms: N_9  and  C_10 
REMARK    7  A    between atoms: C_10  and  C_14 
REMARK    8  A    between atoms: C_14  and  N_16 
ROOT
HETATM    1  N           1     -27.156  -6.663 -18.711  0.00  0.00    -0.344 N 
HETATM    2  C           1     -26.572  -6.403 -19.921  0.00  0.00     0.251 C 
HETATM    3  O           1     -27.145  -5.715 -20.732  0.00  0.00    -0.271 OA
HETATM    4  H           1     -26.677  -7.240 -18.031  0.00  0.00     0.163 HD
ENDROOT
BRANCH   1   5
HETATM    5  C           1     -28.460  -6.111 -18.401  0.00  0.00     0.195 C 
BRANCH   5   6
HETATM    6  C           1     -29.304  -7.166 -17.698  0.00  0.00     0.149 C 
BRANCH   6   7
HETATM    7  C           1     -30.016  -8.010 -18.726  0.00  0.00     0.175 C 
HETATM    8  O           1     -29.358  -8.728 -19.511  0.00  0.00    -0.648 OA
HETATM    9  O           1     -31.264  -7.992 -18.793  0.00  0.00    -0.648 OA
ENDBRANCH   6   7
ENDBRANCH   5   6
BRANCH   5  10
HETATM   10  C           1     -28.298  -4.913 -17.499  0.00  0.00     0.197 C 
HETATM   11  O           1     -29.098  -3.955 -17.582  0.00  0.00    -0.646 OA
HETATM   12  O           1     -27.365  -4.877 -16.668  0.00  0.00    -0.646 OA
ENDBRANCH   5  10
ENDBRANCH   1   5
BRANCH   2  13
HETATM   13  C           1     -25.214  -6.977 -20.242  0.00  0.00     0.297 C 
BRANCH  13  14
HETATM   14  C           1     -25.373  -8.157 -21.192  0.00  0.00     0.206 C 
BRANCH  14  15
HETATM   15  O           1     -26.707  -8.590 -21.181  0.00  0.00    -0.398 OA
HETATM   16  H           1     -27.132  -8.185 -21.918  0.00  0.00     0.209 HD
ENDBRANCH  14  15
ENDBRANCH  13  14
BRANCH  13  17
HETATM   17  N           1     -24.555  -7.440 -18.977  0.00  0.00    -0.064 N 
HETATM   18  H           1     -25.103  -7.102 -18.154  0.00  0.00     0.275 HD
HETATM   19  H           1     -24.519  -8.484 -18.965  0.00  0.00     0.275 HD
HETATM   20  H           1     -23.584  -7.058 -18.930  0.00  0.00     0.275 HD
ENDBRANCH  13  17
ENDBRANCH   2  13
TORSDOF 8
ENDMDL
MODEL 2
REMARK VINA RESULT:      -5.7     10.351     11.902
REMARK  8 active torsions:
REMARK  status: ('A' for Active; 'I' for Inactive)
REMARK    1  A    between atoms: C_1  and  C_5 
REMARK    2  A    between atoms: C_1  and  C_2 
REMARK    3  A    between atoms: C_2  and  C_12 
REMARK    4  A    between atoms: C_2  and  N_9 
REMARK    5  A    between atoms: O_7  and  C_8 
REMARK    6  A    between atoms: C_8  and  C_14 
REMARK       I    between atoms: N_9  and  C_10 
REMARK    7  A    between atoms: C_10  and  C_14 
REMARK    8  A    between atoms: C_14  and  N_16 
ROOT
HETATM    1  N           1     -35.850  -1.149 -13.262  0.00  0.00    -0.344 N 
HETATM    2  C           1     -35.499  -0.216 -14.200  0.00  0.00     0.251 C 
HETATM    3  O           1     -34.441   0.359 -14.113  0.00  0.00    -0.271 OA
HETATM    4  H           1     -36.737  -1.631 -13.335  0.00  0.00     0.163 HD
ENDROOT
BRANCH   1   5
HETATM    5  C           1     -34.951  -1.447 -12.164  0.00  0.00     0.195 C 
BRANCH   5   6
HETATM    6  C           1     -35.755  -1.625 -10.883  0.00  0.00     0.149 C 
BRANCH   6   7
HETATM    7  C           1     -36.834  -0.572 -10.816  0.00  0.00     0.175 C 
HETATM    8  O           1     -36.543   0.603 -10.503  0.00  0.00    -0.648 OA
HETATM    9  O           1     -38.020  -0.875 -11.072  0.00  0.00    -0.648 OA
ENDBRANCH   6   7
ENDBRANCH   5   6
BRANCH   5  10
HETATM   10  C           1     -34.196  -2.718 -12.465  0.00  0.00     0.197 C 
HETATM   11  O           1     -33.373  -3.167 -11.637  0.00  0.00    -0.646 OA
HETATM   12  O           1     -34.392  -3.323 -13.541  0.00  0.00    -0.646 OA
ENDBRANCH   5  10
ENDBRANCH   1   5
BRANCH   2  13
HETATM   13  C           1     -36.435   0.094 -15.342  0.00  0.00     0.297 C 
BRANCH  13  14
HETATM   14  C           1     -36.148  -0.847 -16.505  0.00  0.00     0.206 C 
BRANCH  14  15
HETATM   15  O           1     -35.217  -1.816 -16.103  0.00  0.00    -0.398 OA
HETATM   16  H           1     -35.468  -2.096 -15.240  0.00  0.00     0.209 HD
ENDBRANCH  14  15
ENDBRANCH  13  14
BRANCH  13  17
HETATM   17  N           1     -36.229   1.512 -15.786  0.00  0.00    -0.064 N 
HETATM   18  H           1     -35.212   1.681 -15.957  0.00  0.00     0.275 HD
HETATM   19  H           1     -36.763   1.681 -16.668  0.00  0.00     0.275 HD
HETATM   20  H           1     -36.570   2.162 -15.042  0.00  0.00     0.275 HD
ENDBRANCH  13  17
ENDBRANCH   2  13
TORSDOF 8
ENDMDL
MODEL 3
REMARK VINA RESULT:      -5.6      1.305      3.262
REMARK  8 active torsions:
REMARK  status: ('A' for Active; 'I' for Inactive)
REMARK    1  A    between atoms: C_1  and  C_5 
REMARK    2  A    between atoms: C_1  and  C_2 
REMARK    3  A    between atoms: C_2  and  C_12 
REMARK    4  A    between atoms: C_2  and  N_9 
REMARK    5  A    between atoms: O_7  and  C_8 
REMARK    6  A    between atoms: C_8  and  C_14 
REMARK       I    between atoms: N_9  and  C_10 
REMARK    7  A    between atoms: C_10  and  C_14 
REMARK    8  A    between atoms: C_14  and  N_16 
ROOT
HETATM    1  N           1     -27.691  -6.576 -19.086  0.00  0.00    -0.344 N 
HETATM    2  C           1     -26.347  -6.559 -18.828  0.00  0.00     0.251 C 
HETATM    3  O           1     -25.946  -6.230 -17.737  0.00  0.00    -0.271 OA
HETATM    4  H           1     -28.027  -6.852 -20.000  0.00  0.00     0.163 HD
ENDROOT
BRANCH   1   5
HETATM    5  C           1     -28.633  -6.203 -18.049  0.00  0.00     0.195 C 
BRANCH   5   6
HETATM    6  C           1     -29.171  -4.806 -18.332  0.00  0.00     0.149 C 
BRANCH   6   7
HETATM    7  C           1     -28.725  -3.864 -17.240  0.00  0.00     0.175 C 
HETATM    8  O           1     -29.015  -2.650 -17.305  0.00  0.00    -0.648 OA
HETATM    9  O           1     -28.066  -4.299 -16.271  0.00  0.00    -0.648 OA
ENDBRANCH   6   7
ENDBRANCH   5   6
BRANCH   5  10
HETATM   10  C           1     -29.775  -7.188 -18.029  0.00  0.00     0.197 C 
HETATM   11  O           1     -29.728  -8.215 -18.740  0.00  0.00    -0.646 OA
HETATM   12  O           1     -30.770  -6.978 -17.302  0.00  0.00    -0.646 OA
ENDBRANCH   5  10
ENDBRANCH   1   5
BRANCH   2  13
HETATM   13  C           1     -25.367  -6.948 -19.907  0.00  0.00     0.297 C 
BRANCH  13  14
HETATM   14  C           1     -26.053  -7.867 -20.909  0.00  0.00     0.206 C 
BRANCH  14  15
HETATM   15  O           1     -25.084  -8.525 -21.681  0.00  0.00    -0.398 OA
HETATM   16  H           1     -25.504  -9.275 -22.066  0.00  0.00     0.209 HD
ENDBRANCH  14  15
ENDBRANCH  13  14
BRANCH  13  17
HETATM   17  N           1     -24.202  -7.664 -19.289  0.00  0.00    -0.064 N 
HETATM   18  H           1     -24.273  -7.613 -18.248  0.00  0.00     0.275 HD
HETATM   19  H           1     -24.210  -8.665 -19.590  0.00  0.00     0.275 HD
HETATM   20  H           1     -23.312  -7.214 -19.600  0.00  0.00     0.275 HD
ENDBRANCH  13  17
ENDBRANCH   2  13
TORSDOF 8
ENDMDL
MODEL 4
REMARK VINA RESULT:      -5.6     10.870     12.526
REMARK  8 active torsions:
REMARK  status: ('A' for Active; 'I' for Inactive)
REMARK    1  A    between atoms: C_1  and  C_5 
REMARK    2  A    between atoms: C_1  and  C_2 
REMARK    3  A    between atoms: C_2  and  C_12 
REMARK    4  A    between atoms: C_2  and  N_9 
REMARK    5  A    between atoms: O_7  and  C_8 
REMARK    6  A    between atoms: C_8  and  C_14 
REMARK       I    between atoms: N_9  and  C_10 
REMARK    7  A    between atoms: C_10  and  C_14 
REMARK    8  A    between atoms: C_14  and  N_16 
ROOT
HETATM    1  N           1     -36.121  -0.336 -12.403  0.00  0.00    -0.344 N 
HETATM    2  C           1     -36.812  -0.231 -13.580  0.00  0.00     0.251 C 
HETATM    3  O           1     -37.917  -0.710 -13.676  0.00  0.00    -0.271 OA
HETATM    4  H           1     -35.195   0.065 -12.322  0.00  0.00     0.163 HD
ENDROOT
BRANCH   1   5
HETATM    5  C           1     -36.715  -1.020 -11.271  0.00  0.00     0.195 C 
BRANCH   5   6
HETATM    6  C           1     -35.822  -2.181 -10.854  0.00  0.00     0.149 C 
BRANCH   6   7
HETATM    7  C           1     -34.461  -2.023 -11.487  0.00  0.00     0.175 C 
HETATM    8  O           1     -33.546  -1.437 -10.868  0.00  0.00    -0.648 OA
HETATM    9  O           1     -34.249  -2.478 -12.632  0.00  0.00    -0.648 OA
ENDBRANCH   6   7
ENDBRANCH   5   6
BRANCH   5  10
HETATM   10  C           1     -36.860  -0.056 -10.120  0.00  0.00     0.197 C 
HETATM   11  O           1     -37.666   0.897 -10.200  0.00  0.00    -0.646 OA
HETATM   12  O           1     -36.175  -0.209  -9.086  0.00  0.00    -0.646 OA
ENDBRANCH   5  10
ENDBRANCH   1   5
BRANCH   2  13
HETATM   13  C           1     -36.193   0.482 -14.757  0.00  0.00     0.297 C 
BRANCH  13  14
HETATM   14  C           1     -35.589  -0.541 -15.710  0.00  0.00     0.206 C 
BRANCH  14  15
HETATM   15  O           1     -35.306  -1.723 -15.010  0.00  0.00    -0.398 OA
HETATM   16  H           1     -34.395  -1.690 -14.774  0.00  0.00     0.209 HD
ENDBRANCH  14  15
ENDBRANCH  13  14
BRANCH  13  17
HETATM   17  N           1     -35.118   1.408 -14.271  0.00  0.00    -0.064 N 
HETATM   18  H           1     -35.554   2.257 -13.846  0.00  0.00     0.275 HD
HETATM   19  H           1     -34.536   0.920 -13.554  0.00  0.00     0.275 HD
HETATM   20  H           1     -34.514   1.692 -15.075  0.00  0.00     0.275 HD
ENDBRANCH  13  17
ENDBRANCH   2  13
TORSDOF 8
ENDMDL
MODEL 5
REMARK VINA RESULT:      -5.5      1.851      3.064
REMARK  8 active torsions:
REMARK  status: ('A' for Active; 'I' for Inactive)
REMARK    1  A    between atoms: C_1  and  C_5 
REMARK    2  A    between atoms: C_1  and  C_2 
REMARK    3  A    between atoms: C_2  and  C_12 
REMARK    4  A    between atoms: C_2  and  N_9 
REMARK    5  A    between atoms: O_7  and  C_8 
REMARK    6  A    between atoms: C_8  and  C_14 
REMARK       I    between atoms: N_9  and  C_10 
REMARK    7  A    between atoms: C_10  and  C_14 
REMARK    8  A    between atoms: C_14  and  N_16 
ROOT
HETATM    1  N           1     -26.272  -6.309 -18.174  0.00  0.00    -0.344 N 
HETATM    2  C           1     -26.238  -6.707 -19.483  0.00  0.00     0.251 C 
HETATM    3  O           1     -27.258  -7.036 -20.040  0.00  0.00    -0.271 OA
HETATM    4  H           1     -25.417  -6.033 -17.707  0.00  0.00     0.163 HD
ENDROOT
BRANCH   1   5
HETATM    5  C           1     -27.531  -6.282 -17.456  0.00  0.00     0.195 C 
BRANCH   5   6
HETATM    6  C           1     -27.293  -6.649 -15.998  0.00  0.00     0.149 C 
BRANCH   6   7
HETATM    7  C           1     -25.809  -6.752 -15.740  0.00  0.00     0.175 C 
HETATM    8  O           1     -25.133  -5.716 -15.557  0.00  0.00    -0.648 OA
HETATM    9  O           1     -25.256  -7.872 -15.710  0.00  0.00    -0.648 OA
ENDBRANCH   6   7
ENDBRANCH   5   6
BRANCH   5  10
HETATM   10  C           1     -28.125  -4.897 -17.536  0.00  0.00     0.197 C 
HETATM   11  O           1     -27.785  -4.022 -16.710  0.00  0.00    -0.646 OA
HETATM   12  O           1     -28.957  -4.624 -18.428  0.00  0.00    -0.646 OA
ENDBRANCH   5  10
ENDBRANCH   1   5
BRANCH   2  13
HETATM   13  C           1     -24.927  -6.734 -20.230  0.00  0.00     0.297 C 
BRANCH  13  14
HETATM   14  C           1     -25.151  -7.288 -21.630  0.00  0.00     0.206 C 
BRANCH  14  15
HETATM   15  O           1     -25.485  -8.648 -21.548  0.00  0.00    -0.398 OA
HETATM   16  H           1     -24.834  -9.119 -22.039  0.00  0.00     0.209 HD
ENDBRANCH  14  15
ENDBRANCH  13  14
BRANCH  13  17
HETATM   17  N           1     -23.953  -7.609 -19.497  0.00  0.00    -0.064 N 
HETATM   18  H           1     -23.006  -7.514 -19.927  0.00  0.00     0.275 HD
HETATM   19  H           1     -23.911  -7.319 -18.494  0.00  0.00     0.275 HD
HETATM   20  H           1     -24.265  -8.605 -19.558  0.00  0.00     0.275 HD
ENDBRANCH  13  17
ENDBRANCH   2  13
TORSDOF 8
ENDMDL
MODEL 6
REMARK VINA RESULT:      -5.5      2.224      2.913
REMARK  8 active torsions:
REMARK  status: ('A' for Active; 'I' for Inactive)
REMARK    1  A    between atoms: C_1  and  C_5 
REMARK    2  A    between atoms: C_1  and  C_2 
REMARK    3  A    between atoms: C_2  and  C_12 
REMARK    4  A    between atoms: C_2  and  N_9 
REMARK    5  A    between atoms: O_7  and  C_8 
REMARK    6  A    between atoms: C_8  and  C_14 
REMARK       I    between atoms: N_9  and  C_10 
REMARK    7  A    between atoms: C_10  and  C_14 
REMARK    8  A    between atoms: C_14  and  N_16 
ROOT
HETATM    1  N           1     -26.421  -6.608 -18.374  0.00  0.00    -0.344 N 
HETATM    2  C           1     -25.351  -6.729 -19.219  0.00  0.00     0.251 C 
HETATM    3  O           1     -24.256  -6.361 -18.863  0.00  0.00    -0.271 OA
HETATM    4  H           1     -27.338  -6.917 -18.672  0.00  0.00     0.163 HD
ENDROOT
BRANCH   1   5
HETATM    5  C           1     -26.241  -6.039 -17.053  0.00  0.00     0.195 C 
BRANCH   5   6
HETATM    6  C           1     -27.487  -5.255 -16.664  0.00  0.00     0.149 C 
BRANCH   6   7
HETATM    7  C           1     -28.600  -5.562 -17.636  0.00  0.00     0.175 C 
HETATM    8  O           1     -29.295  -6.591 -17.487  0.00  0.00    -0.648 OA
HETATM    9  O           1     -28.827  -4.788 -18.591  0.00  0.00    -0.648 OA
ENDBRANCH   6   7
ENDBRANCH   5   6
BRANCH   5  10
HETATM   10  C           1     -26.012  -7.147 -16.055  0.00  0.00     0.197 C 
HETATM   11  O           1     -24.883  -7.675 -15.954  0.00  0.00    -0.646 OA
HETATM   12  O           1     -26.951  -7.539 -15.328  0.00  0.00    -0.646 OA
ENDBRANCH   5  10
ENDBRANCH   1   5
BRANCH   2  13
HETATM   13  C           1     -25.538  -7.322 -20.594  0.00  0.00     0.297 C 
BRANCH  13  14
HETATM   14  C           1     -26.950  -7.880 -20.719  0.00  0.00     0.206 C 
BRANCH  14  15
HETATM   15  O           1     -26.960  -8.923 -21.656  0.00  0.00    -0.398 OA
HETATM   16  H           1     -26.194  -8.815 -22.193  0.00  0.00     0.209 HD
ENDBRANCH  14  15
ENDBRANCH  13  14
BRANCH  13  17
HETATM   17  N           1     -24.545  -8.427 -20.801  0.00  0.00    -0.064 N 
HETATM   18  H           1     -24.284  -8.840 -19.877  0.00  0.00     0.275 HD
HETATM   19  H           1     -24.968  -9.166 -21.406  0.00  0.00     0.275 HD
HETATM   20  H           1     -23.690  -8.044 -21.265  0.00  0.00     0.275 HD
ENDBRANCH  13  17
ENDBRANCH   2  13
TORSDOF 8
ENDMDL
MODEL 7
REMARK VINA RESULT:      -5.4      2.129      3.784
REMARK  8 active torsions:
REMARK  status: ('A' for Active; 'I' for Inactive)
REMARK    1  A    between atoms: C_1  and  C_5 
REMARK    2  A    between atoms: C_1  and  C_2 
REMARK    3  A    between atoms: C_2  and  C_12 
REMARK    4  A    between atoms: C_2  and  N_9 
REMARK    5  A    between atoms: O_7  and  C_8 
REMARK    6  A    between atoms: C_8  and  C_14 
REMARK       I    between atoms: N_9  and  C_10 
REMARK    7  A    between atoms: C_10  and  C_14 
REMARK    8  A    between atoms: C_14  and  N_16 
ROOT
HETATM    1  N           1     -27.307  -6.567 -17.141  0.00  0.00    -0.344 N 
HETATM    2  C           1     -26.187  -6.948 -16.453  0.00  0.00     0.251 C 
HETATM    3  O           1     -26.291  -7.425 -15.348  0.00  0.00    -0.271 OA
HETATM    4  H           1     -27.220  -6.167 -18.067  0.00  0.00     0.163 HD
ENDROOT
BRANCH   1   5
HETATM    5  C           1     -28.617  -6.738 -16.546  0.00  0.00     0.195 C 
BRANCH   5   6
HETATM    6  C           1     -29.107  -5.402 -16.004  0.00  0.00     0.149 C 
BRANCH   6   7
HETATM    7  C           1     -28.612  -4.286 -16.890  0.00  0.00     0.175 C 
HETATM    8  O           1     -27.623  -3.603 -16.544  0.00  0.00    -0.648 OA
HETATM    9  O           1     -29.190  -4.043 -17.971  0.00  0.00    -0.648 OA
ENDBRANCH   6   7
ENDBRANCH   5   6
BRANCH   5  10
HETATM   10  C           1     -29.582  -7.241 -17.591  0.00  0.00     0.197 C 
HETATM   11  O           1     -29.155  -7.644 -18.695  0.00  0.00    -0.646 OA
HETATM   12  O           1     -30.809  -7.256 -17.354  0.00  0.00    -0.646 OA
ENDBRANCH   5  10
ENDBRANCH   1   5
BRANCH   2  13
HETATM   13  C           1     -24.823  -6.770 -17.073  0.00  0.00     0.297 C 
BRANCH  13  14
HETATM   14  C           1     -24.930  -6.911 -18.586  0.00  0.00     0.206 C 
BRANCH  14  15
HETATM   15  O           1     -23.769  -7.520 -19.082  0.00  0.00    -0.398 OA
HETATM   16  H           1     -23.727  -7.320 -20.002  0.00  0.00     0.209 HD
ENDBRANCH  14  15
ENDBRANCH  13  14
BRANCH  13  17
HETATM   17  N           1     -23.891  -7.817 -16.539  0.00  0.00    -0.064 N 
HETATM   18  H           1     -23.179  -8.055 -17.266  0.00  0.00     0.275 HD
HETATM   19  H           1     -23.410  -7.453 -15.687  0.00  0.00     0.275 HD
HETATM   20  H           1     -24.436  -8.674 -16.292  0.00  0.00     0.275 HD
ENDBRANCH  13  17
ENDBRANCH   2  13
TORSDOF 8
ENDMDL
MODEL 8
REMARK VINA RESULT:      -5.4     10.527     12.508
REMARK  8 active torsions:
REMARK  status: ('A' for Active; 'I' for Inactive)
REMARK    1  A    between atoms: C_1  and  C_5 
REMARK    2  A    between atoms: C_1  and  C_2 
REMARK    3  A    between atoms: C_2  and  C_12 
REMARK    4  A    between atoms: C_2  and  N_9 
REMARK    5  A    between atoms: O_7  and  C_8 
REMARK    6  A    between atoms: C_8  and  C_14 
REMARK       I    between atoms: N_9  and  C_10 
REMARK    7  A    between atoms: C_10  and  C_14 
REMARK    8  A    between atoms: C_14  and  N_16 
ROOT
HETATM    1  N           1     -22.779  -4.570  -8.575  0.00  0.00    -0.344 N 
HETATM    2  C           1     -22.012  -4.228  -7.494  0.00  0.00     0.251 C 
HETATM    3  O           1     -21.383  -3.196  -7.502  0.00  0.00    -0.271 OA
HETATM    4  H           1     -23.305  -5.435  -8.568  0.00  0.00     0.163 HD
ENDROOT
BRANCH   1   5
HETATM    5  C           1     -22.839  -3.694  -9.728  0.00  0.00     0.195 C 
BRANCH   5   6
HETATM    6  C           1     -22.133  -4.355 -10.905  0.00  0.00     0.149 C 
BRANCH   6   7
HETATM    7  C           1     -20.654  -4.063 -10.834  0.00  0.00     0.175 C 
HETATM    8  O           1     -20.203  -2.997 -11.308  0.00  0.00    -0.648 OA
HETATM    9  O           1     -19.879  -4.887 -10.302  0.00  0.00    -0.648 OA
ENDBRANCH   6   7
ENDBRANCH   5   6
BRANCH   5  10
HETATM   10  C           1     -24.280  -3.433 -10.087  0.00  0.00     0.197 C 
HETATM   11  O           1     -24.730  -3.818 -11.189  0.00  0.00    -0.646 OA
HETATM   12  O           1     -25.026  -2.833  -9.284  0.00  0.00    -0.646 OA
ENDBRANCH   5  10
ENDBRANCH   1   5
BRANCH   2  13
HETATM   13  C           1     -21.950  -5.140  -6.293  0.00  0.00     0.297 C 
BRANCH  13  14
HETATM   14  C           1     -21.114  -6.367  -6.630  0.00  0.00     0.206 C 
BRANCH  14  15
HETATM   15  O           1     -20.201  -6.048  -7.645  0.00  0.00    -0.398 OA
HETATM   16  H           1     -19.718  -6.833  -7.836  0.00  0.00     0.209 HD
ENDBRANCH  14  15
ENDBRANCH  13  14
BRANCH  13  17
HETATM   17  N           1     -23.339  -5.569  -5.921  0.00  0.00    -0.064 N 
HETATM   18  H           1     -23.342  -6.591  -5.703  0.00  0.00     0.275 HD
HETATM   19  H           1     -23.655  -5.034  -5.081  0.00  0.00     0.275 HD
HETATM   20  H           1     -23.987  -5.381  -6.718  0.00  0.00     0.275 HD
ENDBRANCH  13  17
ENDBRANCH   2  13
TORSDOF 8
ENDMDL
MODEL 9
REMARK VINA RESULT:      -5.3      2.243      2.799
REMARK  8 active torsions:
REMARK  status: ('A' for Active; 'I' for Inactive)
REMARK    1  A    between atoms: C_1  and  C_5 
REMARK    2  A    between atoms: C_1  and  C_2 
REMARK    3  A    between atoms: C_2  and  C_12 
REMARK    4  A    between atoms: C_2  and  N_9 
REMARK    5  A    between atoms: O_7  and  C_8 
REMARK    6  A    between atoms: C_8  and  C_14 
REMARK       I    between atoms: N_9  and  C_10 
REMARK    7  A    between atoms: C_10  and  C_14 
REMARK    8  A    between atoms: C_14  and  N_16 
ROOT
HETATM    1  N           1     -28.457  -5.436 -17.090  0.00  0.00    -0.344 N 
HETATM    2  C           1     -27.360  -5.934 -17.739  0.00  0.00     0.251 C 
HETATM    3  O           1     -27.398  -6.119 -18.933  0.00  0.00    -0.271 OA
HETATM    4  H           1     -28.426  -5.281 -16.090  0.00  0.00     0.163 HD
ENDROOT
BRANCH   1   5
HETATM    5  C           1     -29.663  -5.128 -17.834  0.00  0.00     0.195 C 
BRANCH   5   6
HETATM    6  C           1     -30.780  -6.070 -17.403  0.00  0.00     0.149 C 
BRANCH   6   7
HETATM    7  C           1     -30.430  -7.482 -17.802  0.00  0.00     0.175 C 
HETATM    8  O           1     -29.690  -8.175 -17.069  0.00  0.00    -0.648 OA
HETATM    9  O           1     -30.881  -7.960 -18.865  0.00  0.00    -0.648 OA
ENDBRANCH   6   7
ENDBRANCH   5   6
BRANCH   5  10
HETATM   10  C           1     -30.073  -3.703 -17.561  0.00  0.00     0.197 C 
HETATM   11  O           1     -29.201  -2.830 -17.352  0.00  0.00    -0.646 OA
HETATM   12  O           1     -31.283  -3.392 -17.544  0.00  0.00    -0.646 OA
ENDBRANCH   5  10
ENDBRANCH   1   5
BRANCH   2  13
HETATM   13  C           1     -26.105  -6.253 -16.965  0.00  0.00     0.297 C 
BRANCH  13  14
HETATM   14  C           1     -25.056  -6.823 -17.910  0.00  0.00     0.206 C 
BRANCH  14  15
HETATM   15  O           1     -23.827  -6.919 -17.242  0.00  0.00    -0.398 OA
HETATM   16  H           1     -23.182  -7.154 -17.887  0.00  0.00     0.209 HD
ENDBRANCH  14  15
ENDBRANCH  13  14
BRANCH  13  17
HETATM   17  N           1     -26.419  -7.262 -15.900  0.00  0.00    -0.064 N 
HETATM   18  H           1     -26.468  -6.786 -14.971  0.00  0.00     0.275 HD
HETATM   19  H           1     -27.337  -7.714 -16.109  0.00  0.00     0.275 HD
HETATM   20  H           1     -25.669  -7.990 -15.879  0.00  0.00     0.275 HD
ENDBRANCH  13  17
ENDBRANCH   2  13
TORSDOF 8
ENDMDL
