MODEL 1
REMARK VINA RESULT:      -6.4      0.000      0.000
REMARK  5 active torsions:
REMARK  status: ('A' for Active; 'I' for Inactive)
REMARK    1  A    between atoms: C_1  and  C_11 
REMARK    2  A    between atoms: C_1  and  C_2 
REMARK    3  A    between atoms: N_5  and  C_11 
REMARK    4  A    between atoms: C_7  and  C_15 
REMARK    5  A    between atoms: C_11  and  C_14 
REMARK       I    between atoms: N_13  and  C_14 
ROOT
HETATM    1  O           1     -22.197  -3.894  -7.429  0.00  0.00    -0.271 OA
HETATM    2  N           1     -21.370  -4.283  -9.466  0.00  0.00    -0.336 N 
HETATM    3  C           1     -21.334  -4.403  -8.103  0.00  0.00     0.251 C 
HETATM    4  C           1     -22.369  -3.585 -10.271  0.00  0.00     0.188 C 
HETATM    5  C           1     -20.421  -4.826 -10.433  0.00  0.00     0.127 C 
HETATM    6  C           1     -20.268  -3.715 -11.457  0.00  0.00     0.022 C 
HETATM    7  C           1     -21.548  -2.895 -11.347  0.00  0.00     0.038 C 
ENDROOT
BRANCH   3   8
HETATM    8  C           1     -20.214  -5.170  -7.443  0.00  0.00     0.275 C 
BRANCH   8   9
HETATM    9  C           1     -20.552  -5.399  -5.976  0.00  0.00     0.046 C 
BRANCH   9  10
HETATM   10  C           1     -21.149  -6.790  -5.803  0.00  0.00    -0.020 C 
HETATM   11  C           1     -20.098  -7.723  -5.216  0.00  0.00     0.009 C 
HETATM   12  C           1     -22.344  -6.717  -4.864  0.00  0.00     0.009 C 
ENDBRANCH   9  10
ENDBRANCH   8   9
BRANCH   8  13
HETATM   13  N           1     -18.942  -4.381  -7.545  0.00  0.00    -0.066 N 
HETATM   14  H           1     -19.088  -3.565  -8.180  0.00  0.00     0.275 HD
HETATM   15  H           1     -18.185  -4.990  -7.930  0.00  0.00     0.275 HD
HETATM   16  H           1     -18.666  -4.040  -6.596  0.00  0.00     0.275 HD
ENDBRANCH   8  13
ENDBRANCH   3   8
BRANCH   4  17
HETATM   17  C           1     -23.345  -4.560 -10.883  0.00  0.00     0.196 C 
HETATM   18  O           1     -24.024  -5.309 -10.148  0.00  0.00    -0.646 OA
HETATM   19  O           1     -23.474  -4.618 -12.125  0.00  0.00    -0.646 OA
ENDBRANCH   4  17
TORSDOF 5
ENDMDL
MODEL 2
REMARK VINA RESULT:      -6.3     13.992     15.804
REMARK  5 active torsions:
REMARK  status: ('A' for Active; 'I' for Inactive)
REMARK    1  A    between atoms: C_1  and  C_11 
REMARK    2  A    between atoms: C_1  and  C_2 
REMARK    3  A    between atoms: N_5  and  C_11 
REMARK    4  A    between atoms: C_7  and  C_15 
REMARK    5  A    between atoms: C_11  and  C_14 
REMARK       I    between atoms: N_13  and  C_14 
ROOT
HETATM    1  O           1     -37.907  -0.748 -12.714  0.00  0.00    -0.271 OA
HETATM    2  N           1     -36.115   0.109 -13.735  0.00  0.00    -0.336 N 
HETATM    3  C           1     -36.758  -0.383 -12.631  0.00  0.00     0.251 C 
HETATM    4  C           1     -36.657   0.264 -15.083  0.00  0.00     0.188 C 
HETATM    5  C           1     -34.741   0.593 -13.823  0.00  0.00     0.127 C 
HETATM    6  C           1     -34.842   1.818 -14.715  0.00  0.00     0.022 C 
HETATM    7  C           1     -36.105   1.604 -15.542  0.00  0.00     0.038 C 
ENDROOT
BRANCH   3   8
HETATM    8  C           1     -36.031  -0.470 -11.312  0.00  0.00     0.275 C 
BRANCH   8   9
HETATM    9  C           1     -36.130  -1.890 -10.770  0.00  0.00     0.046 C 
BRANCH   9  10
HETATM   10  C           1     -35.000  -2.734 -11.348  0.00  0.00    -0.020 C 
HETATM   11  C           1     -33.670  -2.255 -10.781  0.00  0.00     0.009 C 
HETATM   12  C           1     -35.216  -4.194 -10.974  0.00  0.00     0.009 C 
ENDBRANCH   9  10
ENDBRANCH   8   9
BRANCH   8  13
HETATM   13  N           1     -36.657   0.482 -10.335  0.00  0.00    -0.066 N 
HETATM   14  H           1     -36.604   0.077  -9.373  0.00  0.00     0.275 HD
HETATM   15  H           1     -37.658   0.636 -10.591  0.00  0.00     0.275 HD
HETATM   16  H           1     -36.146   1.392 -10.360  0.00  0.00     0.275 HD
ENDBRANCH   8  13
ENDBRANCH   3   8
BRANCH   4  17
HETATM   17  C           1     -36.181  -0.848 -15.985  0.00  0.00     0.196 C 
HETATM   18  O           1     -35.393  -1.714 -15.547  0.00  0.00    -0.646 OA
HETATM   19  O           1     -36.575  -0.903 -17.170  0.00  0.00    -0.646 OA
ENDBRANCH   4  17
TORSDOF 5
ENDMDL
MODEL 3
REMARK VINA RESULT:      -6.1      1.901      2.686
REMARK  5 active torsions:
REMARK  status: ('A' for Active; 'I' for Inactive)
REMARK    1  A    between atoms: C_1  and  C_11 
REMARK    2  A    between atoms: C_1  and  C_2 
REMARK    3  A    between atoms: N_5  and  C_11 
REMARK    4  A    between atoms: C_7  and  C_15 
REMARK    5  A    between atoms: C_11  and  C_14 
REMARK       I    between atoms: N_13  and  C_14 
ROOT
HETATM    1  O           1     -20.799  -5.864  -8.237  0.00  0.00    -0.271 OA
HETATM    2  N           1     -22.339  -4.486  -9.084  0.00  0.00    -0.336 N 
HETATM    3  C           1     -21.674  -5.056  -8.032  0.00  0.00     0.251 C 
HETATM    4  C           1     -22.124  -4.729 -10.508  0.00  0.00     0.188 C 
HETATM    5  C           1     -23.415  -3.501  -9.028  0.00  0.00     0.127 C 
HETATM    6  C           1     -24.378  -3.952 -10.112  0.00  0.00     0.022 C 
HETATM    7  C           1     -23.530  -4.764 -11.084  0.00  0.00     0.038 C 
ENDROOT
BRANCH   3   8
HETATM    8  C           1     -22.036  -4.678  -6.617  0.00  0.00     0.275 C 
BRANCH   8   9
HETATM    9  C           1     -21.080  -5.363  -5.649  0.00  0.00     0.046 C 
BRANCH   9  10
HETATM   10  C           1     -21.829  -6.437  -4.870  0.00  0.00    -0.020 C 
HETATM   11  C           1     -21.351  -7.813  -5.315  0.00  0.00     0.009 C 
HETATM   12  C           1     -21.560  -6.264  -3.381  0.00  0.00     0.009 C 
ENDBRANCH   9  10
ENDBRANCH   8   9
BRANCH   8  13
HETATM   13  N           1     -23.441  -5.117  -6.327  0.00  0.00    -0.066 N 
HETATM   14  H           1     -23.482  -5.542  -5.373  0.00  0.00     0.275 HD
HETATM   15  H           1     -23.737  -5.826  -7.036  0.00  0.00     0.275 HD
HETATM   16  H           1     -24.080  -4.292  -6.370  0.00  0.00     0.275 HD
ENDBRANCH   8  13
ENDBRANCH   3   8
BRANCH   4  17
HETATM   17  C           1     -21.318  -3.614 -11.129  0.00  0.00     0.196 C 
HETATM   18  O           1     -21.779  -2.977 -12.101  0.00  0.00    -0.646 OA
HETATM   19  O           1     -20.191  -3.329 -10.671  0.00  0.00    -0.646 OA
ENDBRANCH   4  17
TORSDOF 5
ENDMDL
MODEL 4
REMARK VINA RESULT:      -5.9     12.796     14.869
REMARK  5 active torsions:
REMARK  status: ('A' for Active; 'I' for Inactive)
REMARK    1  A    between atoms: C_1  and  C_11 
REMARK    2  A    between atoms: C_1  and  C_2 
REMARK    3  A    between atoms: N_5  and  C_11 
REMARK    4  A    between atoms: C_7  and  C_15 
REMARK    5  A    between atoms: C_11  and  C_14 
REMARK       I    between atoms: N_13  and  C_14 
ROOT
HETATM    1  O           1     -34.567  -2.978 -14.040  0.00  0.00    -0.271 OA
HETATM    2  N           1     -35.537  -1.163 -13.173  0.00  0.00    -0.336 N 
HETATM    3  C           1     -34.736  -2.269 -13.077  0.00  0.00     0.251 C 
HETATM    4  C           1     -36.261  -0.689 -14.349  0.00  0.00     0.188 C 
HETATM    5  C           1     -35.854  -0.200 -12.122  0.00  0.00     0.127 C 
HETATM    6  C           1     -37.331   0.089 -12.327  0.00  0.00     0.022 C 
HETATM    7  C           1     -37.600  -0.237 -13.791  0.00  0.00     0.038 C 
ENDROOT
BRANCH   3   8
HETATM    8  C           1     -34.064  -2.602 -11.768  0.00  0.00     0.275 C 
BRANCH   8   9
HETATM    9  C           1     -34.854  -3.691 -11.054  0.00  0.00     0.046 C 
BRANCH   9  10
HETATM   10  C           1     -33.904  -4.789 -10.593  0.00  0.00    -0.020 C 
HETATM   11  C           1     -34.662  -6.107 -10.496  0.00  0.00     0.009 C 
HETATM   12  C           1     -32.767  -4.930 -11.596  0.00  0.00     0.009 C 
ENDBRANCH   9  10
ENDBRANCH   8   9
BRANCH   8  13
HETATM   13  N           1     -34.015  -1.375 -10.905  0.00  0.00    -0.066 N 
HETATM   14  H           1     -34.036  -0.524 -11.511  0.00  0.00     0.275 HD
HETATM   15  H           1     -33.133  -1.379 -10.344  0.00  0.00     0.275 HD
HETATM   16  H           1     -34.837  -1.368 -10.262  0.00  0.00     0.275 HD
ENDBRANCH   8  13
ENDBRANCH   3   8
BRANCH   4  17
HETATM   17  C           1     -35.535   0.462 -15.001  0.00  0.00     0.196 C 
HETATM   18  O           1     -34.324   0.655 -14.757  0.00  0.00    -0.646 OA
HETATM   19  O           1     -36.145   1.223 -15.783  0.00  0.00    -0.646 OA
ENDBRANCH   4  17
TORSDOF 5
ENDMDL
MODEL 5
REMARK VINA RESULT:      -5.7      2.925      6.145
REMARK  5 active torsions:
REMARK  status: ('A' for Active; 'I' for Inactive)
REMARK    1  A    between atoms: C_1  and  C_11 
REMARK    2  A    between atoms: C_1  and  C_2 
REMARK    3  A    between atoms: N_5  and  C_11 
REMARK    4  A    between atoms: C_7  and  C_15 
REMARK    5  A    between atoms: C_11  and  C_14 
REMARK       I    between atoms: N_13  and  C_14 
ROOT
HETATM    1  O           1     -19.365  -6.687  -6.988  0.00  0.00    -0.271 OA
HETATM    2  N           1     -21.019  -6.815  -5.492  0.00  0.00    -0.336 N 
HETATM    3  C           1     -20.443  -6.287  -6.616  0.00  0.00     0.251 C 
HETATM    4  C           1     -20.481  -7.862  -4.626  0.00  0.00     0.188 C 
HETATM    5  C           1     -22.303  -6.457  -4.897  0.00  0.00     0.127 C 
HETATM    6  C           1     -22.027  -6.464  -3.404  0.00  0.00     0.022 C 
HETATM    7  C           1     -20.826  -7.385  -3.225  0.00  0.00     0.038 C 
ENDROOT
BRANCH   3   8
HETATM    8  C           1     -21.153  -5.203  -7.388  0.00  0.00     0.275 C 
BRANCH   8   9
HETATM    9  C           1     -20.570  -5.115  -8.792  0.00  0.00     0.046 C 
BRANCH   9  10
HETATM   10  C           1     -21.342  -4.080  -9.600  0.00  0.00    -0.020 C 
HETATM   11  C           1     -20.626  -3.829 -10.920  0.00  0.00     0.009 C 
HETATM   12  C           1     -22.748  -4.597  -9.876  0.00  0.00     0.009 C 
ENDBRANCH   9  10
ENDBRANCH   8   9
BRANCH   8  13
HETATM   13  N           1     -20.969  -3.889  -6.688  0.00  0.00    -0.066 N 
HETATM   14  H           1     -21.533  -3.881  -5.809  0.00  0.00     0.275 HD
HETATM   15  H           1     -21.289  -3.114  -7.312  0.00  0.00     0.275 HD
HETATM   16  H           1     -19.959  -3.755  -6.456  0.00  0.00     0.275 HD
ENDBRANCH   8  13
ENDBRANCH   3   8
BRANCH   4  17
HETATM   17  C           1     -21.138  -9.190  -4.917  0.00  0.00     0.196 C 
HETATM   18  O           1     -21.749  -9.796  -4.011  0.00  0.00    -0.646 OA
HETATM   19  O           1     -21.069  -9.683  -6.064  0.00  0.00    -0.646 OA
ENDBRANCH   4  17
TORSDOF 5
ENDMDL
MODEL 6
REMARK VINA RESULT:      -5.7      5.488      7.608
REMARK  5 active torsions:
REMARK  status: ('A' for Active; 'I' for Inactive)
REMARK    1  A    between atoms: C_1  and  C_11 
REMARK    2  A    between atoms: C_1  and  C_2 
REMARK    3  A    between atoms: N_5  and  C_11 
REMARK    4  A    between atoms: C_7  and  C_15 
REMARK    5  A    between atoms: C_11  and  C_14 
REMARK       I    between atoms: N_13  and  C_14 
ROOT
HETATM    1  O           1     -19.847  -8.069  -1.295  0.00  0.00    -0.271 OA
HETATM    2  N           1     -20.951  -8.574  -3.170  0.00  0.00    -0.336 N 
HETATM    3  C           1     -20.496  -8.878  -1.915  0.00  0.00     0.251 C 
HETATM    4  C           1     -20.752  -7.331  -3.910  0.00  0.00     0.188 C 
HETATM    5  C           1     -21.741  -9.420  -4.059  0.00  0.00     0.127 C 
HETATM    6  C           1     -21.139  -9.169  -5.431  0.00  0.00     0.022 C 
HETATM    7  C           1     -20.484  -7.796  -5.332  0.00  0.00     0.038 C 
ENDROOT
BRANCH   3   8
HETATM    8  C           1     -20.803 -10.225  -1.307  0.00  0.00     0.275 C 
BRANCH   8   9
HETATM    9  C           1     -21.563 -10.031  -0.002  0.00  0.00     0.046 C 
BRANCH   9  10
HETATM   10  C           1     -22.955  -9.487  -0.299  0.00  0.00    -0.020 C 
HETATM   11  C           1     -23.993 -10.561   0.001  0.00  0.00     0.009 C 
HETATM   12  C           1     -23.220  -8.267   0.572  0.00  0.00     0.009 C 
ENDBRANCH   9  10
ENDBRANCH   8   9
BRANCH   8  13
HETATM   13  N           1     -19.521 -10.954  -1.035  0.00  0.00    -0.066 N 
HETATM   14  H           1     -19.600 -11.472  -0.132  0.00  0.00     0.275 HD
HETATM   15  H           1     -18.736 -10.266  -0.973  0.00  0.00     0.275 HD
HETATM   16  H           1     -19.332 -11.629  -1.810  0.00  0.00     0.275 HD
ENDBRANCH   8  13
ENDBRANCH   3   8
BRANCH   4  17
HETATM   17  C           1     -21.988  -6.466  -3.853  0.00  0.00     0.196 C 
HETATM   18  O           1     -22.448  -6.107  -2.748  0.00  0.00    -0.646 OA
HETATM   19  O           1     -22.551  -6.111  -4.911  0.00  0.00    -0.646 OA
ENDBRANCH   4  17
TORSDOF 5
ENDMDL
MODEL 7
REMARK VINA RESULT:      -5.5      8.035     10.396
REMARK  5 active torsions:
REMARK  status: ('A' for Active; 'I' for Inactive)
REMARK    1  A    between atoms: C_1  and  C_11 
REMARK    2  A    between atoms: C_1  and  C_2 
REMARK    3  A    between atoms: N_5  and  C_11 
REMARK    4  A    between atoms: C_7  and  C_15 
REMARK    5  A    between atoms: C_11  and  C_14 
REMARK       I    between atoms: N_13  and  C_14 
ROOT
HETATM    1  O           1     -20.593 -10.356   1.257  0.00  0.00    -0.271 OA
HETATM    2  N           1     -21.298  -9.696  -0.757  0.00  0.00    -0.336 N 
HETATM    3  C           1     -21.040 -10.663   0.177  0.00  0.00     0.251 C 
HETATM    4  C           1     -21.098  -8.256  -0.623  0.00  0.00     0.188 C 
HETATM    5  C           1     -21.834  -9.879  -2.103  0.00  0.00     0.127 C 
HETATM    6  C           1     -21.030  -8.908  -2.949  0.00  0.00     0.022 C 
HETATM    7  C           1     -20.542  -7.841  -1.976  0.00  0.00     0.038 C 
ENDROOT
BRANCH   3   8
HETATM    8  C           1     -21.313 -12.112  -0.142  0.00  0.00     0.275 C 
BRANCH   8   9
HETATM    9  C           1     -21.695 -12.850   1.134  0.00  0.00     0.046 C 
BRANCH   9  10
HETATM   10  C           1     -23.203 -13.062   1.167  0.00  0.00    -0.020 C 
HETATM   11  C           1     -23.668 -13.603  -0.178  0.00  0.00     0.009 C 
HETATM   12  C           1     -23.551 -14.061   2.263  0.00  0.00     0.009 C 
ENDBRANCH   9  10
ENDBRANCH   8   9
BRANCH   8  13
HETATM   13  N           1     -20.080 -12.735  -0.729  0.00  0.00    -0.066 N 
HETATM   14  H           1     -20.281 -13.726  -0.989  0.00  0.00     0.275 HD
HETATM   15  H           1     -19.308 -12.710  -0.025  0.00  0.00     0.275 HD
HETATM   16  H           1     -19.792 -12.202  -1.580  0.00  0.00     0.275 HD
ENDBRANCH   8  13
ENDBRANCH   3   8
BRANCH   4  17
HETATM   17  C           1     -22.405  -7.554  -0.343  0.00  0.00     0.196 C 
HETATM   18  O           1     -23.168  -7.989   0.546  0.00  0.00    -0.646 OA
HETATM   19  O           1     -22.723  -6.540  -1.001  0.00  0.00    -0.646 OA
ENDBRANCH   4  17
TORSDOF 5
ENDMDL
MODEL 8
REMARK VINA RESULT:      -5.5      9.212     11.177
REMARK  5 active torsions:
REMARK  status: ('A' for Active; 'I' for Inactive)
REMARK    1  A    between atoms: C_1  and  C_11 
REMARK    2  A    between atoms: C_1  and  C_2 
REMARK    3  A    between atoms: N_5  and  C_11 
REMARK    4  A    between atoms: C_7  and  C_15 
REMARK    5  A    between atoms: C_11  and  C_14 
REMARK       I    between atoms: N_13  and  C_14 
ROOT
HETATM    1  O           1     -27.356  -7.499 -15.074  0.00  0.00    -0.271 OA
HETATM    2  N           1     -28.177  -6.190 -16.686  0.00  0.00    -0.336 N 
HETATM    3  C           1     -27.136  -6.731 -15.981  0.00  0.00     0.251 C 
HETATM    4  C           1     -29.604  -6.426 -16.486  0.00  0.00     0.188 C 
HETATM    5  C           1     -28.103  -5.253 -17.804  0.00  0.00     0.127 C 
HETATM    6  C           1     -29.240  -4.282 -17.539  0.00  0.00     0.022 C 
HETATM    7  C           1     -30.227  -5.051 -16.669  0.00  0.00     0.038 C 
ENDROOT
BRANCH   3   8
HETATM    8  C           1     -25.715  -6.368 -16.335  0.00  0.00     0.275 C 
BRANCH   8   9
HETATM    9  C           1     -25.162  -7.387 -17.323  0.00  0.00     0.046 C 
BRANCH   9  10
HETATM   10  C           1     -24.576  -6.661 -18.527  0.00  0.00    -0.020 C 
HETATM   11  C           1     -23.156  -7.154 -18.774  0.00  0.00     0.009 C 
HETATM   12  C           1     -25.432  -6.943 -19.755  0.00  0.00     0.009 C 
ENDBRANCH   9  10
ENDBRANCH   8   9
BRANCH   8  13
HETATM   13  N           1     -24.875  -6.370 -15.092  0.00  0.00    -0.066 N 
HETATM   14  H           1     -25.478  -6.165 -14.264  0.00  0.00     0.275 HD
HETATM   15  H           1     -24.133  -5.638 -15.172  0.00  0.00     0.275 HD
HETATM   16  H           1     -24.428  -7.307 -14.975  0.00  0.00     0.275 HD
ENDBRANCH   8  13
ENDBRANCH   3   8
BRANCH   4  17
HETATM   17  C           1     -30.139  -7.397 -17.510  0.00  0.00     0.196 C 
HETATM   18  O           1     -31.172  -7.119 -18.155  0.00  0.00    -0.646 OA
HETATM   19  O           1     -29.547  -8.479 -17.713  0.00  0.00    -0.646 OA
ENDBRANCH   4  17
TORSDOF 5
ENDMDL
MODEL 9
REMARK VINA RESULT:      -5.4      3.826      5.705
REMARK  5 active torsions:
REMARK  status: ('A' for Active; 'I' for Inactive)
REMARK    1  A    between atoms: C_1  and  C_11 
REMARK    2  A    between atoms: C_1  and  C_2 
REMARK    3  A    between atoms: N_5  and  C_11 
REMARK    4  A    between atoms: C_7  and  C_15 
REMARK    5  A    between atoms: C_11  and  C_14 
REMARK       I    between atoms: N_13  and  C_14 
ROOT
HETATM    1  O           1     -21.635  -5.499  -2.563  0.00  0.00    -0.271 OA
HETATM    2  N           1     -21.130  -6.544  -4.471  0.00  0.00    -0.336 N 
HETATM    3  C           1     -21.413  -6.541  -3.132  0.00  0.00     0.251 C 
HETATM    4  C           1     -21.055  -5.392  -5.366  0.00  0.00     0.188 C 
HETATM    5  C           1     -20.838  -7.698  -5.317  0.00  0.00     0.127 C 
HETATM    6  C           1     -19.714  -7.213  -6.217  0.00  0.00     0.022 C 
HETATM    7  C           1     -19.854  -5.696  -6.246  0.00  0.00     0.038 C 
ENDROOT
BRANCH   3   8
HETATM    8  C           1     -21.447  -7.841  -2.366  0.00  0.00     0.275 C 
BRANCH   8   9
HETATM    9  C           1     -22.184  -7.635  -1.049  0.00  0.00     0.046 C 
BRANCH   9  10
HETATM   10  C           1     -21.946  -8.834  -0.140  0.00  0.00    -0.020 C 
HETATM   11  C           1     -21.553  -8.347   1.249  0.00  0.00     0.009 C 
HETATM   12  C           1     -23.221  -9.661  -0.046  0.00  0.00     0.009 C 
ENDBRANCH   9  10
ENDBRANCH   8   9
BRANCH   8  13
HETATM   13  N           1     -20.044  -8.293  -2.088  0.00  0.00    -0.066 N 
HETATM   14  H           1     -19.825  -9.129  -2.675  0.00  0.00     0.275 HD
HETATM   15  H           1     -19.953  -8.545  -1.077  0.00  0.00     0.275 HD
HETATM   16  H           1     -19.378  -7.522  -2.315  0.00  0.00     0.275 HD
ENDBRANCH   8  13
ENDBRANCH   3   8
BRANCH   4  17
HETATM   17  C           1     -22.310  -5.271  -6.195  0.00  0.00     0.196 C 
HETATM   18  O           1     -23.416  -5.579  -5.701  0.00  0.00    -0.646 OA
HETATM   19  O           1     -22.243  -4.864  -7.374  0.00  0.00    -0.646 OA
ENDBRANCH   4  17
TORSDOF 5
ENDMDL
