MODEL 1
REMARK VINA RESULT:      -7.5      0.000      0.000
REMARK  12 active torsions:
REMARK  status: ('A' for Active; 'I' for Inactive)
REMARK    1  A    between atoms: C_1  and  C_24 
REMARK    2  A    between atoms: C_1  and  C_2 
REMARK    3  A    between atoms: C_1  and  N_7 
REMARK    4  A    between atoms: C_2  and  C_3 
REMARK    5  A    between atoms: C_3  and  C_4 
REMARK       I    between atoms: C_4  and  N_5 
REMARK    6  A    between atoms: C_10  and  C_11 
REMARK    7  A    between atoms: C_11  and  C_12 
REMARK    8  A    between atoms: C_11  and  N_19 
REMARK    9  A    between atoms: C_12  and  C_18 
REMARK       I    between atoms: N_19  and  C_24 
REMARK   10  A    between atoms: C_22  and  O_23 
REMARK   11  A    between atoms: O_23  and  P_29 
REMARK   12  A    between atoms: P_29  and  O_33 
ROOT
HETATM    1  C           1     -20.619  -7.526  -5.650  0.00  0.00     0.189 C 
ENDROOT
BRANCH   1   2
HETATM    2  C           1     -19.359  -8.328  -5.435  0.00  0.00     0.197 C 
HETATM    3  O           1     -18.562  -8.503  -6.382  0.00  0.00    -0.646 OA
HETATM    4  O           1     -19.113  -8.817  -4.311  0.00  0.00    -0.646 OA
ENDBRANCH   1   2
BRANCH   1   5
HETATM    5  C           1     -20.288  -6.040  -5.616  0.00  0.00     0.074 C 
BRANCH   5   6
HETATM    6  C           1     -20.839  -5.376  -6.840  0.00  0.00    -0.056 A 
HETATM    7  C           1     -22.063  -4.710  -6.780  0.00  0.00     0.010 A 
HETATM    8  C           1     -22.577  -4.091  -7.919  0.00  0.00     0.038 A 
HETATM    9  C           1     -21.866  -4.139  -9.118  0.00  0.00     0.081 A 
HETATM   10  C           1     -20.642  -4.804  -9.179  0.00  0.00     0.038 A 
HETATM   11  C           1     -20.129  -5.423  -8.039  0.00  0.00     0.010 A 
BRANCH   9  12
HETATM   12  O           1     -22.365  -3.537 -10.226  0.00  0.00    -0.247 OA
BRANCH  12  13
HETATM   13  P           1     -23.607  -4.244 -10.978  0.00  0.00     0.411 P 
HETATM   14  O           1     -24.767  -3.325 -10.986  0.00  0.00    -0.624 OA
HETATM   15  O           1     -23.970  -5.489 -10.266  0.00  0.00    -0.624 OA
BRANCH  13  16
HETATM   16  O           1     -23.188  -4.593 -12.498  0.00  0.00    -0.300 OA
HETATM   17  H           1     -22.606  -3.899 -12.755  0.00  0.00     0.223 HD
ENDBRANCH  13  16
ENDBRANCH  12  13
ENDBRANCH   9  12
ENDBRANCH   5   6
ENDBRANCH   1   5
BRANCH   1  18
HETATM   18  N           1     -21.571  -7.831  -4.599  0.00  0.00    -0.344 N 
HETATM   19  H           1     -21.872  -8.786  -4.451  0.00  0.00     0.163 HD
HETATM   20  C           1     -22.061  -6.829  -3.807  0.00  0.00     0.249 C 
HETATM   21  O           1     -23.067  -6.242  -4.130  0.00  0.00    -0.271 OA
BRANCH  20  22
HETATM   22  C           1     -21.347  -6.457  -2.531  0.00  0.00     0.275 C 
BRANCH  22  23
HETATM   23  C           1     -20.966  -7.722  -1.774  0.00  0.00     0.052 C 
BRANCH  23  24
HETATM   24  C           1     -22.060  -8.064  -0.772  0.00  0.00     0.105 C 
BRANCH  24  25
HETATM   25  C           1     -22.449  -9.514  -0.927  0.00  0.00     0.215 C 
HETATM   26  N           1     -23.479 -10.029  -0.187  0.00  0.00    -0.370 N 
HETATM   27  H           1     -23.739 -11.002  -0.291  0.00  0.00     0.159 HD
HETATM   28  H           1     -23.979  -9.438   0.464  0.00  0.00     0.159 HD
HETATM   29  O           1     -21.852 -10.220  -1.705  0.00  0.00    -0.274 OA
ENDBRANCH  24  25
ENDBRANCH  23  24
ENDBRANCH  22  23
BRANCH  22  30
HETATM   30  N           1     -22.252  -5.618  -1.679  0.00  0.00    -0.066 N 
HETATM   31  H           1     -22.844  -6.239  -1.082  0.00  0.00     0.275 HD
HETATM   32  H           1     -21.676  -4.995  -1.067  0.00  0.00     0.275 HD
HETATM   33  H           1     -22.866  -5.035  -2.291  0.00  0.00     0.275 HD
ENDBRANCH  22  30
ENDBRANCH  20  22
ENDBRANCH   1  18
TORSDOF 12
ENDMDL
MODEL 2
REMARK VINA RESULT:      -7.4      1.430      2.174
REMARK  12 active torsions:
REMARK  status: ('A' for Active; 'I' for Inactive)
REMARK    1  A    between atoms: C_1  and  C_24 
REMARK    2  A    between atoms: C_1  and  C_2 
REMARK    3  A    between atoms: C_1  and  N_7 
REMARK    4  A    between atoms: C_2  and  C_3 
REMARK    5  A    between atoms: C_3  and  C_4 
REMARK       I    between atoms: C_4  and  N_5 
REMARK    6  A    between atoms: C_10  and  C_11 
REMARK    7  A    between atoms: C_11  and  C_12 
REMARK    8  A    between atoms: C_11  and  N_19 
REMARK    9  A    between atoms: C_12  and  C_18 
REMARK       I    between atoms: N_19  and  C_24 
REMARK   10  A    between atoms: C_22  and  O_23 
REMARK   11  A    between atoms: O_23  and  P_29 
REMARK   12  A    between atoms: P_29  and  O_33 
ROOT
HETATM    1  C           1     -21.135  -6.606  -4.935  0.00  0.00     0.189 C 
ENDROOT
BRANCH   1   2
HETATM    2  C           1     -20.613  -7.720  -5.810  0.00  0.00     0.197 C 
HETATM    3  O           1     -19.415  -7.726  -6.165  0.00  0.00    -0.646 OA
HETATM    4  O           1     -21.380  -8.636  -6.179  0.00  0.00    -0.646 OA
ENDBRANCH   1   2
BRANCH   1   5
HETATM    5  C           1     -20.464  -5.296  -5.326  0.00  0.00     0.074 C 
BRANCH   5   6
HETATM    6  C           1     -20.988  -4.842  -6.653  0.00  0.00    -0.056 A 
HETATM    7  C           1     -22.344  -4.549  -6.803  0.00  0.00     0.010 A 
HETATM    8  C           1     -22.833  -4.125  -8.038  0.00  0.00     0.038 A 
HETATM    9  C           1     -21.966  -3.994  -9.123  0.00  0.00     0.081 A 
HETATM   10  C           1     -20.611  -4.286  -8.973  0.00  0.00     0.038 A 
HETATM   11  C           1     -20.122  -4.710  -7.738  0.00  0.00     0.010 A 
BRANCH   9  12
HETATM   12  O           1     -22.441  -3.583 -10.325  0.00  0.00    -0.247 OA
BRANCH  12  13
HETATM   13  P           1     -23.774  -4.293 -10.898  0.00  0.00     0.411 P 
HETATM   14  O           1     -24.009  -5.560 -10.169  0.00  0.00    -0.624 OA
HETATM   15  O           1     -23.598  -4.579 -12.339  0.00  0.00    -0.624 OA
BRANCH  13  16
HETATM   16  O           1     -25.039  -3.311 -10.692  0.00  0.00    -0.300 OA
HETATM   17  H           1     -24.869  -2.863  -9.881  0.00  0.00     0.223 HD
ENDBRANCH  13  16
ENDBRANCH  12  13
ENDBRANCH   9  12
ENDBRANCH   5   6
ENDBRANCH   1   5
BRANCH   1  18
HETATM   18  N           1     -20.839  -6.903  -3.547  0.00  0.00    -0.344 N 
HETATM   19  H           1     -20.795  -6.155  -2.868  0.00  0.00     0.163 HD
HETATM   20  C           1     -20.620  -8.196  -3.155  0.00  0.00     0.249 C 
HETATM   21  O           1     -19.501  -8.652  -3.176  0.00  0.00    -0.271 OA
BRANCH  20  22
HETATM   22  C           1     -21.775  -9.053  -2.699  0.00  0.00     0.275 C 
BRANCH  22  23
HETATM   23  C           1     -21.513  -9.548  -1.283  0.00  0.00     0.052 C 
BRANCH  23  24
HETATM   24  C           1     -21.282  -8.356  -0.363  0.00  0.00     0.105 C 
BRANCH  24  25
HETATM   25  C           1     -22.561  -7.567  -0.230  0.00  0.00     0.215 C 
HETATM   26  N           1     -23.553  -8.006   0.605  0.00  0.00    -0.370 N 
HETATM   27  H           1     -24.411  -7.476   0.694  0.00  0.00     0.159 HD
HETATM   28  H           1     -23.429  -8.861   1.133  0.00  0.00     0.159 HD
HETATM   29  O           1     -22.710  -6.547  -0.860  0.00  0.00    -0.274 OA
ENDBRANCH  24  25
ENDBRANCH  23  24
ENDBRANCH  22  23
BRANCH  22  30
HETATM   30  N           1     -21.920 -10.228  -3.619  0.00  0.00    -0.066 N 
HETATM   31  H           1     -21.946  -9.894  -4.610  0.00  0.00     0.275 HD
HETATM   32  H           1     -21.107 -10.873  -3.491  0.00  0.00     0.275 HD
HETATM   33  H           1     -22.807 -10.735  -3.400  0.00  0.00     0.275 HD
ENDBRANCH  22  30
ENDBRANCH  20  22
ENDBRANCH   1  18
TORSDOF 12
ENDMDL
MODEL 3
REMARK VINA RESULT:      -7.0      1.683      2.156
REMARK  12 active torsions:
REMARK  status: ('A' for Active; 'I' for Inactive)
REMARK    1  A    between atoms: C_1  and  C_24 
REMARK    2  A    between atoms: C_1  and  C_2 
REMARK    3  A    between atoms: C_1  and  N_7 
REMARK    4  A    between atoms: C_2  and  C_3 
REMARK    5  A    between atoms: C_3  and  C_4 
REMARK       I    between atoms: C_4  and  N_5 
REMARK    6  A    between atoms: C_10  and  C_11 
REMARK    7  A    between atoms: C_11  and  C_12 
REMARK    8  A    between atoms: C_11  and  N_19 
REMARK    9  A    between atoms: C_12  and  C_18 
REMARK       I    between atoms: N_19  and  C_24 
REMARK   10  A    between atoms: C_22  and  O_23 
REMARK   11  A    between atoms: O_23  and  P_29 
REMARK   12  A    between atoms: P_29  and  O_33 
ROOT
HETATM    1  C           1     -20.874  -6.793  -4.581  0.00  0.00     0.189 C 
ENDROOT
BRANCH   1   2
HETATM    2  C           1     -20.546  -7.695  -5.746  0.00  0.00     0.197 C 
HETATM    3  O           1     -21.453  -8.351  -6.303  0.00  0.00    -0.646 OA
HETATM    4  O           1     -19.368  -7.786  -6.155  0.00  0.00    -0.646 OA
ENDBRANCH   1   2
BRANCH   1   5
HETATM    5  C           1     -20.301  -5.405  -4.837  0.00  0.00     0.074 C 
BRANCH   5   6
HETATM    6  C           1     -20.787  -4.899  -6.159  0.00  0.00    -0.056 A 
HETATM    7  C           1     -22.146  -4.953  -6.470  0.00  0.00     0.010 A 
HETATM    8  C           1     -22.599  -4.481  -7.701  0.00  0.00     0.038 A 
HETATM    9  C           1     -21.693  -3.955  -8.622  0.00  0.00     0.081 A 
HETATM   10  C           1     -20.335  -3.900  -8.312  0.00  0.00     0.038 A 
HETATM   11  C           1     -19.882  -4.372  -7.081  0.00  0.00     0.010 A 
BRANCH   9  12
HETATM   12  O           1     -22.133  -3.496  -9.820  0.00  0.00    -0.247 OA
BRANCH  12  13
HETATM   13  P           1     -21.228  -3.792 -11.124  0.00  0.00     0.411 P 
HETATM   14  O           1     -22.108  -4.065 -12.283  0.00  0.00    -0.624 OA
HETATM   15  O           1     -20.368  -4.968 -10.870  0.00  0.00    -0.624 OA
BRANCH  13  16
HETATM   16  O           1     -20.305  -2.505 -11.441  0.00  0.00    -0.300 OA
HETATM   17  H           1     -20.108  -2.569 -12.360  0.00  0.00     0.223 HD
ENDBRANCH  13  16
ENDBRANCH  12  13
ENDBRANCH   9  12
ENDBRANCH   5   6
ENDBRANCH   1   5
BRANCH   1  18
HETATM   18  N           1     -20.294  -7.338  -3.370  0.00  0.00    -0.344 N 
HETATM   19  H           1     -19.292  -7.308  -3.230  0.00  0.00     0.163 HD
HETATM   20  C           1     -21.101  -7.895  -2.414  0.00  0.00     0.249 C 
HETATM   21  O           1     -21.363  -9.073  -2.458  0.00  0.00    -0.271 OA
BRANCH  20  22
HETATM   22  C           1     -21.662  -7.037  -1.308  0.00  0.00     0.275 C 
BRANCH  22  23
HETATM   23  C           1     -22.520  -7.893  -0.386  0.00  0.00     0.052 C 
BRANCH  23  24
HETATM   24  C           1     -21.830  -8.035   0.964  0.00  0.00     0.105 C 
BRANCH  24  25
HETATM   25  C           1     -21.245  -9.420   1.087  0.00  0.00     0.215 C 
HETATM   26  N           1     -21.687 -10.426   0.270  0.00  0.00    -0.370 N 
HETATM   27  H           1     -21.293 -11.355   0.353  0.00  0.00     0.159 HD
HETATM   28  H           1     -22.407 -10.240  -0.417  0.00  0.00     0.159 HD
HETATM   29  O           1     -20.385  -9.642   1.907  0.00  0.00    -0.274 OA
ENDBRANCH  24  25
ENDBRANCH  23  24
ENDBRANCH  22  23
BRANCH  22  30
HETATM   30  N           1     -22.502  -5.945  -1.900  0.00  0.00    -0.066 N 
HETATM   31  H           1     -22.266  -5.035  -1.442  0.00  0.00     0.275 HD
HETATM   32  H           1     -22.312  -5.876  -2.926  0.00  0.00     0.275 HD
HETATM   33  H           1     -23.513  -6.160  -1.745  0.00  0.00     0.275 HD
ENDBRANCH  22  30
ENDBRANCH  20  22
ENDBRANCH   1  18
TORSDOF 12
ENDMDL
MODEL 4
REMARK VINA RESULT:      -6.9      3.713      7.818
REMARK  12 active torsions:
REMARK  status: ('A' for Active; 'I' for Inactive)
REMARK    1  A    between atoms: C_1  and  C_24 
REMARK    2  A    between atoms: C_1  and  C_2 
REMARK    3  A    between atoms: C_1  and  N_7 
REMARK    4  A    between atoms: C_2  and  C_3 
REMARK    5  A    between atoms: C_3  and  C_4 
REMARK       I    between atoms: C_4  and  N_5 
REMARK    6  A    between atoms: C_10  and  C_11 
REMARK    7  A    between atoms: C_11  and  C_12 
REMARK    8  A    between atoms: C_11  and  N_19 
REMARK    9  A    between atoms: C_12  and  C_18 
REMARK       I    between atoms: N_19  and  C_24 
REMARK   10  A    between atoms: C_22  and  O_23 
REMARK   11  A    between atoms: O_23  and  P_29 
REMARK   12  A    between atoms: P_29  and  O_33 
ROOT
HETATM    1  C           1     -20.709  -8.551  -3.107  0.00  0.00     0.189 C 
ENDROOT
BRANCH   1   2
HETATM    2  C           1     -21.850  -9.194  -2.356  0.00  0.00     0.197 C 
HETATM    3  O           1     -22.260  -8.687  -1.289  0.00  0.00    -0.646 OA
HETATM    4  O           1     -22.383 -10.234  -2.800  0.00  0.00    -0.646 OA
ENDBRANCH   1   2
BRANCH   1   5
HETATM    5  C           1     -19.404  -8.807  -2.365  0.00  0.00     0.074 C 
BRANCH   5   6
HETATM    6  C           1     -18.361  -9.273  -3.333  0.00  0.00    -0.056 A 
HETATM    7  C           1     -17.034  -9.396  -2.922  0.00  0.00     0.010 A 
HETATM    8  C           1     -16.062  -9.830  -3.823  0.00  0.00     0.038 A 
HETATM    9  C           1     -16.418 -10.141  -5.135  0.00  0.00     0.081 A 
HETATM   10  C           1     -17.744 -10.018  -5.547  0.00  0.00     0.038 A 
HETATM   11  C           1     -18.716  -9.584  -4.646  0.00  0.00     0.010 A 
BRANCH   9  12
HETATM   12  O           1     -15.473 -10.563  -6.012  0.00  0.00    -0.247 OA
BRANCH  12  13
HETATM   13  P           1     -15.332 -12.151  -6.269  0.00  0.00     0.411 P 
HETATM   14  O           1     -15.655 -12.883  -5.023  0.00  0.00    -0.624 OA
HETATM   15  O           1     -13.945 -12.462  -6.678  0.00  0.00    -0.624 OA
BRANCH  13  16
HETATM   16  O           1     -16.354 -12.600  -7.436  0.00  0.00    -0.300 OA
HETATM   17  H           1     -16.153 -12.038  -8.164  0.00  0.00     0.223 HD
ENDBRANCH  13  16
ENDBRANCH  12  13
ENDBRANCH   9  12
ENDBRANCH   5   6
ENDBRANCH   1   5
BRANCH   1  18
HETATM   18  N           1     -20.938  -7.122  -3.201  0.00  0.00    -0.344 N 
HETATM   19  H           1     -20.773  -6.530  -2.397  0.00  0.00     0.163 HD
HETATM   20  C           1     -21.376  -6.575  -4.377  0.00  0.00     0.249 C 
HETATM   21  O           1     -22.561  -6.473  -4.590  0.00  0.00    -0.271 OA
BRANCH  20  22
HETATM   22  C           1     -20.380  -6.101  -5.406  0.00  0.00     0.275 C 
BRANCH  22  23
HETATM   23  C           1     -20.784  -4.720  -5.906  0.00  0.00     0.052 C 
BRANCH  23  24
HETATM   24  C           1     -21.052  -4.781  -7.404  0.00  0.00     0.105 C 
BRANCH  24  25
HETATM   25  C           1     -22.435  -4.248  -7.690  0.00  0.00     0.215 C 
HETATM   26  N           1     -23.467  -4.526  -6.834  0.00  0.00    -0.370 N 
HETATM   27  H           1     -24.394  -4.168  -7.027  0.00  0.00     0.159 HD
HETATM   28  H           1     -23.302  -5.090  -6.010  0.00  0.00     0.159 HD
HETATM   29  O           1     -22.631  -3.575  -8.674  0.00  0.00    -0.274 OA
ENDBRANCH  24  25
ENDBRANCH  23  24
ENDBRANCH  22  23
BRANCH  22  30
HETATM   30  N           1     -20.356  -7.062  -6.557  0.00  0.00    -0.066 N 
HETATM   31  H           1     -19.845  -6.631  -7.360  0.00  0.00     0.275 HD
HETATM   32  H           1     -19.869  -7.941  -6.267  0.00  0.00     0.275 HD
HETATM   33  H           1     -21.335  -7.284  -6.845  0.00  0.00     0.275 HD
ENDBRANCH  22  30
ENDBRANCH  20  22
ENDBRANCH   1  18
TORSDOF 12
ENDMDL
MODEL 5
REMARK VINA RESULT:      -6.7      3.641      8.496
REMARK  12 active torsions:
REMARK  status: ('A' for Active; 'I' for Inactive)
REMARK    1  A    between atoms: C_1  and  C_24 
REMARK    2  A    between atoms: C_1  and  C_2 
REMARK    3  A    between atoms: C_1  and  N_7 
REMARK    4  A    between atoms: C_2  and  C_3 
REMARK    5  A    between atoms: C_3  and  C_4 
REMARK       I    between atoms: C_4  and  N_5 
REMARK    6  A    between atoms: C_10  and  C_11 
REMARK    7  A    between atoms: C_11  and  C_12 
REMARK    8  A    between atoms: C_11  and  N_19 
REMARK    9  A    between atoms: C_12  and  C_18 
REMARK       I    between atoms: N_19  and  C_24 
REMARK   10  A    between atoms: C_22  and  O_23 
REMARK   11  A    between atoms: O_23  and  P_29 
REMARK   12  A    between atoms: P_29  and  O_33 
ROOT
HETATM    1  C           1     -21.310  -7.361  -5.715  0.00  0.00     0.189 C 
ENDROOT
BRANCH   1   2
HETATM    2  C           1     -22.010  -6.325  -4.868  0.00  0.00     0.197 C 
HETATM    3  O           1     -23.238  -6.136  -5.000  0.00  0.00    -0.646 OA
HETATM    4  O           1     -21.360  -5.656  -4.036  0.00  0.00    -0.646 OA
ENDBRANCH   1   2
BRANCH   1   5
HETATM    5  C           1     -20.105  -7.906  -4.959  0.00  0.00     0.074 C 
BRANCH   5   6
HETATM    6  C           1     -20.564  -8.887  -3.926  0.00  0.00    -0.056 A 
HETATM    7  C           1     -20.029  -8.845  -2.638  0.00  0.00     0.010 A 
HETATM    8  C           1     -20.457  -9.758  -1.675  0.00  0.00     0.038 A 
HETATM    9  C           1     -21.419 -10.715  -2.000  0.00  0.00     0.081 A 
HETATM   10  C           1     -21.954 -10.757  -3.287  0.00  0.00     0.038 A 
HETATM   11  C           1     -21.526  -9.843  -4.250  0.00  0.00     0.010 A 
BRANCH   9  12
HETATM   12  O           1     -21.834 -11.603  -1.065  0.00  0.00    -0.247 OA
BRANCH  12  13
HETATM   13  P           1     -23.271 -11.357  -0.370  0.00  0.00     0.411 P 
HETATM   14  O           1     -23.389  -9.936   0.028  0.00  0.00    -0.624 OA
HETATM   15  O           1     -23.392 -12.216   0.829  0.00  0.00    -0.624 OA
BRANCH  13  16
HETATM   16  O           1     -24.445 -11.722  -1.417  0.00  0.00    -0.300 OA
HETATM   17  H           1     -24.269 -11.191  -2.174  0.00  0.00     0.223 HD
ENDBRANCH  13  16
ENDBRANCH  12  13
ENDBRANCH   9  12
ENDBRANCH   5   6
ENDBRANCH   1   5
BRANCH   1  18
HETATM   18  N           1     -20.868  -6.753  -6.954  0.00  0.00    -0.344 N 
HETATM   19  H           1     -20.617  -7.336  -7.742  0.00  0.00     0.163 HD
HETATM   20  C           1     -20.789  -5.391  -7.059  0.00  0.00     0.249 C 
HETATM   21  O           1     -19.764  -4.821  -6.767  0.00  0.00    -0.271 OA
BRANCH  20  22
HETATM   22  C           1     -21.981  -4.600  -7.538  0.00  0.00     0.275 C 
BRANCH  22  23
HETATM   23  C           1     -22.231  -4.899  -9.010  0.00  0.00     0.052 C 
BRANCH  23  24
HETATM   24  C           1     -22.575  -3.607  -9.740  0.00  0.00     0.105 C 
BRANCH  24  25
HETATM   25  C           1     -24.052  -3.579 -10.046  0.00  0.00     0.215 C 
HETATM   26  N           1     -24.940  -3.157  -9.093  0.00  0.00    -0.370 N 
HETATM   27  H           1     -25.932  -3.138  -9.299  0.00  0.00     0.159 HD
HETATM   28  H           1     -24.606  -2.865  -8.184  0.00  0.00     0.159 HD
HETATM   29  O           1     -24.452  -3.928 -11.131  0.00  0.00    -0.274 OA
ENDBRANCH  24  25
ENDBRANCH  23  24
ENDBRANCH  22  23
BRANCH  22  30
HETATM   30  N           1     -21.711  -3.135  -7.365  0.00  0.00    -0.066 N 
HETATM   31  H           1     -21.263  -2.758  -8.230  0.00  0.00     0.275 HD
HETATM   32  H           1     -22.612  -2.633  -7.193  0.00  0.00     0.275 HD
HETATM   33  H           1     -21.072  -2.993  -6.551  0.00  0.00     0.275 HD
ENDBRANCH  22  30
ENDBRANCH  20  22
ENDBRANCH   1  18
TORSDOF 12
ENDMDL
MODEL 6
REMARK VINA RESULT:      -6.7      3.275      7.379
REMARK  12 active torsions:
REMARK  status: ('A' for Active; 'I' for Inactive)
REMARK    1  A    between atoms: C_1  and  C_24 
REMARK    2  A    between atoms: C_1  and  C_2 
REMARK    3  A    between atoms: C_1  and  N_7 
REMARK    4  A    between atoms: C_2  and  C_3 
REMARK    5  A    between atoms: C_3  and  C_4 
REMARK       I    between atoms: C_4  and  N_5 
REMARK    6  A    between atoms: C_10  and  C_11 
REMARK    7  A    between atoms: C_11  and  C_12 
REMARK    8  A    between atoms: C_11  and  N_19 
REMARK    9  A    between atoms: C_12  and  C_18 
REMARK       I    between atoms: N_19  and  C_24 
REMARK   10  A    between atoms: C_22  and  O_23 
REMARK   11  A    between atoms: O_23  and  P_29 
REMARK   12  A    between atoms: P_29  and  O_33 
ROOT
HETATM    1  C           1     -21.440  -7.768  -2.363  0.00  0.00     0.189 C 
ENDROOT
BRANCH   1   2
HETATM    2  C           1     -22.309  -7.740  -1.129  0.00  0.00     0.197 C 
HETATM    3  O           1     -22.582  -8.804  -0.533  0.00  0.00    -0.646 OA
HETATM    4  O           1     -22.756  -6.653  -0.704  0.00  0.00    -0.646 OA
ENDBRANCH   1   2
BRANCH   1   5
HETATM    5  C           1     -20.023  -8.174  -1.978  0.00  0.00     0.074 C 
BRANCH   5   6
HETATM    6  C           1     -19.571  -9.303  -2.851  0.00  0.00    -0.056 A 
HETATM    7  C           1     -20.512 -10.149  -3.439  0.00  0.00     0.010 A 
HETATM    8  C           1     -20.092 -11.200  -4.253  0.00  0.00     0.038 A 
HETATM    9  C           1     -18.731 -11.405  -4.479  0.00  0.00     0.081 A 
HETATM   10  C           1     -17.790 -10.560  -3.892  0.00  0.00     0.038 A 
HETATM   11  C           1     -18.211  -9.508  -3.078  0.00  0.00     0.010 A 
BRANCH   9  12
HETATM   12  O           1     -18.322 -12.427  -5.271  0.00  0.00    -0.247 OA
BRANCH  12  13
HETATM   13  P           1     -18.514 -12.274  -6.867  0.00  0.00     0.411 P 
HETATM   14  O           1     -17.383 -12.926  -7.564  0.00  0.00    -0.624 OA
HETATM   15  O           1     -18.551 -10.838  -7.223  0.00  0.00    -0.624 OA
BRANCH  13  16
HETATM   16  O           1     -19.898 -12.977  -7.312  0.00  0.00    -0.300 OA
HETATM   17  H           1     -20.502 -12.786  -6.616  0.00  0.00     0.223 HD
ENDBRANCH  13  16
ENDBRANCH  12  13
ENDBRANCH   9  12
ENDBRANCH   5   6
ENDBRANCH   1   5
BRANCH   1  18
HETATM   18  N           1     -21.416  -6.450  -2.967  0.00  0.00    -0.344 N 
HETATM   19  H           1     -21.252  -5.633  -2.392  0.00  0.00     0.163 HD
HETATM   20  C           1     -21.615  -6.310  -4.314  0.00  0.00     0.249 C 
HETATM   21  O           1     -22.733  -6.156  -4.745  0.00  0.00    -0.271 OA
BRANCH  20  22
HETATM   22  C           1     -20.440  -6.349  -5.259  0.00  0.00     0.275 C 
BRANCH  22  23
HETATM   23  C           1     -20.467  -5.119  -6.156  0.00  0.00     0.052 C 
BRANCH  23  24
HETATM   24  C           1     -20.706  -5.546  -7.598  0.00  0.00     0.105 C 
BRANCH  24  25
HETATM   25  C           1     -21.870  -4.772  -8.166  0.00  0.00     0.215 C 
HETATM   26  N           1     -22.778  -4.186  -7.325  0.00  0.00    -0.370 N 
HETATM   27  H           1     -23.559  -3.667  -7.707  0.00  0.00     0.159 HD
HETATM   28  H           1     -22.668  -4.271  -6.323  0.00  0.00     0.159 HD
HETATM   29  O           1     -22.001  -4.670  -9.363  0.00  0.00    -0.274 OA
ENDBRANCH  24  25
ENDBRANCH  23  24
ENDBRANCH  22  23
BRANCH  22  30
HETATM   30  N           1     -20.520  -7.585  -6.104  0.00  0.00    -0.066 N 
HETATM   31  H           1     -20.571  -8.427  -5.487  0.00  0.00     0.275 HD
HETATM   32  H           1     -21.375  -7.542  -6.704  0.00  0.00     0.275 HD
HETATM   33  H           1     -19.671  -7.648  -6.710  0.00  0.00     0.275 HD
ENDBRANCH  22  30
ENDBRANCH  20  22
ENDBRANCH   1  18
TORSDOF 12
ENDMDL
MODEL 7
REMARK VINA RESULT:      -6.5      1.732      2.819
REMARK  12 active torsions:
REMARK  status: ('A' for Active; 'I' for Inactive)
REMARK    1  A    between atoms: C_1  and  C_24 
REMARK    2  A    between atoms: C_1  and  C_2 
REMARK    3  A    between atoms: C_1  and  N_7 
REMARK    4  A    between atoms: C_2  and  C_3 
REMARK    5  A    between atoms: C_3  and  C_4 
REMARK       I    between atoms: C_4  and  N_5 
REMARK    6  A    between atoms: C_10  and  C_11 
REMARK    7  A    between atoms: C_11  and  C_12 
REMARK    8  A    between atoms: C_11  and  N_19 
REMARK    9  A    between atoms: C_12  and  C_18 
REMARK       I    between atoms: N_19  and  C_24 
REMARK   10  A    between atoms: C_22  and  O_23 
REMARK   11  A    between atoms: O_23  and  P_29 
REMARK   12  A    between atoms: P_29  and  O_33 
ROOT
HETATM    1  C           1     -20.803  -6.979  -4.079  0.00  0.00     0.189 C 
ENDROOT
BRANCH   1   2
HETATM    2  C           1     -21.252  -6.804  -2.649  0.00  0.00     0.197 C 
HETATM    3  O           1     -20.575  -7.293  -1.718  0.00  0.00    -0.646 OA
HETATM    4  O           1     -22.299  -6.171  -2.395  0.00  0.00    -0.646 OA
ENDBRANCH   1   2
BRANCH   1   5
HETATM    5  C           1     -22.014  -7.252  -4.962  0.00  0.00     0.074 C 
BRANCH   5   6
HETATM    6  C           1     -22.054  -6.258  -6.080  0.00  0.00    -0.056 A 
HETATM    7  C           1     -23.164  -5.428  -6.236  0.00  0.00     0.010 A 
HETATM    8  C           1     -23.201  -4.501  -7.277  0.00  0.00     0.038 A 
HETATM    9  C           1     -22.128  -4.404  -8.162  0.00  0.00     0.081 A 
HETATM   10  C           1     -21.018  -5.232  -8.006  0.00  0.00     0.038 A 
HETATM   11  C           1     -20.980  -6.160  -6.965  0.00  0.00     0.010 A 
BRANCH   9  12
HETATM   12  O           1     -22.164  -3.503  -9.174  0.00  0.00    -0.247 OA
BRANCH  12  13
HETATM   13  P           1     -23.051  -3.858 -10.476  0.00  0.00     0.411 P 
HETATM   14  O           1     -23.463  -5.279 -10.419  0.00  0.00    -0.624 OA
HETATM   15  O           1     -22.249  -3.626 -11.697  0.00  0.00    -0.624 OA
BRANCH  13  16
HETATM   16  O           1     -24.364  -2.918 -10.505  0.00  0.00    -0.300 OA
HETATM   17  H           1     -24.790  -3.120 -11.320  0.00  0.00     0.223 HD
ENDBRANCH  13  16
ENDBRANCH  12  13
ENDBRANCH   9  12
ENDBRANCH   5   6
ENDBRANCH   1   5
BRANCH   1  18
HETATM   18  N           1     -19.883  -8.096  -4.164  0.00  0.00    -0.344 N 
HETATM   19  H           1     -18.900  -7.957  -3.968  0.00  0.00     0.163 HD
HETATM   20  C           1     -20.343  -9.338  -4.508  0.00  0.00     0.249 C 
HETATM   21  O           1     -20.376  -9.669  -5.670  0.00  0.00    -0.271 OA
BRANCH  20  22
HETATM   22  C           1     -20.810 -10.294  -3.438  0.00  0.00     0.275 C 
BRANCH  22  23
HETATM   23  C           1     -22.302 -10.101  -3.201  0.00  0.00     0.052 C 
BRANCH  23  24
HETATM   24  C           1     -22.799 -11.148  -2.212  0.00  0.00     0.105 C 
BRANCH  24  25
HETATM   25  C           1     -23.239 -10.469  -0.939  0.00  0.00     0.215 C 
HETATM   26  N           1     -24.176 -11.062  -0.136  0.00  0.00    -0.370 N 
HETATM   27  H           1     -24.471 -10.606   0.719  0.00  0.00     0.159 HD
HETATM   28  H           1     -24.573 -11.955  -0.396  0.00  0.00     0.159 HD
HETATM   29  O           1     -22.765  -9.402  -0.627  0.00  0.00    -0.274 OA
ENDBRANCH  24  25
ENDBRANCH  23  24
ENDBRANCH  22  23
BRANCH  22  30
HETATM   30  N           1     -20.063 -10.024  -2.167  0.00  0.00    -0.066 N 
HETATM   31  H           1     -19.565  -9.108  -2.242  0.00  0.00     0.275 HD
HETATM   32  H           1     -20.737  -9.988  -1.368  0.00  0.00     0.275 HD
HETATM   33  H           1     -19.368 -10.786  -2.003  0.00  0.00     0.275 HD
ENDBRANCH  22  30
ENDBRANCH  20  22
ENDBRANCH   1  18
TORSDOF 12
ENDMDL
MODEL 8
REMARK VINA RESULT:      -6.5      2.718      4.675
REMARK  12 active torsions:
REMARK  status: ('A' for Active; 'I' for Inactive)
REMARK    1  A    between atoms: C_1  and  C_24 
REMARK    2  A    between atoms: C_1  and  C_2 
REMARK    3  A    between atoms: C_1  and  N_7 
REMARK    4  A    between atoms: C_2  and  C_3 
REMARK    5  A    between atoms: C_3  and  C_4 
REMARK       I    between atoms: C_4  and  N_5 
REMARK    6  A    between atoms: C_10  and  C_11 
REMARK    7  A    between atoms: C_11  and  C_12 
REMARK    8  A    between atoms: C_11  and  N_19 
REMARK    9  A    between atoms: C_12  and  C_18 
REMARK       I    between atoms: N_19  and  C_24 
REMARK   10  A    between atoms: C_22  and  O_23 
REMARK   11  A    between atoms: O_23  and  P_29 
REMARK   12  A    between atoms: P_29  and  O_33 
ROOT
HETATM    1  C           1     -20.800  -7.490  -3.802  0.00  0.00     0.189 C 
ENDROOT
BRANCH   1   2
HETATM    2  C           1     -21.338  -6.881  -2.529  0.00  0.00     0.197 C 
HETATM    3  O           1     -21.029  -7.373  -1.423  0.00  0.00    -0.646 OA
HETATM    4  O           1     -22.091  -5.885  -2.583  0.00  0.00    -0.646 OA
ENDBRANCH   1   2
BRANCH   1   5
HETATM    5  C           1     -21.883  -7.468  -4.873  0.00  0.00     0.074 C 
BRANCH   5   6
HETATM    6  C           1     -21.535  -6.453  -5.916  0.00  0.00    -0.056 A 
HETATM    7  C           1     -22.489  -5.522  -6.330  0.00  0.00     0.010 A 
HETATM    8  C           1     -22.165  -4.576  -7.301  0.00  0.00     0.038 A 
HETATM    9  C           1     -20.887  -4.560  -7.859  0.00  0.00     0.081 A 
HETATM   10  C           1     -19.933  -5.488  -7.446  0.00  0.00     0.038 A 
HETATM   11  C           1     -20.257  -6.435  -6.474  0.00  0.00     0.010 A 
BRANCH   9  12
HETATM   12  O           1     -20.572  -3.640  -8.804  0.00  0.00    -0.247 OA
BRANCH  12  13
HETATM   13  P           1     -20.714  -4.066 -10.355  0.00  0.00     0.411 P 
HETATM   14  O           1     -22.087  -4.557 -10.608  0.00  0.00    -0.624 OA
HETATM   15  O           1     -19.743  -5.139 -10.662  0.00  0.00    -0.624 OA
BRANCH  13  16
HETATM   16  O           1     -20.420  -2.785 -11.294  0.00  0.00    -0.300 OA
HETATM   17  H           1     -19.794  -2.271 -10.814  0.00  0.00     0.223 HD
ENDBRANCH  13  16
ENDBRANCH  12  13
ENDBRANCH   9  12
ENDBRANCH   5   6
ENDBRANCH   1   5
BRANCH   1  18
HETATM   18  N           1     -20.399  -8.860  -3.550  0.00  0.00    -0.344 N 
HETATM   19  H           1     -21.035  -9.496  -3.086  0.00  0.00     0.163 HD
HETATM   20  C           1     -19.160  -9.293  -3.939  0.00  0.00     0.249 C 
HETATM   21  O           1     -18.223  -9.199  -3.183  0.00  0.00    -0.271 OA
BRANCH  20  22
HETATM   22  C           1     -18.965  -9.888  -5.312  0.00  0.00     0.275 C 
BRANCH  22  23
HETATM   23  C           1     -18.128 -11.155  -5.204  0.00  0.00     0.052 C 
BRANCH  23  24
HETATM   24  C           1     -16.838 -10.982  -5.994  0.00  0.00     0.105 C 
BRANCH  24  25
HETATM   25  C           1     -15.657 -11.122  -5.066  0.00  0.00     0.215 C 
HETATM   26  N           1     -15.787 -10.808  -3.740  0.00  0.00    -0.370 N 
HETATM   27  H           1     -14.993 -10.903  -3.118  0.00  0.00     0.159 HD
HETATM   28  H           1     -16.675 -10.483  -3.382  0.00  0.00     0.159 HD
HETATM   29  O           1     -14.595 -11.511  -5.494  0.00  0.00    -0.274 OA
ENDBRANCH  24  25
ENDBRANCH  23  24
ENDBRANCH  22  23
BRANCH  22  30
HETATM   30  N           1     -18.260  -8.897  -6.190  0.00  0.00    -0.066 N 
HETATM   31  H           1     -17.347  -9.297  -6.504  0.00  0.00     0.275 HD
HETATM   32  H           1     -18.853  -8.688  -7.025  0.00  0.00     0.275 HD
HETATM   33  H           1     -18.089  -8.017  -5.653  0.00  0.00     0.275 HD
ENDBRANCH  22  30
ENDBRANCH  20  22
ENDBRANCH   1  18
TORSDOF 12
ENDMDL
MODEL 9
REMARK VINA RESULT:      -6.5      3.564      8.606
REMARK  12 active torsions:
REMARK  status: ('A' for Active; 'I' for Inactive)
REMARK    1  A    between atoms: C_1  and  C_24 
REMARK    2  A    between atoms: C_1  and  C_2 
REMARK    3  A    between atoms: C_1  and  N_7 
REMARK    4  A    between atoms: C_2  and  C_3 
REMARK    5  A    between atoms: C_3  and  C_4 
REMARK       I    between atoms: C_4  and  N_5 
REMARK    6  A    between atoms: C_10  and  C_11 
REMARK    7  A    between atoms: C_11  and  C_12 
REMARK    8  A    between atoms: C_11  and  N_19 
REMARK    9  A    between atoms: C_12  and  C_18 
REMARK       I    between atoms: N_19  and  C_24 
REMARK   10  A    between atoms: C_22  and  O_23 
REMARK   11  A    between atoms: O_23  and  P_29 
REMARK   12  A    between atoms: P_29  and  O_33 
ROOT
HETATM    1  C           1     -22.177  -6.500  -5.684  0.00  0.00     0.189 C 
ENDROOT
BRANCH   1   2
HETATM    2  C           1     -23.387  -5.619  -5.882  0.00  0.00     0.197 C 
HETATM    3  O           1     -23.331  -4.651  -6.671  0.00  0.00    -0.646 OA
HETATM    4  O           1     -24.443  -5.858  -5.258  0.00  0.00    -0.646 OA
ENDBRANCH   1   2
BRANCH   1   5
HETATM    5  C           1     -21.240  -5.857  -4.671  0.00  0.00     0.074 C 
BRANCH   5   6
HETATM    6  C           1     -21.165  -6.712  -3.445  0.00  0.00    -0.056 A 
HETATM    7  C           1     -21.958  -6.412  -2.337  0.00  0.00     0.010 A 
HETATM    8  C           1     -21.889  -7.209  -1.194  0.00  0.00     0.038 A 
HETATM    9  C           1     -21.027  -8.305  -1.160  0.00  0.00     0.081 A 
HETATM   10  C           1     -20.235  -8.605  -2.267  0.00  0.00     0.038 A 
HETATM   11  C           1     -20.304  -7.809  -3.410  0.00  0.00     0.010 A 
BRANCH   9  12
HETATM   12  O           1     -20.960  -9.080  -0.049  0.00  0.00    -0.247 OA
BRANCH  12  13
HETATM   13  P           1     -21.003 -10.683  -0.239  0.00  0.00     0.411 P 
HETATM   14  O           1     -22.083 -11.039  -1.185  0.00  0.00    -0.624 OA
HETATM   15  O           1     -21.261 -11.326   1.068  0.00  0.00    -0.624 OA
BRANCH  13  16
HETATM   16  O           1     -19.586 -11.194  -0.822  0.00  0.00    -0.300 OA
HETATM   17  H           1     -19.015 -10.448  -0.760  0.00  0.00     0.223 HD
ENDBRANCH  13  16
ENDBRANCH  12  13
ENDBRANCH   9  12
ENDBRANCH   5   6
ENDBRANCH   1   5
BRANCH   1  18
HETATM   18  N           1     -21.485  -6.661  -6.948  0.00  0.00    -0.344 N 
HETATM   19  H           1     -21.937  -7.142  -7.715  0.00  0.00     0.163 HD
HETATM   20  C           1     -20.220  -6.162  -7.104  0.00  0.00     0.249 C 
HETATM   21  O           1     -19.263  -6.850  -6.839  0.00  0.00    -0.271 OA
BRANCH  20  22
HETATM   22  C           1     -20.021  -4.753  -7.607  0.00  0.00     0.275 C 
BRANCH  22  23
HETATM   23  C           1     -20.175  -4.727  -9.122  0.00  0.00     0.052 C 
BRANCH  23  24
HETATM   24  C           1     -21.500  -4.072  -9.486  0.00  0.00     0.105 C 
BRANCH  24  25
HETATM   25  C           1     -21.518  -3.760 -10.963  0.00  0.00     0.215 C 
HETATM   26  N           1     -20.348  -3.482 -11.618  0.00  0.00    -0.370 N 
HETATM   27  H           1     -20.360  -3.274 -12.609  0.00  0.00     0.159 HD
HETATM   28  H           1     -19.472  -3.486 -11.112  0.00  0.00     0.159 HD
HETATM   29  O           1     -22.564  -3.756 -11.567  0.00  0.00    -0.274 OA
ENDBRANCH  24  25
ENDBRANCH  23  24
ENDBRANCH  22  23
BRANCH  22  30
HETATM   30  N           1     -18.647  -4.280  -7.236  0.00  0.00    -0.066 N 
HETATM   31  H           1     -18.283  -4.854  -6.441  0.00  0.00     0.275 HD
HETATM   32  H           1     -18.009  -4.383  -8.058  0.00  0.00     0.275 HD
HETATM   33  H           1     -18.690  -3.276  -6.950  0.00  0.00     0.275 HD
ENDBRANCH  22  30
ENDBRANCH  20  22
ENDBRANCH   1  18
TORSDOF 12
ENDMDL
