MODEL 1
REMARK VINA RESULT:      -5.4      0.000      0.000
REMARK  9 active torsions:
REMARK  status: ('A' for Active; 'I' for Inactive)
REMARK    1  A    between atoms: C_1  and  C_2 
REMARK    2  A    between atoms: C_1  and  S_16 
REMARK    3  A    between atoms: C_2  and  C_3 
REMARK    4  A    between atoms: C_2  and  N_15 
REMARK       I    between atoms: C_3  and  N_18 
REMARK    5  A    between atoms: C_4  and  C_5 
REMARK    6  A    between atoms: C_4  and  C_7 
REMARK    7  A    between atoms: C_4  and  N_18 
REMARK    8  A    between atoms: C_5  and  C_8 
REMARK    9  A    between atoms: C_8  and  Se_9 
ROOT
HETATM    1  C           1     -25.372  -6.856 -18.972  0.00  0.00     0.249 C 
HETATM    2  H           1     -27.406  -6.957 -18.604  0.00  0.00     0.163 HD
HETATM    3  O           1     -24.305  -6.476 -18.548  0.00  0.00    -0.271 OA
HETATM    4  N           1     -26.513  -6.637 -18.249  0.00  0.00    -0.345 N 
ENDROOT
BRANCH   1   5
HETATM    5  C           1     -25.444  -7.573 -20.299  0.00  0.00     0.283 C 
BRANCH   5   6
HETATM    6  C           1     -24.830  -6.697 -21.384  0.00  0.00     0.113 C 
BRANCH   6   7
HETATM    7  S           1     -23.880  -7.732 -22.532  0.00  0.00    -0.180 SA
HETATM    8  H           1     -24.378  -8.906 -22.109  0.00  0.00     0.101 HD
ENDBRANCH   6   7
ENDBRANCH   5   6
BRANCH   5   9
HETATM    9  N           1     -26.878  -7.855 -20.635  0.00  0.00    -0.066 N 
HETATM   10  H           1     -27.441  -7.893 -19.756  0.00  0.00     0.275 HD
HETATM   11  H           1     -27.246  -7.098 -21.254  0.00  0.00     0.275 HD
HETATM   12  H           1     -26.945  -8.773 -21.131  0.00  0.00     0.275 HD
ENDBRANCH   5   9
ENDBRANCH   1   5
BRANCH   4  13
HETATM   13  C           1     -26.443  -5.949 -16.974  0.00  0.00     0.185 C 
BRANCH  13  14
HETATM   14  C           1     -27.666  -5.054 -16.815  0.00  0.00     0.036 C 
BRANCH  14  15
HETATM   15  C           1     -28.596  -5.250 -18.004  0.00  0.00     0.003 C 
BRANCH  15  16
HETATM   16 Se           1     -30.266  -6.052 -17.397  0.00  0.00     0.000 Se
HETATM   17  C           1     -30.021  -7.710 -18.393  0.00  0.00     0.000 C 
ENDBRANCH  15  16
ENDBRANCH  14  15
ENDBRANCH  13  14
BRANCH  13  18
HETATM   18  C           1     -26.413  -6.963 -15.857  0.00  0.00     0.196 C 
HETATM   19  O           1     -27.483  -7.389 -15.371  0.00  0.00    -0.646 OA
HETATM   20  O           1     -25.319  -7.376 -15.418  0.00  0.00    -0.646 OA
ENDBRANCH  13  18
ENDBRANCH   4  13
TORSDOF 9
ENDMDL
MODEL 2
REMARK VINA RESULT:      -5.0     11.601     12.971
REMARK  9 active torsions:
REMARK  status: ('A' for Active; 'I' for Inactive)
REMARK    1  A    between atoms: C_1  and  C_2 
REMARK    2  A    between atoms: C_1  and  S_16 
REMARK    3  A    between atoms: C_2  and  C_3 
REMARK    4  A    between atoms: C_2  and  N_15 
REMARK       I    between atoms: C_3  and  N_18 
REMARK    5  A    between atoms: C_4  and  C_5 
REMARK    6  A    between atoms: C_4  and  C_7 
REMARK    7  A    between atoms: C_4  and  N_18 
REMARK    8  A    between atoms: C_5  and  C_8 
REMARK    9  A    between atoms: C_8  and  Se_9 
ROOT
HETATM    1  C           1     -36.560  -0.104 -13.442  0.00  0.00     0.249 C 
HETATM    2  H           1     -35.095   0.495 -12.108  0.00  0.00     0.163 HD
HETATM    3  O           1     -37.561  -0.767 -13.582  0.00  0.00    -0.271 OA
HETATM    4  N           1     -35.934  -0.061 -12.225  0.00  0.00    -0.345 N 
ENDROOT
BRANCH   1   5
HETATM    5  C           1     -36.003   0.677 -14.607  0.00  0.00     0.283 C 
BRANCH   5   6
HETATM    6  C           1     -36.653   0.196 -15.898  0.00  0.00     0.113 C 
BRANCH   6   7
HETATM    7  S           1     -35.659  -1.142 -16.615  0.00  0.00    -0.180 SA
HETATM    8  H           1     -36.337  -2.147 -16.034  0.00  0.00     0.101 HD
ENDBRANCH   6   7
ENDBRANCH   5   6
BRANCH   5   9
HETATM    9  N           1     -34.520   0.465 -14.685  0.00  0.00    -0.066 N 
HETATM   10  H           1     -34.047   1.379 -14.864  0.00  0.00     0.275 HD
HETATM   11  H           1     -34.177   0.065 -13.782  0.00  0.00     0.275 HD
HETATM   12  H           1     -34.303  -0.197 -15.464  0.00  0.00     0.275 HD
ENDBRANCH   5   9
ENDBRANCH   1   5
BRANCH   4  13
HETATM   13  C           1     -36.469  -0.811 -11.106  0.00  0.00     0.185 C 
BRANCH  13  14
HETATM   14  C           1     -35.397  -1.746 -10.563  0.00  0.00     0.036 C 
BRANCH  14  15
HETATM   15  C           1     -35.121  -2.846 -11.579  0.00  0.00     0.003 C 
BRANCH  15  16
HETATM   16 Se           1     -33.271  -3.438 -11.411  0.00  0.00     0.000 Se
HETATM   17  C           1     -33.729  -5.275 -10.949  0.00  0.00     0.000 C 
ENDBRANCH  15  16
ENDBRANCH  14  15
ENDBRANCH  13  14
BRANCH  13  18
HETATM   18  C           1     -36.899   0.146 -10.021  0.00  0.00     0.196 C 
HETATM   19  O           1     -36.264   0.198  -8.945  0.00  0.00    -0.646 OA
HETATM   20  O           1     -37.890   0.887 -10.196  0.00  0.00    -0.646 OA
ENDBRANCH  13  18
ENDBRANCH   4  13
TORSDOF 9
ENDMDL
MODEL 3
REMARK VINA RESULT:      -4.8      2.158      2.912
REMARK  9 active torsions:
REMARK  status: ('A' for Active; 'I' for Inactive)
REMARK    1  A    between atoms: C_1  and  C_2 
REMARK    2  A    between atoms: C_1  and  S_16 
REMARK    3  A    between atoms: C_2  and  C_3 
REMARK    4  A    between atoms: C_2  and  N_15 
REMARK       I    between atoms: C_3  and  N_18 
REMARK    5  A    between atoms: C_4  and  C_5 
REMARK    6  A    between atoms: C_4  and  C_7 
REMARK    7  A    between atoms: C_4  and  N_18 
REMARK    8  A    between atoms: C_5  and  C_8 
REMARK    9  A    between atoms: C_8  and  Se_9 
ROOT
HETATM    1  C           1     -26.136  -6.632 -18.901  0.00  0.00     0.249 C 
HETATM    2  H           1     -27.619  -7.066 -20.278  0.00  0.00     0.163 HD
HETATM    3  O           1     -25.909  -6.294 -17.762  0.00  0.00    -0.271 OA
HETATM    4  N           1     -27.429  -6.783 -19.324  0.00  0.00    -0.345 N 
ENDROOT
BRANCH   1   5
HETATM    5  C           1     -24.994  -6.888 -19.853  0.00  0.00     0.283 C 
BRANCH   5   6
HETATM    6  C           1     -25.458  -7.821 -20.965  0.00  0.00     0.113 C 
BRANCH   6   7
HETATM    7  S           1     -24.189  -7.900 -22.259  0.00  0.00    -0.180 SA
HETATM    8  H           1     -23.138  -7.943 -21.423  0.00  0.00     0.101 HD
ENDBRANCH   6   7
ENDBRANCH   5   6
BRANCH   5   9
HETATM    9  N           1     -23.857  -7.524 -19.110  0.00  0.00    -0.066 N 
HETATM   10  H           1     -23.359  -8.193 -19.740  0.00  0.00     0.275 HD
HETATM   11  H           1     -23.192  -6.784 -18.789  0.00  0.00     0.275 HD
HETATM   12  H           1     -24.229  -8.040 -18.280  0.00  0.00     0.275 HD
ENDBRANCH   5   9
ENDBRANCH   1   5
BRANCH   4  13
HETATM   13  C           1     -28.526  -6.536 -18.409  0.00  0.00     0.185 C 
BRANCH  13  14
HETATM   14  C           1     -29.244  -5.255 -18.812  0.00  0.00     0.036 C 
BRANCH  14  15
HETATM   15  C           1     -29.694  -4.512 -17.561  0.00  0.00     0.003 C 
BRANCH  15  16
HETATM   16 Se           1     -28.309  -4.637 -16.196  0.00  0.00     0.000 Se
HETATM   17  C           1     -29.394  -5.681 -14.958  0.00  0.00     0.000 C 
ENDBRANCH  15  16
ENDBRANCH  14  15
ENDBRANCH  13  14
BRANCH  13  18
HETATM   18  C           1     -29.493  -7.694 -18.462  0.00  0.00     0.196 C 
HETATM   19  O           1     -29.487  -8.468 -19.444  0.00  0.00    -0.646 OA
HETATM   20  O           1     -30.300  -7.878 -17.527  0.00  0.00    -0.646 OA
ENDBRANCH  13  18
ENDBRANCH   4  13
TORSDOF 9
ENDMDL
MODEL 4
REMARK VINA RESULT:      -4.6      2.770      5.638
REMARK  9 active torsions:
REMARK  status: ('A' for Active; 'I' for Inactive)
REMARK    1  A    between atoms: C_1  and  C_2 
REMARK    2  A    between atoms: C_1  and  S_16 
REMARK    3  A    between atoms: C_2  and  C_3 
REMARK    4  A    between atoms: C_2  and  N_15 
REMARK       I    between atoms: C_3  and  N_18 
REMARK    5  A    between atoms: C_4  and  C_5 
REMARK    6  A    between atoms: C_4  and  C_7 
REMARK    7  A    between atoms: C_4  and  N_18 
REMARK    8  A    between atoms: C_5  and  C_8 
REMARK    9  A    between atoms: C_8  and  Se_9 
ROOT
HETATM    1  C           1     -30.024  -5.465 -17.150  0.00  0.00     0.249 C 
HETATM    2  H           1     -28.313  -4.635 -16.334  0.00  0.00     0.163 HD
HETATM    3  O           1     -30.493  -6.442 -17.687  0.00  0.00    -0.271 OA
HETATM    4  N           1     -28.705  -5.453 -16.784  0.00  0.00    -0.345 N 
ENDROOT
BRANCH   1   5
HETATM    5  C           1     -30.894  -4.261 -16.882  0.00  0.00     0.283 C 
BRANCH   5   6
HETATM    6  C           1     -32.352  -4.696 -16.797  0.00  0.00     0.113 C 
BRANCH   6   7
HETATM    7  S           1     -33.427  -3.292 -17.206  0.00  0.00    -0.180 SA
HETATM    8  H           1     -32.999  -2.494 -16.213  0.00  0.00     0.101 HD
ENDBRANCH   6   7
ENDBRANCH   5   6
BRANCH   5   9
HETATM    9  N           1     -30.732  -3.272 -17.997  0.00  0.00    -0.066 N 
HETATM   10  H           1     -30.979  -2.316 -17.654  0.00  0.00     0.275 HD
HETATM   11  H           1     -29.740  -3.278 -18.327  0.00  0.00     0.275 HD
HETATM   12  H           1     -31.363  -3.531 -18.788  0.00  0.00     0.275 HD
ENDBRANCH   5   9
ENDBRANCH   1   5
BRANCH   4  13
HETATM   13  C           1     -27.870  -6.610 -17.041  0.00  0.00     0.185 C 
BRANCH  13  14
HETATM   14  C           1     -26.700  -6.203 -17.929  0.00  0.00     0.036 C 
BRANCH  14  15
HETATM   15  C           1     -27.118  -6.290 -19.390  0.00  0.00     0.003 C 
BRANCH  15  16
HETATM   16 Se           1     -25.636  -6.983 -20.451  0.00  0.00     0.000 Se
HETATM   17  C           1     -24.383  -7.043 -18.959  0.00  0.00     0.000 C 
ENDBRANCH  15  16
ENDBRANCH  14  15
ENDBRANCH  13  14
BRANCH  13  18
HETATM   18  C           1     -27.345  -7.150 -15.734  0.00  0.00     0.196 C 
HETATM   19  O           1     -26.113  -7.212 -15.532  0.00  0.00    -0.646 OA
HETATM   20  O           1     -28.142  -7.537 -14.853  0.00  0.00    -0.646 OA
ENDBRANCH  13  18
ENDBRANCH   4  13
TORSDOF 9
ENDMDL
MODEL 5
REMARK VINA RESULT:      -4.6     12.455     14.547
REMARK  9 active torsions:
REMARK  status: ('A' for Active; 'I' for Inactive)
REMARK    1  A    between atoms: C_1  and  C_2 
REMARK    2  A    between atoms: C_1  and  S_16 
REMARK    3  A    between atoms: C_2  and  C_3 
REMARK    4  A    between atoms: C_2  and  N_15 
REMARK       I    between atoms: C_3  and  N_18 
REMARK    5  A    between atoms: C_4  and  C_5 
REMARK    6  A    between atoms: C_4  and  C_7 
REMARK    7  A    between atoms: C_4  and  N_18 
REMARK    8  A    between atoms: C_5  and  C_8 
REMARK    9  A    between atoms: C_8  and  Se_9 
ROOT
HETATM    1  C           1     -21.519  -6.610  -4.340  0.00  0.00     0.249 C 
HETATM    2  H           1     -20.659  -4.744  -4.593  0.00  0.00     0.163 HD
HETATM    3  O           1     -22.041  -7.545  -4.900  0.00  0.00    -0.271 OA
HETATM    4  N           1     -21.097  -5.527  -5.063  0.00  0.00    -0.345 N 
ENDROOT
BRANCH   1   5
HETATM    5  C           1     -21.331  -6.637  -2.842  0.00  0.00     0.283 C 
BRANCH   5   6
HETATM    6  C           1     -21.370  -8.079  -2.352  0.00  0.00     0.113 C 
BRANCH   6   7
HETATM    7  S           1     -21.614  -8.101  -0.554  0.00  0.00    -0.180 SA
HETATM    8  H           1     -22.770  -8.785  -0.577  0.00  0.00     0.101 HD
ENDBRANCH   6   7
ENDBRANCH   5   6
BRANCH   5   9
HETATM    9  N           1     -22.432  -5.857  -2.188  0.00  0.00    -0.066 N 
HETATM   10  H           1     -23.295  -5.912  -2.775  0.00  0.00     0.275 HD
HETATM   11  H           1     -22.627  -6.256  -1.241  0.00  0.00     0.275 HD
HETATM   12  H           1     -22.141  -4.858  -2.091  0.00  0.00     0.275 HD
ENDBRANCH   5   9
ENDBRANCH   1   5
BRANCH   4  13
HETATM   13  C           1     -21.277  -5.501  -6.502  0.00  0.00     0.185 C 
BRANCH  13  14
HETATM   14  C           1     -21.804  -4.135  -6.922  0.00  0.00     0.036 C 
BRANCH  14  15
HETATM   15  C           1     -23.124  -4.305  -7.660  0.00  0.00     0.003 C 
BRANCH  15  16
HETATM   16 Se           1     -22.798  -4.317  -9.583  0.00  0.00     0.000 Se
HETATM   17  C           1     -24.487  -3.459 -10.040  0.00  0.00     0.000 C 
ENDBRANCH  15  16
ENDBRANCH  14  15
ENDBRANCH  13  14
BRANCH  13  18
HETATM   18  C           1     -19.953  -5.759  -7.178  0.00  0.00     0.196 C 
HETATM   19  O           1     -19.395  -6.871  -7.055  0.00  0.00    -0.646 OA
HETATM   20  O           1     -19.414  -4.863  -7.861  0.00  0.00    -0.646 OA
ENDBRANCH  13  18
ENDBRANCH   4  13
TORSDOF 9
ENDMDL
MODEL 6
REMARK VINA RESULT:      -4.5     12.089     13.546
REMARK  9 active torsions:
REMARK  status: ('A' for Active; 'I' for Inactive)
REMARK    1  A    between atoms: C_1  and  C_2 
REMARK    2  A    between atoms: C_1  and  S_16 
REMARK    3  A    between atoms: C_2  and  C_3 
REMARK    4  A    between atoms: C_2  and  N_15 
REMARK       I    between atoms: C_3  and  N_18 
REMARK    5  A    between atoms: C_4  and  C_5 
REMARK    6  A    between atoms: C_4  and  C_7 
REMARK    7  A    between atoms: C_4  and  N_18 
REMARK    8  A    between atoms: C_5  and  C_8 
REMARK    9  A    between atoms: C_8  and  Se_9 
ROOT
HETATM    1  C           1     -35.507   0.317 -13.624  0.00  0.00     0.249 C 
HETATM    2  H           1     -37.153  -0.879 -13.247  0.00  0.00     0.163 HD
HETATM    3  O           1     -34.583   0.918 -13.127  0.00  0.00    -0.271 OA
HETATM    4  N           1     -36.380  -0.376 -12.830  0.00  0.00    -0.345 N 
ENDROOT
BRANCH   1   5
HETATM    5  C           1     -35.697   0.332 -15.122  0.00  0.00     0.283 C 
BRANCH   5   6
HETATM    6  C           1     -37.157   0.618 -15.446  0.00  0.00     0.113 C 
BRANCH   6   7
HETATM    7  S           1     -37.909  -0.852 -16.200  0.00  0.00    -0.180 SA
HETATM    8  H           1     -37.024  -0.963 -17.205  0.00  0.00     0.101 HD
ENDBRANCH   6   7
ENDBRANCH   5   6
BRANCH   5   9
HETATM    9  N           1     -35.311  -1.003 -15.686  0.00  0.00    -0.066 N 
HETATM   10  H           1     -35.695  -1.096 -16.654  0.00  0.00     0.275 HD
HETATM   11  H           1     -34.269  -1.083 -15.714  0.00  0.00     0.275 HD
HETATM   12  H           1     -35.702  -1.762 -15.083  0.00  0.00     0.275 HD
ENDBRANCH   5   9
ENDBRANCH   1   5
BRANCH   4  13
HETATM   13  C           1     -36.198  -0.390 -11.391  0.00  0.00     0.185 C 
BRANCH  13  14
HETATM   14  C           1     -37.555  -0.287 -10.707  0.00  0.00     0.036 C 
BRANCH  14  15
HETATM   15  C           1     -37.359  -0.225  -9.199  0.00  0.00     0.003 C 
BRANCH  15  16
HETATM   16 Se           1     -37.903   1.529  -8.544  0.00  0.00     0.000 Se
HETATM   17  C           1     -37.240   1.240  -6.734  0.00  0.00     0.000 C 
ENDBRANCH  15  16
ENDBRANCH  14  15
ENDBRANCH  13  14
BRANCH  13  18
HETATM   18  C           1     -35.525  -1.677 -10.983  0.00  0.00     0.196 C 
HETATM   19  O           1     -34.365  -1.656 -10.515  0.00  0.00    -0.646 OA
HETATM   20  O           1     -36.125  -2.765 -11.112  0.00  0.00    -0.646 OA
ENDBRANCH  13  18
ENDBRANCH   4  13
TORSDOF 9
ENDMDL
MODEL 7
REMARK VINA RESULT:      -4.4      2.897      5.437
REMARK  9 active torsions:
REMARK  status: ('A' for Active; 'I' for Inactive)
REMARK    1  A    between atoms: C_1  and  C_2 
REMARK    2  A    between atoms: C_1  and  S_16 
REMARK    3  A    between atoms: C_2  and  C_3 
REMARK    4  A    between atoms: C_2  and  N_15 
REMARK       I    between atoms: C_3  and  N_18 
REMARK    5  A    between atoms: C_4  and  C_5 
REMARK    6  A    between atoms: C_4  and  C_7 
REMARK    7  A    between atoms: C_4  and  N_18 
REMARK    8  A    between atoms: C_5  and  C_8 
REMARK    9  A    between atoms: C_8  and  Se_9 
ROOT
HETATM    1  C           1     -27.916  -5.863 -18.198  0.00  0.00     0.249 C 
HETATM    2  H           1     -26.461  -7.329 -18.333  0.00  0.00     0.163 HD
HETATM    3  O           1     -28.678  -5.163 -18.823  0.00  0.00    -0.271 OA
HETATM    4  N           1     -27.099  -6.742 -18.856  0.00  0.00    -0.345 N 
ENDROOT
BRANCH   1   5
HETATM    5  C           1     -27.866  -5.768 -16.693  0.00  0.00     0.283 C 
BRANCH   5   6
HETATM    6  C           1     -27.213  -7.022 -16.125  0.00  0.00     0.113 C 
BRANCH   6   7
HETATM    7  S           1     -25.462  -6.691 -15.783  0.00  0.00    -0.180 SA
HETATM    8  H           1     -25.619  -6.448 -14.470  0.00  0.00     0.101 HD
ENDBRANCH   6   7
ENDBRANCH   5   6
BRANCH   5   9
HETATM    9  N           1     -29.260  -5.643 -16.155  0.00  0.00    -0.066 N 
HETATM   10  H           1     -29.351  -6.216 -15.285  0.00  0.00     0.275 HD
HETATM   11  H           1     -29.462  -4.641 -15.935  0.00  0.00     0.275 HD
HETATM   12  H           1     -29.942  -5.986 -16.869  0.00  0.00     0.275 HD
ENDBRANCH   5   9
ENDBRANCH   1   5
BRANCH   4  13
HETATM   13  C           1     -27.147  -6.834 -20.303  0.00  0.00     0.185 C 
BRANCH  13  14
HETATM   14  C           1     -25.749  -6.625 -20.870  0.00  0.00     0.036 C 
BRANCH  14  15
HETATM   15  C           1     -24.717  -7.162 -19.888  0.00  0.00     0.003 C 
BRANCH  15  16
HETATM   16 Se           1     -23.403  -8.235 -20.847  0.00  0.00     0.000 Se
HETATM   17  C           1     -23.959  -7.632 -22.615  0.00  0.00     0.000 C 
ENDBRANCH  15  16
ENDBRANCH  14  15
ENDBRANCH  13  14
BRANCH  13  18
HETATM   18  C           1     -27.654  -8.198 -20.703  0.00  0.00     0.196 C 
HETATM   19  O           1     -27.065  -8.847 -21.594  0.00  0.00    -0.646 OA
HETATM   20  O           1     -28.662  -8.679 -20.144  0.00  0.00    -0.646 OA
ENDBRANCH  13  18
ENDBRANCH   4  13
TORSDOF 9
ENDMDL
MODEL 8
REMARK VINA RESULT:      -4.4     12.514     14.200
REMARK  9 active torsions:
REMARK  status: ('A' for Active; 'I' for Inactive)
REMARK    1  A    between atoms: C_1  and  C_2 
REMARK    2  A    between atoms: C_1  and  S_16 
REMARK    3  A    between atoms: C_2  and  C_3 
REMARK    4  A    between atoms: C_2  and  N_15 
REMARK       I    between atoms: C_3  and  N_18 
REMARK    5  A    between atoms: C_4  and  C_5 
REMARK    6  A    between atoms: C_4  and  C_7 
REMARK    7  A    between atoms: C_4  and  N_18 
REMARK    8  A    between atoms: C_5  and  C_8 
REMARK    9  A    between atoms: C_8  and  Se_9 
ROOT
HETATM    1  C           1     -20.993  -5.263  -6.890  0.00  0.00     0.249 C 
HETATM    2  H           1     -21.501  -7.251  -7.161  0.00  0.00     0.163 HD
HETATM    3  O           1     -20.535  -4.454  -6.117  0.00  0.00    -0.271 OA
HETATM    4  N           1     -21.118  -6.573  -6.513  0.00  0.00    -0.345 N 
ENDROOT
BRANCH   1   5
HETATM    5  C           1     -21.426  -4.829  -8.269  0.00  0.00     0.283 C 
BRANCH   5   6
HETATM    6  C           1     -20.201  -4.445  -9.089  0.00  0.00     0.113 C 
BRANCH   6   7
HETATM    7  S           1     -20.691  -4.159 -10.813  0.00  0.00    -0.180 SA
HETATM    8  H           1     -21.272  -2.966 -10.597  0.00  0.00     0.101 HD
ENDBRANCH   6   7
ENDBRANCH   5   6
BRANCH   5   9
HETATM    9  N           1     -22.341  -3.646  -8.154  0.00  0.00    -0.066 N 
HETATM   10  H           1     -21.774  -2.781  -7.998  0.00  0.00     0.275 HD
HETATM   11  H           1     -22.894  -3.546  -9.036  0.00  0.00     0.275 HD
HETATM   12  H           1     -22.992  -3.785  -7.349  0.00  0.00     0.275 HD
ENDBRANCH   5   9
ENDBRANCH   1   5
BRANCH   4  13
HETATM   13  C           1     -20.702  -6.991  -5.188  0.00  0.00     0.185 C 
BRANCH  13  14
HETATM   14  C           1     -21.890  -6.921  -4.238  0.00  0.00     0.036 C 
BRANCH  14  15
HETATM   15  C           1     -21.441  -6.337  -2.906  0.00  0.00     0.003 C 
BRANCH  15  16
HETATM   16 Se           1     -21.063  -7.786  -1.656  0.00  0.00     0.000 Se
HETATM   17  C           1     -22.525  -7.342  -0.446  0.00  0.00     0.000 C 
ENDBRANCH  15  16
ENDBRANCH  14  15
ENDBRANCH  13  14
BRANCH  13  18
HETATM   18  C           1     -20.187  -8.408  -5.247  0.00  0.00     0.196 C 
HETATM   19  O           1     -19.088  -8.696  -4.726  0.00  0.00    -0.646 OA
HETATM   20  O           1     -20.859  -9.294  -5.817  0.00  0.00    -0.646 OA
ENDBRANCH  13  18
ENDBRANCH   4  13
TORSDOF 9
ENDMDL
MODEL 9
REMARK VINA RESULT:      -4.1     13.424     15.261
REMARK  9 active torsions:
REMARK  status: ('A' for Active; 'I' for Inactive)
REMARK    1  A    between atoms: C_1  and  C_2 
REMARK    2  A    between atoms: C_1  and  S_16 
REMARK    3  A    between atoms: C_2  and  C_3 
REMARK    4  A    between atoms: C_2  and  N_15 
REMARK       I    between atoms: C_3  and  N_18 
REMARK    5  A    between atoms: C_4  and  C_5 
REMARK    6  A    between atoms: C_4  and  C_7 
REMARK    7  A    between atoms: C_4  and  N_18 
REMARK    8  A    between atoms: C_5  and  C_8 
REMARK    9  A    between atoms: C_8  and  Se_9 
ROOT
HETATM    1  C           1     -21.400  -5.860  -5.581  0.00  0.00     0.249 C 
HETATM    2  H           1     -19.815  -6.856  -4.698  0.00  0.00     0.163 HD
HETATM    3  O           1     -22.602  -5.731  -5.601  0.00  0.00    -0.271 OA
HETATM    4  N           1     -20.822  -6.748  -4.715  0.00  0.00    -0.345 N 
ENDROOT
BRANCH   1   5
HETATM    5  C           1     -20.539  -5.042  -6.512  0.00  0.00     0.283 C 
BRANCH   5   6
HETATM    6  C           1     -21.374  -3.929  -7.131  0.00  0.00     0.113 C 
BRANCH   6   7
HETATM    7  S           1     -21.725  -4.329  -8.866  0.00  0.00    -0.180 SA
HETATM    8  H           1     -21.580  -5.659  -8.736  0.00  0.00     0.101 HD
ENDBRANCH   6   7
ENDBRANCH   5   6
BRANCH   5   9
HETATM    9  N           1     -19.999  -5.925  -7.597  0.00  0.00    -0.066 N 
HETATM   10  H           1     -19.416  -6.682  -7.173  0.00  0.00     0.275 HD
HETATM   11  H           1     -20.794  -6.351  -8.127  0.00  0.00     0.275 HD
HETATM   12  H           1     -19.412  -5.357  -8.249  0.00  0.00     0.275 HD
ENDBRANCH   5   9
ENDBRANCH   1   5
BRANCH   4  13
HETATM   13  C           1     -21.650  -7.535  -3.821  0.00  0.00     0.185 C 
BRANCH  13  14
HETATM   14  C           1     -21.103  -8.954  -3.741  0.00  0.00     0.036 C 
BRANCH  14  15
HETATM   15  C           1     -19.752  -9.018  -4.441  0.00  0.00     0.003 C 
BRANCH  15  16
HETATM   16 Se           1     -18.372  -9.494  -3.149  0.00  0.00     0.000 Se
HETATM   17  C           1     -17.038  -9.949  -4.496  0.00  0.00     0.000 C 
ENDBRANCH  15  16
ENDBRANCH  14  15
ENDBRANCH  13  14
BRANCH  13  18
HETATM   18  C           1     -21.635  -6.912  -2.446  0.00  0.00     0.196 C 
HETATM   19  O           1     -22.315  -5.888  -2.217  0.00  0.00    -0.646 OA
HETATM   20  O           1     -20.945  -7.419  -1.537  0.00  0.00    -0.646 OA
ENDBRANCH  13  18
ENDBRANCH   4  13
TORSDOF 9
ENDMDL
