MODEL 1
REMARK VINA RESULT:      -5.9      0.000      0.000
REMARK  8 active torsions:
REMARK  status: ('A' for Active; 'I' for Inactive)
REMARK    1  A    between atoms: C_2  and  C_4 
REMARK    2  A    between atoms: C_4  and  C_5 
REMARK    3  A    between atoms: C_5  and  C_14 
REMARK    4  A    between atoms: C_5  and  N_11 
REMARK    5  A    between atoms: N_8  and  C_20 
REMARK    6  A    between atoms: S_9  and  C_16 
REMARK       I    between atoms: N_11  and  C_19 
REMARK    7  A    between atoms: C_16  and  C_20 
REMARK    8  A    between atoms: C_19  and  C_20 
ROOT
HETATM    1  O           1     -26.225  -6.027 -17.604  0.00  0.00    -0.271 OA
HETATM    2  H           1     -27.773  -7.244 -20.046  0.00  0.00     0.163 HD
HETATM    3  N           1     -27.641  -6.830 -19.132  0.00  0.00    -0.345 N 
HETATM    4  C           1     -26.381  -6.521 -18.696  0.00  0.00     0.249 C 
ENDROOT
BRANCH   3   5
HETATM    5  C           1     -28.788  -6.566 -18.284  0.00  0.00     0.185 C 
BRANCH   5   6
HETATM    6  C           1     -29.337  -5.179 -18.591  0.00  0.00     0.040 C 
BRANCH   6   7
HETATM    7  C           1     -29.638  -4.453 -17.287  0.00  0.00    -0.020 C 
HETATM    8  C           1     -28.587  -3.377 -17.050  0.00  0.00     0.009 C 
HETATM    9  C           1     -31.015  -3.807 -17.373  0.00  0.00     0.009 C 
ENDBRANCH   6   7
ENDBRANCH   5   6
BRANCH   5  10
HETATM   10  C           1     -29.856  -7.600 -18.548  0.00  0.00     0.196 C 
HETATM   11  O           1     -30.989  -7.472 -18.035  0.00  0.00    -0.646 OA
HETATM   12  O           1     -29.607  -8.583 -19.279  0.00  0.00    -0.646 OA
ENDBRANCH   5  10
ENDBRANCH   3   5
BRANCH   4  13
HETATM   13  C           1     -25.189  -6.795 -19.578  0.00  0.00     0.283 C 
BRANCH  13  14
HETATM   14  N           1     -24.162  -7.568 -18.803  0.00  0.00    -0.066 N 
HETATM   15  H           1     -23.876  -8.412 -19.349  0.00  0.00     0.275 HD
HETATM   16  H           1     -23.327  -6.964 -18.633  0.00  0.00     0.275 HD
HETATM   17  H           1     -24.570  -7.867 -17.888  0.00  0.00     0.275 HD
ENDBRANCH  13  14
BRANCH  13  18
HETATM   18  C           1     -25.628  -7.608 -20.788  0.00  0.00     0.113 C 
BRANCH  18  19
HETATM   19  S           1     -24.185  -7.986 -21.821  0.00  0.00    -0.180 SA
HETATM   20  H           1     -23.536  -6.832 -21.584  0.00  0.00     0.101 HD
ENDBRANCH  18  19
ENDBRANCH  13  18
ENDBRANCH   4  13
TORSDOF 8
ENDMDL
MODEL 2
REMARK VINA RESULT:      -5.8      2.231      2.964
REMARK  8 active torsions:
REMARK  status: ('A' for Active; 'I' for Inactive)
REMARK    1  A    between atoms: C_2  and  C_4 
REMARK    2  A    between atoms: C_4  and  C_5 
REMARK    3  A    between atoms: C_5  and  C_14 
REMARK    4  A    between atoms: C_5  and  N_11 
REMARK    5  A    between atoms: N_8  and  C_20 
REMARK    6  A    between atoms: S_9  and  C_16 
REMARK       I    between atoms: N_11  and  C_19 
REMARK    7  A    between atoms: C_16  and  C_20 
REMARK    8  A    between atoms: C_19  and  C_20 
ROOT
HETATM    1  O           1     -24.363  -6.454 -18.554  0.00  0.00    -0.271 OA
HETATM    2  H           1     -27.448  -7.027 -18.548  0.00  0.00     0.163 HD
HETATM    3  N           1     -26.558  -6.684 -18.210  0.00  0.00    -0.345 N 
HETATM    4  C           1     -25.426  -6.863 -18.959  0.00  0.00     0.249 C 
ENDROOT
BRANCH   3   5
HETATM    5  C           1     -26.482  -6.004 -16.931  0.00  0.00     0.185 C 
BRANCH   5   6
HETATM    6  C           1     -27.781  -5.250 -16.680  0.00  0.00     0.040 C 
BRANCH   6   7
HETATM    7  C           1     -28.816  -5.663 -17.718  0.00  0.00    -0.020 C 
HETATM    8  C           1     -29.952  -6.410 -17.032  0.00  0.00     0.009 C 
HETATM    9  C           1     -29.368  -4.420 -18.405  0.00  0.00     0.009 C 
ENDBRANCH   6   7
ENDBRANCH   5   6
BRANCH   5  10
HETATM   10  C           1     -26.267  -7.018 -15.835  0.00  0.00     0.196 C 
HETATM   11  O           1     -27.251  -7.546 -15.271  0.00  0.00    -0.646 OA
HETATM   12  O           1     -25.107  -7.331 -15.491  0.00  0.00    -0.646 OA
ENDBRANCH   5  10
ENDBRANCH   3   5
BRANCH   4  13
HETATM   13  C           1     -25.505  -7.570 -20.289  0.00  0.00     0.283 C 
BRANCH  13  14
HETATM   14  N           1     -26.942  -7.831 -20.631  0.00  0.00    -0.066 N 
HETATM   15  H           1     -27.014  -8.139 -21.628  0.00  0.00     0.275 HD
HETATM   16  H           1     -27.318  -8.581 -20.008  0.00  0.00     0.275 HD
HETATM   17  H           1     -27.496  -6.955 -20.496  0.00  0.00     0.275 HD
ENDBRANCH  13  14
BRANCH  13  18
HETATM   18  C           1     -24.878  -6.697 -21.367  0.00  0.00     0.113 C 
BRANCH  18  19
HETATM   19  S           1     -23.902  -7.732 -22.493  0.00  0.00    -0.180 SA
HETATM   20  H           1     -23.697  -6.778 -23.419  0.00  0.00     0.101 HD
ENDBRANCH  18  19
ENDBRANCH  13  18
ENDBRANCH   4  13
TORSDOF 8
ENDMDL
MODEL 3
REMARK VINA RESULT:      -5.7     10.910     12.151
REMARK  8 active torsions:
REMARK  status: ('A' for Active; 'I' for Inactive)
REMARK    1  A    between atoms: C_2  and  C_4 
REMARK    2  A    between atoms: C_4  and  C_5 
REMARK    3  A    between atoms: C_5  and  C_14 
REMARK    4  A    between atoms: C_5  and  N_11 
REMARK    5  A    between atoms: N_8  and  C_20 
REMARK    6  A    between atoms: S_9  and  C_16 
REMARK       I    between atoms: N_11  and  C_19 
REMARK    7  A    between atoms: C_16  and  C_20 
REMARK    8  A    between atoms: C_19  and  C_20 
ROOT
HETATM    1  O           1     -21.443  -3.314  -7.787  0.00  0.00    -0.271 OA
HETATM    2  H           1     -23.780  -5.283  -8.497  0.00  0.00     0.163 HD
HETATM    3  N           1     -23.123  -4.524  -8.624  0.00  0.00    -0.345 N 
HETATM    4  C           1     -22.227  -4.221  -7.634  0.00  0.00     0.249 C 
ENDROOT
BRANCH   3   5
HETATM    5  C           1     -23.132  -3.756  -9.855  0.00  0.00     0.185 C 
BRANCH   5   6
HETATM    6  C           1     -22.649  -4.633 -11.002  0.00  0.00     0.040 C 
BRANCH   6   7
HETATM    7  C           1     -21.295  -4.134 -11.487  0.00  0.00    -0.020 C 
HETATM    8  C           1     -21.230  -2.619 -11.342  0.00  0.00     0.009 C 
HETATM    9  C           1     -20.191  -4.772 -10.653  0.00  0.00     0.009 C 
ENDBRANCH   6   7
ENDBRANCH   5   6
BRANCH   5  10
HETATM   10  C           1     -24.536  -3.280 -10.139  0.00  0.00     0.196 C 
HETATM   11  O           1     -25.037  -3.454 -11.271  0.00  0.00    -0.646 OA
HETATM   12  O           1     -25.197  -2.714  -9.243  0.00  0.00    -0.646 OA
ENDBRANCH   5  10
ENDBRANCH   3   5
BRANCH   4  13
HETATM   13  C           1     -22.217  -5.020  -6.355  0.00  0.00     0.283 C 
BRANCH  13  14
HETATM   14  N           1     -23.620  -5.425  -6.009  0.00  0.00    -0.066 N 
HETATM   15  H           1     -24.252  -5.221  -6.817  0.00  0.00     0.275 HD
HETATM   16  H           1     -23.645  -6.447  -5.797  0.00  0.00     0.275 HD
HETATM   17  H           1     -23.941  -4.886  -5.172  0.00  0.00     0.275 HD
ENDBRANCH  13  14
BRANCH  13  18
HETATM   18  C           1     -21.361  -6.266  -6.539  0.00  0.00     0.113 C 
BRANCH  18  19
HETATM   19  S           1     -21.345  -7.224  -4.999  0.00  0.00    -0.180 SA
HETATM   20  H           1     -20.623  -8.252  -5.479  0.00  0.00     0.101 HD
ENDBRANCH  18  19
ENDBRANCH  13  18
ENDBRANCH   4  13
TORSDOF 8
ENDMDL
MODEL 4
REMARK VINA RESULT:      -5.3      1.628      2.190
REMARK  8 active torsions:
REMARK  status: ('A' for Active; 'I' for Inactive)
REMARK    1  A    between atoms: C_2  and  C_4 
REMARK    2  A    between atoms: C_4  and  C_5 
REMARK    3  A    between atoms: C_5  and  C_14 
REMARK    4  A    between atoms: C_5  and  N_11 
REMARK    5  A    between atoms: N_8  and  C_20 
REMARK    6  A    between atoms: S_9  and  C_16 
REMARK       I    between atoms: N_11  and  C_19 
REMARK    7  A    between atoms: C_16  and  C_20 
REMARK    8  A    between atoms: C_19  and  C_20 
ROOT
HETATM    1  O           1     -26.710  -7.317 -15.356  0.00  0.00    -0.271 OA
HETATM    2  H           1     -27.712  -6.178 -18.102  0.00  0.00     0.163 HD
HETATM    3  N           1     -27.774  -6.548 -17.163  0.00  0.00    -0.345 N 
HETATM    4  C           1     -26.635  -6.876 -16.479  0.00  0.00     0.249 C 
ENDROOT
BRANCH   3   5
HETATM    5  C           1     -29.072  -6.731 -16.540  0.00  0.00     0.185 C 
BRANCH   5   6
HETATM    6  C           1     -29.642  -5.374 -16.148  0.00  0.00     0.040 C 
BRANCH   6   7
HETATM    7  C           1     -29.458  -4.394 -17.299  0.00  0.00    -0.020 C 
HETATM    8  C           1     -30.788  -3.717 -17.605  0.00  0.00     0.009 C 
HETATM    9  C           1     -28.430  -3.340 -16.909  0.00  0.00     0.009 C 
ENDBRANCH   6   7
ENDBRANCH   5   6
BRANCH   5  10
HETATM   10  C           1     -30.005  -7.406 -17.515  0.00  0.00     0.196 C 
HETATM   11  O           1     -29.546  -8.171 -18.392  0.00  0.00    -0.646 OA
HETATM   12  O           1     -31.236  -7.203 -17.446  0.00  0.00    -0.646 OA
ENDBRANCH   5  10
ENDBRANCH   3   5
BRANCH   4  13
HETATM   13  C           1     -25.286  -6.686 -17.125  0.00  0.00     0.283 C 
BRANCH  13  14
HETATM   14  N           1     -24.359  -7.778 -16.678  0.00  0.00    -0.066 N 
HETATM   15  H           1     -24.870  -8.691 -16.679  0.00  0.00     0.275 HD
HETATM   16  H           1     -23.546  -7.834 -17.332  0.00  0.00     0.275 HD
HETATM   17  H           1     -24.019  -7.571 -15.713  0.00  0.00     0.275 HD
ENDBRANCH  13  14
BRANCH  13  18
HETATM   18  C           1     -25.436  -6.737 -18.640  0.00  0.00     0.113 C 
BRANCH  18  19
HETATM   19  S           1     -23.897  -7.347 -19.382  0.00  0.00    -0.180 SA
HETATM   20  H           1     -23.083  -6.886 -18.416  0.00  0.00     0.101 HD
ENDBRANCH  18  19
ENDBRANCH  13  18
ENDBRANCH   4  13
TORSDOF 8
ENDMDL
MODEL 5
REMARK VINA RESULT:      -5.0     12.472     13.730
REMARK  8 active torsions:
REMARK  status: ('A' for Active; 'I' for Inactive)
REMARK    1  A    between atoms: C_2  and  C_4 
REMARK    2  A    between atoms: C_4  and  C_5 
REMARK    3  A    between atoms: C_5  and  C_14 
REMARK    4  A    between atoms: C_5  and  N_11 
REMARK    5  A    between atoms: N_8  and  C_20 
REMARK    6  A    between atoms: S_9  and  C_16 
REMARK       I    between atoms: N_11  and  C_19 
REMARK    7  A    between atoms: C_16  and  C_20 
REMARK    8  A    between atoms: C_19  and  C_20 
ROOT
HETATM    1  O           1     -21.108  -7.036  -6.970  0.00  0.00    -0.271 OA
HETATM    2  H           1     -21.734  -4.015  -6.400  0.00  0.00     0.163 HD
HETATM    3  N           1     -21.565  -4.850  -6.946  0.00  0.00    -0.345 N 
HETATM    4  C           1     -21.310  -6.039  -6.318  0.00  0.00     0.249 C 
ENDROOT
BRANCH   3   5
HETATM    5  C           1     -21.593  -4.787  -8.395  0.00  0.00     0.185 C 
BRANCH   5   6
HETATM    6  C           1     -22.555  -3.692  -8.836  0.00  0.00     0.040 C 
BRANCH   6   7
HETATM    7  C           1     -23.772  -4.323  -9.499  0.00  0.00    -0.020 C 
HETATM    8  C           1     -24.869  -3.276  -9.646  0.00  0.00     0.009 C 
HETATM    9  C           1     -23.384  -4.849 -10.874  0.00  0.00     0.009 C 
ENDBRANCH   6   7
ENDBRANCH   5   6
BRANCH   5  10
HETATM   10  C           1     -20.208  -4.478  -8.911  0.00  0.00     0.196 C 
HETATM   11  O           1     -19.903  -4.763 -10.089  0.00  0.00    -0.646 OA
HETATM   12  O           1     -19.368  -3.938  -8.160  0.00  0.00    -0.646 OA
ENDBRANCH   5  10
ENDBRANCH   3   5
BRANCH   4  13
HETATM   13  C           1     -21.281  -6.105  -4.811  0.00  0.00     0.283 C 
BRANCH  13  14
HETATM   14  N           1     -22.685  -6.161  -4.287  0.00  0.00    -0.066 N 
HETATM   15  H           1     -22.753  -5.596  -3.410  0.00  0.00     0.275 HD
HETATM   16  H           1     -23.340  -5.772  -5.002  0.00  0.00     0.275 HD
HETATM   17  H           1     -22.941  -7.153  -4.082  0.00  0.00     0.275 HD
ENDBRANCH  13  14
BRANCH  13  18
HETATM   18  C           1     -20.526  -7.353  -4.371  0.00  0.00     0.113 C 
BRANCH  18  19
HETATM   19  S           1     -21.103  -7.863  -2.729  0.00  0.00    -0.180 SA
HETATM   20  H           1     -21.044  -9.186  -2.963  0.00  0.00     0.101 HD
ENDBRANCH  18  19
ENDBRANCH  13  18
ENDBRANCH   4  13
TORSDOF 8
ENDMDL
MODEL 6
REMARK VINA RESULT:      -5.0     14.324     15.368
REMARK  8 active torsions:
REMARK  status: ('A' for Active; 'I' for Inactive)
REMARK    1  A    between atoms: C_2  and  C_4 
REMARK    2  A    between atoms: C_4  and  C_5 
REMARK    3  A    between atoms: C_5  and  C_14 
REMARK    4  A    between atoms: C_5  and  N_11 
REMARK    5  A    between atoms: N_8  and  C_20 
REMARK    6  A    between atoms: S_9  and  C_16 
REMARK       I    between atoms: N_11  and  C_19 
REMARK    7  A    between atoms: C_16  and  C_20 
REMARK    8  A    between atoms: C_19  and  C_20 
ROOT
HETATM    1  O           1     -20.304  -4.814  -5.753  0.00  0.00    -0.271 OA
HETATM    2  H           1     -21.432  -7.512  -6.890  0.00  0.00     0.163 HD
HETATM    3  N           1     -20.976  -6.888  -6.237  0.00  0.00    -0.345 N 
HETATM    4  C           1     -20.849  -5.558  -6.534  0.00  0.00     0.249 C 
ENDROOT
BRANCH   3   5
HETATM    5  C           1     -20.455  -7.405  -4.986  0.00  0.00     0.185 C 
BRANCH   5   6
HETATM    6  C           1     -21.575  -7.464  -3.956  0.00  0.00     0.040 C 
BRANCH   6   7
HETATM    7  C           1     -21.090  -6.867  -2.642  0.00  0.00    -0.020 C 
HETATM    8  C           1     -22.265  -6.231  -1.910  0.00  0.00     0.009 C 
HETATM    9  C           1     -20.488  -7.967  -1.777  0.00  0.00     0.009 C 
ENDBRANCH   6   7
ENDBRANCH   5   6
BRANCH   5  10
HETATM   10  C           1     -19.899  -8.790  -5.207  0.00  0.00     0.196 C 
HETATM   11  O           1     -20.622  -9.681  -5.705  0.00  0.00    -0.646 OA
HETATM   12  O           1     -18.717  -9.047  -4.893  0.00  0.00    -0.646 OA
ENDBRANCH   5  10
ENDBRANCH   3   5
BRANCH   4  13
HETATM   13  C           1     -21.391  -5.021  -7.835  0.00  0.00     0.283 C 
BRANCH  13  14
HETATM   14  N           1     -22.179  -3.771  -7.571  0.00  0.00    -0.066 N 
HETATM   15  H           1     -21.874  -3.020  -8.232  0.00  0.00     0.275 HD
HETATM   16  H           1     -23.195  -3.965  -7.709  0.00  0.00     0.275 HD
HETATM   17  H           1     -22.012  -3.458  -6.588  0.00  0.00     0.275 HD
ENDBRANCH  13  14
BRANCH  13  18
HETATM   18  C           1     -20.235  -4.702  -8.775  0.00  0.00     0.113 C 
BRANCH  18  19
HETATM   19  S           1     -20.889  -4.164 -10.379  0.00  0.00    -0.180 SA
HETATM   20  H           1     -19.868  -4.641 -11.114  0.00  0.00     0.101 HD
ENDBRANCH  18  19
ENDBRANCH  13  18
ENDBRANCH   4  13
TORSDOF 8
ENDMDL
MODEL 7
REMARK VINA RESULT:      -4.7      3.219      5.753
REMARK  8 active torsions:
REMARK  status: ('A' for Active; 'I' for Inactive)
REMARK    1  A    between atoms: C_2  and  C_4 
REMARK    2  A    between atoms: C_4  and  C_5 
REMARK    3  A    between atoms: C_5  and  C_14 
REMARK    4  A    between atoms: C_5  and  N_11 
REMARK    5  A    between atoms: N_8  and  C_20 
REMARK    6  A    between atoms: S_9  and  C_16 
REMARK       I    between atoms: N_11  and  C_19 
REMARK    7  A    between atoms: C_16  and  C_20 
REMARK    8  A    between atoms: C_19  and  C_20 
ROOT
HETATM    1  O           1     -28.361  -7.031 -16.698  0.00  0.00    -0.271 OA
HETATM    2  H           1     -26.559  -4.833 -18.026  0.00  0.00     0.163 HD
HETATM    3  N           1     -26.812  -5.742 -17.659  0.00  0.00    -0.345 N 
HETATM    4  C           1     -28.060  -5.946 -17.137  0.00  0.00     0.249 C 
ENDROOT
BRANCH   3   5
HETATM    5  C           1     -25.849  -6.827 -17.685  0.00  0.00     0.185 C 
BRANCH   5   6
HETATM    6  C           1     -24.835  -6.579 -18.794  0.00  0.00     0.040 C 
BRANCH   6   7
HETATM    7  C           1     -25.358  -7.161 -20.100  0.00  0.00    -0.020 C 
HETATM    8  C           1     -25.709  -6.029 -21.056  0.00  0.00     0.009 C 
HETATM    9  C           1     -24.284  -8.042 -20.728  0.00  0.00     0.009 C 
ENDBRANCH   6   7
ENDBRANCH   5   6
BRANCH   5  10
HETATM   10  C           1     -25.137  -6.899 -16.357  0.00  0.00     0.196 C 
HETATM   11  O           1     -25.015  -5.869 -15.657  0.00  0.00    -0.646 OA
HETATM   12  O           1     -24.670  -7.986 -15.955  0.00  0.00    -0.646 OA
ENDBRANCH   5  10
ENDBRANCH   3   5
BRANCH   4  13
HETATM   13  C           1     -29.060  -4.818 -17.110  0.00  0.00     0.283 C 
BRANCH  13  14
HETATM   14  N           1     -29.383  -4.402 -18.515  0.00  0.00    -0.066 N 
HETATM   15  H           1     -29.040  -5.131 -19.182  0.00  0.00     0.275 HD
HETATM   16  H           1     -30.417  -4.296 -18.618  0.00  0.00     0.275 HD
HETATM   17  H           1     -28.915  -3.492 -18.724  0.00  0.00     0.275 HD
ENDBRANCH  13  14
BRANCH  13  18
HETATM   18  C           1     -30.333  -5.283 -16.414  0.00  0.00     0.113 C 
BRANCH  18  19
HETATM   19  S           1     -31.747  -4.335 -17.040  0.00  0.00    -0.180 SA
HETATM   20  H           1     -31.143  -3.904 -18.162  0.00  0.00     0.101 HD
ENDBRANCH  18  19
ENDBRANCH  13  18
ENDBRANCH   4  13
TORSDOF 8
ENDMDL
MODEL 8
REMARK VINA RESULT:      -4.7     14.273     15.266
REMARK  8 active torsions:
REMARK  status: ('A' for Active; 'I' for Inactive)
REMARK    1  A    between atoms: C_2  and  C_4 
REMARK    2  A    between atoms: C_4  and  C_5 
REMARK    3  A    between atoms: C_5  and  C_14 
REMARK    4  A    between atoms: C_5  and  N_11 
REMARK    5  A    between atoms: N_8  and  C_20 
REMARK    6  A    between atoms: S_9  and  C_16 
REMARK       I    between atoms: N_11  and  C_19 
REMARK    7  A    between atoms: C_16  and  C_20 
REMARK    8  A    between atoms: C_19  and  C_20 
ROOT
HETATM    1  O           1     -19.388  -8.621  -4.126  0.00  0.00    -0.271 OA
HETATM    2  H           1     -21.480  -8.541  -6.463  0.00  0.00     0.163 HD
HETATM    3  N           1     -20.865  -8.183  -5.743  0.00  0.00    -0.345 N 
HETATM    4  C           1     -20.122  -9.048  -4.986  0.00  0.00     0.249 C 
ENDROOT
BRANCH   3   5
HETATM    5  C           1     -20.773  -6.754  -5.513  0.00  0.00     0.185 C 
BRANCH   5   6
HETATM    6  C           1     -20.841  -6.020  -6.846  0.00  0.00     0.040 C 
BRANCH   6   7
HETATM    7  C           1     -20.300  -4.607  -6.676  0.00  0.00    -0.020 C 
HETATM    8  C           1     -19.004  -4.463  -7.463  0.00  0.00     0.009 C 
HETATM    9  C           1     -21.324  -3.606  -7.195  0.00  0.00     0.009 C 
ENDBRANCH   6   7
ENDBRANCH   5   6
BRANCH   5  10
HETATM   10  C           1     -21.919  -6.312  -4.635  0.00  0.00     0.196 C 
HETATM   11  O           1     -21.712  -6.026  -3.435  0.00  0.00    -0.646 OA
HETATM   12  O           1     -23.073  -6.232  -5.107  0.00  0.00    -0.646 OA
ENDBRANCH   5  10
ENDBRANCH   3   5
BRANCH   4  13
HETATM   13  C           1     -20.218 -10.534  -5.226  0.00  0.00     0.283 C 
BRANCH  13  14
HETATM   14  N           1     -21.174 -10.798  -6.352  0.00  0.00    -0.066 N 
HETATM   15  H           1     -21.738 -11.652  -6.138  0.00  0.00     0.275 HD
HETATM   16  H           1     -21.812  -9.979  -6.466  0.00  0.00     0.275 HD
HETATM   17  H           1     -20.637 -10.949  -7.235  0.00  0.00     0.275 HD
ENDBRANCH  13  14
BRANCH  13  18
HETATM   18  C           1     -18.843 -11.080  -5.590  0.00  0.00     0.113 C 
BRANCH  18  19
HETATM   19  S           1     -18.982 -12.149  -7.049  0.00  0.00    -0.180 SA
HETATM   20  H           1     -19.965 -12.927  -6.561  0.00  0.00     0.101 HD
ENDBRANCH  18  19
ENDBRANCH  13  18
ENDBRANCH   4  13
TORSDOF 8
ENDMDL
MODEL 9
REMARK VINA RESULT:      -4.6     16.978     17.877
REMARK  8 active torsions:
REMARK  status: ('A' for Active; 'I' for Inactive)
REMARK    1  A    between atoms: C_2  and  C_4 
REMARK    2  A    between atoms: C_4  and  C_5 
REMARK    3  A    between atoms: C_5  and  C_14 
REMARK    4  A    between atoms: C_5  and  N_11 
REMARK    5  A    between atoms: N_8  and  C_20 
REMARK    6  A    between atoms: S_9  and  C_16 
REMARK       I    between atoms: N_11  and  C_19 
REMARK    7  A    between atoms: C_16  and  C_20 
REMARK    8  A    between atoms: C_19  and  C_20 
ROOT
HETATM    1  O           1     -21.155  -9.974  -4.307  0.00  0.00    -0.271 OA
HETATM    2  H           1     -19.247  -7.936  -2.875  0.00  0.00     0.163 HD
HETATM    3  N           1     -20.115  -8.395  -3.118  0.00  0.00    -0.345 N 
HETATM    4  C           1     -20.117  -9.427  -4.017  0.00  0.00     0.249 C 
ENDROOT
BRANCH   3   5
HETATM    5  C           1     -21.359  -7.957  -2.513  0.00  0.00     0.185 C 
BRANCH   5   6
HETATM    6  C           1     -21.230  -8.007  -0.996  0.00  0.00     0.040 C 
BRANCH   6   7
HETATM    7  C           1     -22.327  -8.893  -0.422  0.00  0.00    -0.020 C 
HETATM    8  C           1     -21.697 -10.086   0.286  0.00  0.00     0.009 C 
HETATM    9  C           1     -23.157  -8.092   0.573  0.00  0.00     0.009 C 
ENDBRANCH   6   7
ENDBRANCH   5   6
BRANCH   5  10
HETATM   10  C           1     -21.659  -6.544  -2.947  0.00  0.00     0.196 C 
HETATM   11  O           1     -21.168  -6.099  -4.008  0.00  0.00    -0.646 OA
HETATM   12  O           1     -22.398  -5.818  -2.248  0.00  0.00    -0.646 OA
ENDBRANCH   5  10
ENDBRANCH   3   5
BRANCH   4  13
HETATM   13  C           1     -18.824  -9.881  -4.646  0.00  0.00     0.283 C 
BRANCH  13  14
HETATM   14  N           1     -18.642  -9.193  -5.967  0.00  0.00    -0.066 N 
HETATM   15  H           1     -18.299  -8.218  -5.808  0.00  0.00     0.275 HD
HETATM   16  H           1     -17.945  -9.718  -6.540  0.00  0.00     0.275 HD
HETATM   17  H           1     -19.557  -9.162  -6.471  0.00  0.00     0.275 HD
ENDBRANCH  13  14
BRANCH  13  18
HETATM   18  C           1     -17.661  -9.531  -3.728  0.00  0.00     0.113 C 
BRANCH  18  19
HETATM   19  S           1     -16.102 -10.042  -4.502  0.00  0.00    -0.180 SA
HETATM   20  H           1     -15.361  -9.037  -4.003  0.00  0.00     0.101 HD
ENDBRANCH  18  19
ENDBRANCH  13  18
ENDBRANCH   4  13
TORSDOF 8
ENDMDL
