MODEL 1
REMARK VINA RESULT:      -5.9      0.000      0.000
REMARK  10 active torsions:
REMARK  status: ('A' for Active; 'I' for Inactive)
REMARK    1  A    between atoms: Se_1  and  C_2 
REMARK    2  A    between atoms: C_2  and  C_3 
REMARK    3  A    between atoms: C_3  and  C_4 
REMARK    4  A    between atoms: C_3  and  N_7 
REMARK       I    between atoms: N_7  and  C_8 
REMARK    5  A    between atoms: C_8  and  C_9 
REMARK    6  A    between atoms: C_9  and  C_10 
REMARK    7  A    between atoms: C_9  and  N_16 
REMARK    8  A    between atoms: C_10  and  O_11 
REMARK    9  A    between atoms: O_11  and  P_12 
REMARK   10  A    between atoms: P_12  and  O_13 
ROOT
HETATM    1  C           1     -33.878  -4.167 -16.180  0.00  0.00     0.298 C 
ENDROOT
BRANCH   1   2
HETATM    2  C           1     -32.524  -4.377 -16.810  0.00  0.00     0.251 C 
HETATM    3  N           1     -31.916  -5.602 -16.737  0.00  0.00    -0.345 N 
HETATM    4  H           1     -32.377  -6.366 -16.258  0.00  0.00     0.163 HD
HETATM    5  O           1     -31.974  -3.465 -17.380  0.00  0.00    -0.271 OA
BRANCH   3   6
HETATM    6  C           1     -30.615  -5.805 -17.342  0.00  0.00     0.185 C 
BRANCH   6   7
HETATM    7  C           1     -29.527  -5.518 -16.315  0.00  0.00     0.039 C 
BRANCH   7   8
HETATM    8 Se           1     -28.393  -4.069 -16.957  0.00  0.00     0.000 Se
HETATM    9  H           1     -29.517  -3.174 -17.274  0.00  0.00     0.000 HD
ENDBRANCH   7   8
ENDBRANCH   6   7
BRANCH   6  10
HETATM   10  C           1     -30.498  -7.233 -17.815  0.00  0.00     0.196 C 
HETATM   11  O           1     -31.200  -7.636 -18.767  0.00  0.00    -0.646 OA
HETATM   12  O           1     -29.699  -8.013 -17.254  0.00  0.00    -0.646 OA
ENDBRANCH   6  10
ENDBRANCH   3   6
ENDBRANCH   1   2
BRANCH   1  13
HETATM   13  C           1     -34.430  -2.811 -16.600  0.00  0.00     0.224 C 
BRANCH  13  14
HETATM   14  O           1     -35.115  -2.231 -15.523  0.00  0.00    -0.287 OA
BRANCH  14  15
HETATM   15  P           1     -35.804  -0.798 -15.811  0.00  0.00     0.406 P 
HETATM   16  O           1     -36.996  -0.642 -14.948  0.00  0.00    -0.624 OA
HETATM   17  O           1     -34.836   0.282 -15.519  0.00  0.00    -0.624 OA
BRANCH  15  18
HETATM   18  O           1     -36.249  -0.717 -17.361  0.00  0.00    -0.300 OA
HETATM   19  H           1     -37.104  -1.112 -17.391  0.00  0.00     0.223 HD
ENDBRANCH  15  18
ENDBRANCH  14  15
ENDBRANCH  13  14
ENDBRANCH   1  13
BRANCH   1  20
HETATM   20  N           1     -33.746  -4.211 -14.686  0.00  0.00    -0.064 N 
HETATM   21  H           1     -34.375  -3.495 -14.259  0.00  0.00     0.275 HD
HETATM   22  H           1     -34.014  -5.160 -14.341  0.00  0.00     0.275 HD
HETATM   23  H           1     -32.757  -4.009 -14.418  0.00  0.00     0.275 HD
ENDBRANCH   1  20
TORSDOF 10
ENDMDL
MODEL 2
REMARK VINA RESULT:      -5.8      6.032      9.193
REMARK  10 active torsions:
REMARK  status: ('A' for Active; 'I' for Inactive)
REMARK    1  A    between atoms: Se_1  and  C_2 
REMARK    2  A    between atoms: C_2  and  C_3 
REMARK    3  A    between atoms: C_3  and  C_4 
REMARK    4  A    between atoms: C_3  and  N_7 
REMARK       I    between atoms: N_7  and  C_8 
REMARK    5  A    between atoms: C_8  and  C_9 
REMARK    6  A    between atoms: C_9  and  C_10 
REMARK    7  A    between atoms: C_9  and  N_16 
REMARK    8  A    between atoms: C_10  and  O_11 
REMARK    9  A    between atoms: O_11  and  P_12 
REMARK   10  A    between atoms: P_12  and  O_13 
ROOT
HETATM    1  C           1     -24.981  -6.742 -17.193  0.00  0.00     0.298 C 
ENDROOT
BRANCH   1   2
HETATM    2  C           1     -26.271  -6.920 -16.431  0.00  0.00     0.251 C 
HETATM    3  N           1     -27.464  -6.593 -17.019  0.00  0.00    -0.345 N 
HETATM    4  H           1     -27.479  -6.232 -17.965  0.00  0.00     0.163 HD
HETATM    5  O           1     -26.252  -7.349 -15.303  0.00  0.00    -0.271 OA
BRANCH   3   6
HETATM    6  C           1     -28.704  -6.764 -16.288  0.00  0.00     0.185 C 
BRANCH   6   7
HETATM    7  C           1     -29.153  -5.419 -15.731  0.00  0.00     0.039 C 
BRANCH   7   8
HETATM    8 Se           1     -28.604  -3.997 -16.945  0.00  0.00     0.000 Se
HETATM    9  H           1     -29.065  -4.694 -18.156  0.00  0.00     0.000 HD
ENDBRANCH   7   8
ENDBRANCH   6   7
BRANCH   6  10
HETATM   10  C           1     -29.763  -7.305 -17.216  0.00  0.00     0.196 C 
HETATM   11  O           1     -29.507  -8.278 -17.957  0.00  0.00    -0.646 OA
HETATM   12  O           1     -30.897  -6.780 -17.244  0.00  0.00    -0.646 OA
ENDBRANCH   6  10
ENDBRANCH   3   6
ENDBRANCH   1   2
BRANCH   1  13
HETATM   13  C           1     -25.276  -6.682 -18.686  0.00  0.00     0.224 C 
BRANCH  13  14
HETATM   14  O           1     -24.402  -7.539 -19.370  0.00  0.00    -0.287 OA
BRANCH  14  15
HETATM   15  P           1     -24.661  -7.694 -20.957  0.00  0.00     0.406 P 
HETATM   16  O           1     -24.913  -6.361 -21.549  0.00  0.00    -0.624 OA
HETATM   17  O           1     -23.470  -8.301 -21.593  0.00  0.00    -0.624 OA
BRANCH  15  18
HETATM   18  O           1     -25.944  -8.643 -21.203  0.00  0.00    -0.300 OA
HETATM   19  H           1     -25.719  -9.466 -20.803  0.00  0.00     0.223 HD
ENDBRANCH  15  18
ENDBRANCH  14  15
ENDBRANCH  13  14
ENDBRANCH   1  13
BRANCH   1  20
HETATM   20  N           1     -24.070  -7.900 -16.910  0.00  0.00    -0.064 N 
HETATM   21  H           1     -24.349  -8.716 -17.500  0.00  0.00     0.275 HD
HETATM   22  H           1     -23.085  -7.631 -17.133  0.00  0.00     0.275 HD
HETATM   23  H           1     -24.141  -8.161 -15.901  0.00  0.00     0.275 HD
ENDBRANCH   1  20
TORSDOF 10
ENDMDL
MODEL 3
REMARK VINA RESULT:      -5.8      5.182      6.172
REMARK  10 active torsions:
REMARK  status: ('A' for Active; 'I' for Inactive)
REMARK    1  A    between atoms: Se_1  and  C_2 
REMARK    2  A    between atoms: C_2  and  C_3 
REMARK    3  A    between atoms: C_3  and  C_4 
REMARK    4  A    between atoms: C_3  and  N_7 
REMARK       I    between atoms: N_7  and  C_8 
REMARK    5  A    between atoms: C_8  and  C_9 
REMARK    6  A    between atoms: C_9  and  C_10 
REMARK    7  A    between atoms: C_9  and  N_16 
REMARK    8  A    between atoms: C_10  and  O_11 
REMARK    9  A    between atoms: O_11  and  P_12 
REMARK   10  A    between atoms: P_12  and  O_13 
ROOT
HETATM    1  C           1     -36.354  -1.219 -10.617  0.00  0.00     0.298 C 
ENDROOT
BRANCH   1   2
HETATM    2  C           1     -35.240  -2.235 -10.669  0.00  0.00     0.251 C 
HETATM    3  N           1     -35.456  -3.459 -11.243  0.00  0.00    -0.345 N 
HETATM    4  H           1     -36.364  -3.682 -11.632  0.00  0.00     0.163 HD
HETATM    5  O           1     -34.158  -1.969 -10.204  0.00  0.00    -0.271 OA
BRANCH   3   6
HETATM    6  C           1     -34.386  -4.436 -11.293  0.00  0.00     0.185 C 
BRANCH   6   7
HETATM    7  C           1     -34.969  -5.813 -11.586  0.00  0.00     0.039 C 
BRANCH   7   8
HETATM    8 Se           1     -34.648  -6.992 -10.068  0.00  0.00     0.000 Se
HETATM    9  H           1     -33.763  -7.901 -10.814  0.00  0.00     0.000 HD
ENDBRANCH   7   8
ENDBRANCH   6   7
BRANCH   6  10
HETATM   10  C           1     -33.412  -4.059 -12.383  0.00  0.00     0.196 C 
HETATM   11  O           1     -33.836  -3.627 -13.477  0.00  0.00    -0.646 OA
HETATM   12  O           1     -32.183  -4.177 -12.192  0.00  0.00    -0.646 OA
ENDBRANCH   6  10
ENDBRANCH   3   6
ENDBRANCH   1   2
BRANCH   1  13
HETATM   13  C           1     -36.319  -0.362 -11.876  0.00  0.00     0.224 C 
BRANCH  13  14
HETATM   14  O           1     -36.292  -1.190 -13.006  0.00  0.00    -0.287 OA
BRANCH  14  15
HETATM   15  P           1     -35.711  -0.526 -14.359  0.00  0.00     0.406 P 
HETATM   16  O           1     -36.775   0.266 -15.016  0.00  0.00    -0.624 OA
HETATM   17  O           1     -34.572   0.358 -14.024  0.00  0.00    -0.624 OA
BRANCH  15  18
HETATM   18  O           1     -35.212  -1.690 -15.359  0.00  0.00    -0.300 OA
HETATM   19  H           1     -34.512  -1.301 -15.857  0.00  0.00     0.223 HD
ENDBRANCH  15  18
ENDBRANCH  14  15
ENDBRANCH  13  14
ENDBRANCH   1  13
BRANCH   1  20
HETATM   20  N           1     -36.177  -0.344  -9.412  0.00  0.00    -0.064 N 
HETATM   21  H           1     -35.355  -0.675  -8.858  0.00  0.00     0.275 HD
HETATM   22  H           1     -36.014   0.642  -9.718  0.00  0.00     0.275 HD
HETATM   23  H           1     -37.036  -0.388  -8.820  0.00  0.00     0.275 HD
ENDBRANCH   1  20
TORSDOF 10
ENDMDL
MODEL 4
REMARK VINA RESULT:      -5.5     13.424     15.132
REMARK  10 active torsions:
REMARK  status: ('A' for Active; 'I' for Inactive)
REMARK    1  A    between atoms: Se_1  and  C_2 
REMARK    2  A    between atoms: C_2  and  C_3 
REMARK    3  A    between atoms: C_3  and  C_4 
REMARK    4  A    between atoms: C_3  and  N_7 
REMARK       I    between atoms: N_7  and  C_8 
REMARK    5  A    between atoms: C_8  and  C_9 
REMARK    6  A    between atoms: C_9  and  C_10 
REMARK    7  A    between atoms: C_9  and  N_16 
REMARK    8  A    between atoms: C_10  and  O_11 
REMARK    9  A    between atoms: O_11  and  P_12 
REMARK   10  A    between atoms: P_12  and  O_13 
ROOT
HETATM    1  C           1     -21.299  -3.937  -7.703  0.00  0.00     0.298 C 
ENDROOT
BRANCH   1   2
HETATM    2  C           1     -20.702  -4.742  -6.574  0.00  0.00     0.251 C 
HETATM    3  N           1     -21.484  -5.617  -5.869  0.00  0.00    -0.345 N 
HETATM    4  H           1     -22.462  -5.724  -6.105  0.00  0.00     0.163 HD
HETATM    5  O           1     -19.535  -4.614  -6.292  0.00  0.00    -0.271 OA
BRANCH   3   6
HETATM    6  C           1     -20.911  -6.391  -4.785  0.00  0.00     0.185 C 
BRANCH   6   7
HETATM    7  C           1     -21.936  -6.533  -3.667  0.00  0.00     0.039 C 
BRANCH   7   8
HETATM    8 Se           1     -21.119  -7.442  -2.148  0.00  0.00     0.000 Se
HETATM    9  H           1     -19.745  -7.060  -2.511  0.00  0.00     0.000 HD
ENDBRANCH   7   8
ENDBRANCH   6   7
BRANCH   6  10
HETATM   10  C           1     -20.525  -7.758  -5.293  0.00  0.00     0.196 C 
HETATM   11  O           1     -19.381  -8.209  -5.066  0.00  0.00    -0.646 OA
HETATM   12  O           1     -21.349  -8.440  -5.939  0.00  0.00    -0.646 OA
ENDBRANCH   6  10
ENDBRANCH   3   6
ENDBRANCH   1   2
BRANCH   1  13
HETATM   13  C           1     -22.669  -4.501  -8.059  0.00  0.00     0.224 C 
BRANCH  13  14
HETATM   14  O           1     -23.405  -3.534  -8.758  0.00  0.00    -0.287 OA
BRANCH  14  15
HETATM   15  P           1     -23.736  -3.875 -10.302  0.00  0.00     0.406 P 
HETATM   16  O           1     -22.636  -3.386 -11.162  0.00  0.00    -0.624 OA
HETATM   17  O           1     -23.876  -5.340 -10.464  0.00  0.00    -0.624 OA
BRANCH  15  18
HETATM   18  O           1     -25.115  -3.152 -10.729  0.00  0.00    -0.300 OA
HETATM   19  H           1     -25.414  -3.626 -11.487  0.00  0.00     0.223 HD
ENDBRANCH  15  18
ENDBRANCH  14  15
ENDBRANCH  13  14
ENDBRANCH   1  13
BRANCH   1  20
HETATM   20  N           1     -20.401  -4.015  -8.901  0.00  0.00    -0.064 N 
HETATM   21  H           1     -19.873  -3.119  -9.001  0.00  0.00     0.275 HD
HETATM   22  H           1     -19.725  -4.803  -8.779  0.00  0.00     0.275 HD
HETATM   23  H           1     -20.976  -4.178  -9.758  0.00  0.00     0.275 HD
ENDBRANCH   1  20
TORSDOF 10
ENDMDL
MODEL 5
REMARK VINA RESULT:      -5.5      5.899      8.643
REMARK  10 active torsions:
REMARK  status: ('A' for Active; 'I' for Inactive)
REMARK    1  A    between atoms: Se_1  and  C_2 
REMARK    2  A    between atoms: C_2  and  C_3 
REMARK    3  A    between atoms: C_3  and  C_4 
REMARK    4  A    between atoms: C_3  and  N_7 
REMARK       I    between atoms: N_7  and  C_8 
REMARK    5  A    between atoms: C_8  and  C_9 
REMARK    6  A    between atoms: C_9  and  C_10 
REMARK    7  A    between atoms: C_9  and  N_16 
REMARK    8  A    between atoms: C_10  and  O_11 
REMARK    9  A    between atoms: O_11  and  P_12 
REMARK   10  A    between atoms: P_12  and  O_13 
ROOT
HETATM    1  C           1     -25.830  -7.344 -19.671  0.00  0.00     0.298 C 
ENDROOT
BRANCH   1   2
HETATM    2  C           1     -26.944  -6.330 -19.579  0.00  0.00     0.251 C 
HETATM    3  N           1     -27.772  -6.321 -18.488  0.00  0.00    -0.345 N 
HETATM    4  H           1     -27.636  -6.995 -17.745  0.00  0.00     0.163 HD
HETATM    5  O           1     -27.106  -5.527 -20.466  0.00  0.00    -0.271 OA
BRANCH   3   6
HETATM    6  C           1     -28.843  -5.347 -18.398  0.00  0.00     0.185 C 
BRANCH   6   7
HETATM    7  C           1     -30.141  -6.054 -18.032  0.00  0.00     0.039 C 
BRANCH   7   8
HETATM    8 Se           1     -30.015  -7.938 -18.515  0.00  0.00     0.000 Se
HETATM    9  H           1     -28.663  -8.108 -17.960  0.00  0.00     0.000 HD
ENDBRANCH   7   8
ENDBRANCH   6   7
BRANCH   6  10
HETATM   10  C           1     -28.507  -4.328 -17.338  0.00  0.00     0.196 C 
HETATM   11  O           1     -28.848  -3.134 -17.487  0.00  0.00    -0.646 OA
HETATM   12  O           1     -27.889  -4.677 -16.309  0.00  0.00    -0.646 OA
ENDBRANCH   6  10
ENDBRANCH   3   6
ENDBRANCH   1   2
BRANCH   1  13
HETATM   13  C           1     -24.743  -6.997 -18.663  0.00  0.00     0.224 C 
BRANCH  13  14
HETATM   14  O           1     -25.302  -6.269 -17.603  0.00  0.00    -0.287 OA
BRANCH  14  15
HETATM   15  P           1     -25.304  -7.001 -16.163  0.00  0.00     0.406 P 
HETATM   16  O           1     -24.364  -8.143 -16.190  0.00  0.00    -0.624 OA
HETATM   17  O           1     -24.885  -6.038 -15.120  0.00  0.00    -0.624 OA
BRANCH  15  18
HETATM   18  O           1     -26.791  -7.536 -15.834  0.00  0.00    -0.300 OA
HETATM   19  H           1     -27.184  -6.860 -15.308  0.00  0.00     0.223 HD
ENDBRANCH  15  18
ENDBRANCH  14  15
ENDBRANCH  13  14
ENDBRANCH   1  13
BRANCH   1  20
HETATM   20  N           1     -25.252  -7.325 -21.055  0.00  0.00    -0.064 N 
HETATM   21  H           1     -25.735  -6.595 -21.626  0.00  0.00     0.275 HD
HETATM   22  H           1     -24.231  -7.106 -21.003  0.00  0.00     0.275 HD
HETATM   23  H           1     -25.386  -8.259 -21.502  0.00  0.00     0.275 HD
ENDBRANCH   1  20
TORSDOF 10
ENDMDL
MODEL 6
REMARK VINA RESULT:      -5.5     13.159     15.352
REMARK  10 active torsions:
REMARK  status: ('A' for Active; 'I' for Inactive)
REMARK    1  A    between atoms: Se_1  and  C_2 
REMARK    2  A    between atoms: C_2  and  C_3 
REMARK    3  A    between atoms: C_3  and  C_4 
REMARK    4  A    between atoms: C_3  and  N_7 
REMARK       I    between atoms: N_7  and  C_8 
REMARK    5  A    between atoms: C_8  and  C_9 
REMARK    6  A    between atoms: C_9  and  C_10 
REMARK    7  A    between atoms: C_9  and  N_16 
REMARK    8  A    between atoms: C_10  and  O_11 
REMARK    9  A    between atoms: O_11  and  P_12 
REMARK   10  A    between atoms: P_12  and  O_13 
ROOT
HETATM    1  C           1     -21.289  -5.924  -7.091  0.00  0.00     0.298 C 
ENDROOT
BRANCH   1   2
HETATM    2  C           1     -21.830  -4.700  -7.788  0.00  0.00     0.251 C 
HETATM    3  N           1     -22.357  -4.806  -9.047  0.00  0.00    -0.345 N 
HETATM    4  H           1     -22.384  -5.707  -9.510  0.00  0.00     0.163 HD
HETATM    5  O           1     -21.797  -3.626  -7.237  0.00  0.00    -0.271 OA
BRANCH   3   6
HETATM    6  C           1     -22.877  -3.630  -9.718  0.00  0.00     0.185 C 
BRANCH   6   7
HETATM    7  C           1     -22.020  -3.324 -10.940  0.00  0.00     0.039 C 
BRANCH   7   8
HETATM    8 Se           1     -20.362  -4.343 -10.843  0.00  0.00     0.000 Se
HETATM    9  H           1     -20.735  -5.273 -11.920  0.00  0.00     0.000 HD
ENDBRANCH   7   8
ENDBRANCH   6   7
BRANCH   6  10
HETATM   10  C           1     -24.299  -3.887 -10.151  0.00  0.00     0.196 C 
HETATM   11  O           1     -24.884  -3.067 -10.892  0.00  0.00    -0.646 OA
HETATM   12  O           1     -24.892  -4.919  -9.770  0.00  0.00    -0.646 OA
ENDBRANCH   6  10
ENDBRANCH   3   6
ENDBRANCH   1   2
BRANCH   1  13
HETATM   13  C           1     -21.552  -5.814  -5.595  0.00  0.00     0.224 C 
BRANCH  13  14
HETATM   14  O           1     -22.096  -7.017  -5.125  0.00  0.00    -0.287 OA
BRANCH  14  15
HETATM   15  P           1     -21.127  -7.921  -4.201  0.00  0.00     0.406 P 
HETATM   16  O           1     -20.938  -7.260  -2.890  0.00  0.00    -0.624 OA
HETATM   17  O           1     -21.739  -9.253  -3.999  0.00  0.00    -0.624 OA
BRANCH  15  18
HETATM   18  O           1     -19.695  -8.092  -4.928  0.00  0.00    -0.300 OA
HETATM   19  H           1     -19.106  -8.367  -4.246  0.00  0.00     0.223 HD
ENDBRANCH  15  18
ENDBRANCH  14  15
ENDBRANCH  13  14
ENDBRANCH   1  13
BRANCH   1  20
HETATM   20  N           1     -19.813  -6.025  -7.333  0.00  0.00    -0.064 N 
HETATM   21  H           1     -19.599  -6.927  -7.816  0.00  0.00     0.275 HD
HETATM   22  H           1     -19.503  -5.228  -7.932  0.00  0.00     0.275 HD
HETATM   23  H           1     -19.307  -5.993  -6.419  0.00  0.00     0.275 HD
ENDBRANCH   1  20
TORSDOF 10
ENDMDL
MODEL 7
REMARK VINA RESULT:      -5.4     14.129     15.857
REMARK  10 active torsions:
REMARK  status: ('A' for Active; 'I' for Inactive)
REMARK    1  A    between atoms: Se_1  and  C_2 
REMARK    2  A    between atoms: C_2  and  C_3 
REMARK    3  A    between atoms: C_3  and  C_4 
REMARK    4  A    between atoms: C_3  and  N_7 
REMARK       I    between atoms: N_7  and  C_8 
REMARK    5  A    between atoms: C_8  and  C_9 
REMARK    6  A    between atoms: C_9  and  C_10 
REMARK    7  A    between atoms: C_9  and  N_16 
REMARK    8  A    between atoms: C_10  and  O_11 
REMARK    9  A    between atoms: O_11  and  P_12 
REMARK   10  A    between atoms: P_12  and  O_13 
ROOT
HETATM    1  C           1     -21.039  -4.997  -6.676  0.00  0.00     0.298 C 
ENDROOT
BRANCH   1   2
HETATM    2  C           1     -21.705  -5.901  -5.669  0.00  0.00     0.251 C 
HETATM    3  N           1     -20.945  -6.719  -4.876  0.00  0.00    -0.345 N 
HETATM    4  H           1     -19.937  -6.717  -4.967  0.00  0.00     0.163 HD
HETATM    5  O           1     -22.908  -5.904  -5.562  0.00  0.00    -0.271 OA
BRANCH   3   6
HETATM    6  C           1     -21.585  -7.588  -3.907  0.00  0.00     0.185 C 
BRANCH   6   7
HETATM    7  C           1     -20.849  -8.921  -3.859  0.00  0.00     0.039 C 
BRANCH   7   8
HETATM    8 Se           1     -22.114 -10.348  -3.457  0.00  0.00     0.000 Se
HETATM    9  H           1     -23.256  -9.672  -4.094  0.00  0.00     0.000 HD
ENDBRANCH   7   8
ENDBRANCH   6   7
BRANCH   6  10
HETATM   10  C           1     -21.543  -6.940  -2.546  0.00  0.00     0.196 C 
HETATM   11  O           1     -20.786  -7.394  -1.660  0.00  0.00    -0.646 OA
HETATM   12  O           1     -22.263  -5.948  -2.303  0.00  0.00    -0.646 OA
ENDBRANCH   6  10
ENDBRANCH   3   6
ENDBRANCH   1   2
BRANCH   1  13
HETATM   13  C           1     -22.102  -4.256  -7.476  0.00  0.00     0.224 C 
BRANCH  13  14
HETATM   14  O           1     -22.209  -4.825  -8.753  0.00  0.00    -0.287 OA
BRANCH  14  15
HETATM   15  P           1     -23.347  -4.201  -9.714  0.00  0.00     0.406 P 
HETATM   16  O           1     -22.732  -3.216 -10.631  0.00  0.00    -0.624 OA
HETATM   17  O           1     -23.976  -5.285 -10.502  0.00  0.00    -0.624 OA
BRANCH  15  18
HETATM   18  O           1     -24.470  -3.469  -8.815  0.00  0.00    -0.300 OA
HETATM   19  H           1     -24.375  -2.551  -9.004  0.00  0.00     0.223 HD
ENDBRANCH  15  18
ENDBRANCH  14  15
ENDBRANCH  13  14
ENDBRANCH   1  13
BRANCH   1  20
HETATM   20  N           1     -20.198  -5.820  -7.607  0.00  0.00    -0.064 N 
HETATM   21  H           1     -19.213  -5.845  -7.257  0.00  0.00     0.275 HD
HETATM   22  H           1     -20.577  -6.793  -7.649  0.00  0.00     0.275 HD
HETATM   23  H           1     -20.217  -5.396  -8.561  0.00  0.00     0.275 HD
ENDBRANCH   1  20
TORSDOF 10
ENDMDL
MODEL 8
REMARK VINA RESULT:      -5.2      2.639      3.393
REMARK  10 active torsions:
REMARK  status: ('A' for Active; 'I' for Inactive)
REMARK    1  A    between atoms: Se_1  and  C_2 
REMARK    2  A    between atoms: C_2  and  C_3 
REMARK    3  A    between atoms: C_3  and  C_4 
REMARK    4  A    between atoms: C_3  and  N_7 
REMARK       I    between atoms: N_7  and  C_8 
REMARK    5  A    between atoms: C_8  and  C_9 
REMARK    6  A    between atoms: C_9  and  C_10 
REMARK    7  A    between atoms: C_9  and  N_16 
REMARK    8  A    between atoms: C_10  and  O_11 
REMARK    9  A    between atoms: O_11  and  P_12 
REMARK   10  A    between atoms: P_12  and  O_13 
ROOT
HETATM    1  C           1     -33.901  -4.430 -15.890  0.00  0.00     0.298 C 
ENDROOT
BRANCH   1   2
HETATM    2  C           1     -32.605  -4.556 -16.652  0.00  0.00     0.251 C 
HETATM    3  N           1     -31.897  -5.727 -16.609  0.00  0.00    -0.345 N 
HETATM    4  H           1     -32.244  -6.508 -16.065  0.00  0.00     0.163 HD
HETATM    5  O           1     -32.192  -3.625 -17.299  0.00  0.00    -0.271 OA
BRANCH   3   6
HETATM    6  C           1     -30.652  -5.850 -17.341  0.00  0.00     0.185 C 
BRANCH   6   7
HETATM    7  C           1     -29.487  -5.506 -16.421  0.00  0.00     0.039 C 
BRANCH   7   8
HETATM    8 Se           1     -28.584  -3.911 -17.083  0.00  0.00     0.000 Se
HETATM    9  H           1     -28.760  -4.260 -18.502  0.00  0.00     0.000 HD
ENDBRANCH   7   8
ENDBRANCH   6   7
BRANCH   6  10
HETATM   10  C           1     -30.499  -7.266 -17.839  0.00  0.00     0.196 C 
HETATM   11  O           1     -29.701  -8.044 -17.274  0.00  0.00    -0.646 OA
HETATM   12  O           1     -31.172  -7.660 -18.816  0.00  0.00    -0.646 OA
ENDBRANCH   6  10
ENDBRANCH   3   6
ENDBRANCH   1   2
BRANCH   1  13
HETATM   13  C           1     -33.605  -4.095 -14.434  0.00  0.00     0.224 C 
BRANCH  13  14
HETATM   14  O           1     -34.755  -4.305 -13.661  0.00  0.00    -0.287 OA
BRANCH  14  15
HETATM   15  P           1     -34.512  -4.588 -12.090  0.00  0.00     0.406 P 
HETATM   16  O           1     -33.245  -3.953 -11.665  0.00  0.00    -0.624 OA
HETATM   17  O           1     -35.635  -4.023 -11.308  0.00  0.00    -0.624 OA
BRANCH  15  18
HETATM   18  O           1     -34.428  -6.180 -11.835  0.00  0.00    -0.300 OA
HETATM   19  H           1     -34.922  -6.566 -12.539  0.00  0.00     0.223 HD
ENDBRANCH  15  18
ENDBRANCH  14  15
ENDBRANCH  13  14
ENDBRANCH   1  13
BRANCH   1  20
HETATM   20  N           1     -34.651  -5.727 -15.961  0.00  0.00    -0.064 N 
HETATM   21  H           1     -35.632  -5.583 -15.631  0.00  0.00     0.275 HD
HETATM   22  H           1     -34.663  -6.068 -16.949  0.00  0.00     0.275 HD
HETATM   23  H           1     -34.181  -6.435 -15.354  0.00  0.00     0.275 HD
ENDBRANCH   1  20
TORSDOF 10
ENDMDL
MODEL 9
REMARK VINA RESULT:      -5.1      3.874      5.671
REMARK  10 active torsions:
REMARK  status: ('A' for Active; 'I' for Inactive)
REMARK    1  A    between atoms: Se_1  and  C_2 
REMARK    2  A    between atoms: C_2  and  C_3 
REMARK    3  A    between atoms: C_3  and  C_4 
REMARK    4  A    between atoms: C_3  and  N_7 
REMARK       I    between atoms: N_7  and  C_8 
REMARK    5  A    between atoms: C_8  and  C_9 
REMARK    6  A    between atoms: C_9  and  C_10 
REMARK    7  A    between atoms: C_9  and  N_16 
REMARK    8  A    between atoms: C_10  and  O_11 
REMARK    9  A    between atoms: O_11  and  P_12 
REMARK   10  A    between atoms: P_12  and  O_13 
ROOT
HETATM    1  C           1     -33.672  -3.920 -15.589  0.00  0.00     0.298 C 
ENDROOT
BRANCH   1   2
HETATM    2  C           1     -34.305  -4.223 -14.253  0.00  0.00     0.251 C 
HETATM    3  N           1     -34.058  -3.410 -13.179  0.00  0.00    -0.345 N 
HETATM    4  H           1     -33.451  -2.607 -13.282  0.00  0.00     0.163 HD
HETATM    5  O           1     -35.028  -5.181 -14.131  0.00  0.00    -0.271 OA
BRANCH   3   6
HETATM    6  C           1     -34.665  -3.701 -11.895  0.00  0.00     0.185 C 
BRANCH   6   7
HETATM    7  C           1     -33.649  -4.397 -10.999  0.00  0.00     0.039 C 
BRANCH   7   8
HETATM    8 Se           1     -34.212  -6.236 -10.684  0.00  0.00     0.000 Se
HETATM    9  H           1     -33.041  -6.575  -9.860  0.00  0.00     0.000 HD
ENDBRANCH   7   8
ENDBRANCH   6   7
BRANCH   6  10
HETATM   10  C           1     -35.109  -2.412 -11.247  0.00  0.00     0.196 C 
HETATM   11  O           1     -34.270  -1.676 -10.683  0.00  0.00    -0.646 OA
HETATM   12  O           1     -36.313  -2.081 -11.274  0.00  0.00    -0.646 OA
ENDBRANCH   6  10
ENDBRANCH   3   6
ENDBRANCH   1   2
BRANCH   1  13
HETATM   13  C           1     -34.492  -2.858 -16.311  0.00  0.00     0.224 C 
BRANCH  13  14
HETATM   14  O           1     -35.299  -2.181 -15.385  0.00  0.00    -0.287 OA
BRANCH  14  15
HETATM   15  P           1     -35.837  -0.728 -15.844  0.00  0.00     0.406 P 
HETATM   16  O           1     -37.032  -0.372 -15.047  0.00  0.00    -0.624 OA
HETATM   17  O           1     -34.778   0.282 -15.627  0.00  0.00    -0.624 OA
BRANCH  15  18
HETATM   18  O           1     -36.229  -0.769 -17.409  0.00  0.00    -0.300 OA
HETATM   19  H           1     -35.506  -0.359 -17.853  0.00  0.00     0.223 HD
ENDBRANCH  15  18
ENDBRANCH  14  15
ENDBRANCH  13  14
ENDBRANCH   1  13
BRANCH   1  20
HETATM   20  N           1     -33.634  -5.169 -16.418  0.00  0.00    -0.064 N 
HETATM   21  H           1     -34.140  -5.935 -15.919  0.00  0.00     0.275 HD
HETATM   22  H           1     -34.096  -4.991 -17.339  0.00  0.00     0.275 HD
HETATM   23  H           1     -32.641  -5.453 -16.575  0.00  0.00     0.275 HD
ENDBRANCH   1  20
TORSDOF 10
ENDMDL
