MODEL 1
REMARK VINA RESULT:      -6.8      0.000      0.000
REMARK  9 active torsions:
REMARK  status: ('A' for Active; 'I' for Inactive)
REMARK       I    between atoms: C_1  and  N_7 
REMARK    1  A    between atoms: C_1  and  C_12 
REMARK    2  A    between atoms: C_2  and  C_24 
REMARK    3  A    between atoms: N_7  and  C_24 
REMARK    4  A    between atoms: C_8  and  Se_9 
REMARK    5  A    between atoms: C_8  and  C_17 
REMARK    6  A    between atoms: C_12  and  C_13 
REMARK    7  A    between atoms: C_12  and  N_23 
REMARK    8  A    between atoms: C_13  and  C_14 
REMARK    9  A    between atoms: C_17  and  C_24 
ROOT
HETATM    1  C           1     -33.802  -4.486 -15.440  0.00  0.00     0.249 C 
HETATM    2  O           1     -34.932  -4.914 -15.480  0.00  0.00    -0.271 OA
HETATM    3  N           1     -33.290  -4.016 -14.261  0.00  0.00    -0.345 N 
HETATM    4  H           1     -32.344  -3.657 -14.228  0.00  0.00     0.163 HD
ENDROOT
BRANCH   1   5
HETATM    5  C           1     -32.957  -4.469 -16.690  0.00  0.00     0.278 C 
BRANCH   5   6
HETATM    6  C           1     -31.485  -4.385 -16.308  0.00  0.00     0.081 C 
BRANCH   6   7
HETATM    7  C           1     -30.694  -5.332 -17.157  0.00  0.00    -0.056 A 
HETATM    8  C           1     -31.137  -6.641 -17.339  0.00  0.00     0.007 A 
HETATM    9  C           1     -30.401  -7.523 -18.130  0.00  0.00     0.001 A 
HETATM   10  C           1     -29.221  -7.095 -18.739  0.00  0.00     0.000 A 
HETATM   11  C           1     -28.778  -5.784 -18.557  0.00  0.00     0.001 A 
HETATM   12  C           1     -29.515  -4.903 -17.766  0.00  0.00     0.007 A 
ENDBRANCH   6   7
ENDBRANCH   5   6
BRANCH   5  13
HETATM   13  N           1     -33.325  -3.279 -17.525  0.00  0.00    -0.066 N 
HETATM   14  H           1     -34.353  -3.287 -17.710  0.00  0.00     0.275 HD
HETATM   15  H           1     -32.808  -3.317 -18.432  0.00  0.00     0.275 HD
HETATM   16  H           1     -33.070  -2.403 -17.016  0.00  0.00     0.275 HD
ENDBRANCH   5  13
ENDBRANCH   1   5
BRANCH   3  17
HETATM   17  C           1     -34.101  -4.032 -13.059  0.00  0.00     0.185 C 
BRANCH  17  18
HETATM   18  C           1     -34.886  -2.747 -12.965  0.00  0.00     0.196 C 
HETATM   19  O           1     -35.644  -2.548 -11.990  0.00  0.00    -0.646 OA
HETATM   20  O           1     -34.777  -1.882 -13.860  0.00  0.00    -0.646 OA
ENDBRANCH  17  18
BRANCH  17  21
HETATM   21  C           1     -33.199  -4.166 -11.838  0.00  0.00     0.036 C 
BRANCH  21  22
HETATM   22  C           1     -33.250  -5.599 -11.323  0.00  0.00     0.003 C 
BRANCH  22  23
HETATM   23 Se           1     -34.899  -5.872 -10.321  0.00  0.00     0.000 Se
HETATM   24  C           1     -34.644  -7.792 -10.106  0.00  0.00     0.000 C 
ENDBRANCH  22  23
ENDBRANCH  21  22
ENDBRANCH  17  21
ENDBRANCH   3  17
TORSDOF 9
ENDMDL
MODEL 2
REMARK VINA RESULT:      -6.7     14.026     14.940
REMARK  9 active torsions:
REMARK  status: ('A' for Active; 'I' for Inactive)
REMARK       I    between atoms: C_1  and  N_7 
REMARK    1  A    between atoms: C_1  and  C_12 
REMARK    2  A    between atoms: C_2  and  C_24 
REMARK    3  A    between atoms: N_7  and  C_24 
REMARK    4  A    between atoms: C_8  and  Se_9 
REMARK    5  A    between atoms: C_8  and  C_17 
REMARK    6  A    between atoms: C_12  and  C_13 
REMARK    7  A    between atoms: C_12  and  N_23 
REMARK    8  A    between atoms: C_13  and  C_14 
REMARK    9  A    between atoms: C_17  and  C_24 
ROOT
HETATM    1  C           1     -21.386  -5.598  -5.752  0.00  0.00     0.249 C 
HETATM    2  O           1     -20.561  -4.843  -5.292  0.00  0.00    -0.271 OA
HETATM    3  N           1     -21.522  -6.859  -5.237  0.00  0.00    -0.345 N 
HETATM    4  H           1     -22.213  -7.490  -5.622  0.00  0.00     0.163 HD
ENDROOT
BRANCH   1   5
HETATM    5  C           1     -22.264  -5.150  -6.894  0.00  0.00     0.278 C 
BRANCH   5   6
HETATM    6  C           1     -21.689  -3.882  -7.511  0.00  0.00     0.081 C 
BRANCH   6   7
HETATM    7  C           1     -21.649  -4.023  -9.001  0.00  0.00    -0.056 A 
HETATM    8  C           1     -22.832  -4.212  -9.715  0.00  0.00     0.007 A 
HETATM    9  C           1     -22.795  -4.343 -11.103  0.00  0.00     0.001 A 
HETATM   10  C           1     -21.576  -4.286 -11.777  0.00  0.00     0.000 A 
HETATM   11  C           1     -20.392  -4.097 -11.062  0.00  0.00     0.001 A 
HETATM   12  C           1     -20.429  -3.965  -9.675  0.00  0.00     0.007 A 
ENDBRANCH   6   7
ENDBRANCH   5   6
BRANCH   5  13
HETATM   13  N           1     -23.646  -4.874  -6.383  0.00  0.00    -0.066 N 
HETATM   14  H           1     -23.967  -3.942  -6.731  0.00  0.00     0.275 HD
HETATM   15  H           1     -23.637  -4.872  -5.338  0.00  0.00     0.275 HD
HETATM   16  H           1     -24.299  -5.616  -6.723  0.00  0.00     0.275 HD
ENDBRANCH   5  13
ENDBRANCH   1   5
BRANCH   3  17
HETATM   17  C           1     -20.678  -7.290  -4.139  0.00  0.00     0.185 C 
BRANCH  17  18
HETATM   18  C           1     -19.733  -8.362  -4.623  0.00  0.00     0.196 C 
HETATM   19  O           1     -19.567  -8.541  -5.849  0.00  0.00    -0.646 OA
HETATM   20  O           1     -19.116  -9.069  -3.798  0.00  0.00    -0.646 OA
ENDBRANCH  17  18
BRANCH  17  21
HETATM   21  C           1     -21.547  -7.848  -3.019  0.00  0.00     0.036 C 
BRANCH  21  22
HETATM   22  C           1     -21.882  -6.737  -2.032  0.00  0.00     0.003 C 
BRANCH  22  23
HETATM   23 Se           1     -22.294  -7.514  -0.293  0.00  0.00     0.000 Se
HETATM   24  C           1     -22.232  -9.358  -0.919  0.00  0.00     0.000 C 
ENDBRANCH  22  23
ENDBRANCH  21  22
ENDBRANCH  17  21
ENDBRANCH   3  17
TORSDOF 9
ENDMDL
MODEL 3
REMARK VINA RESULT:      -6.4     14.481     15.442
REMARK  9 active torsions:
REMARK  status: ('A' for Active; 'I' for Inactive)
REMARK       I    between atoms: C_1  and  N_7 
REMARK    1  A    between atoms: C_1  and  C_12 
REMARK    2  A    between atoms: C_2  and  C_24 
REMARK    3  A    between atoms: N_7  and  C_24 
REMARK    4  A    between atoms: C_8  and  Se_9 
REMARK    5  A    between atoms: C_8  and  C_17 
REMARK    6  A    between atoms: C_12  and  C_13 
REMARK    7  A    between atoms: C_12  and  N_23 
REMARK    8  A    between atoms: C_13  and  C_14 
REMARK    9  A    between atoms: C_17  and  C_24 
ROOT
HETATM    1  C           1     -20.559  -6.862  -6.085  0.00  0.00     0.249 C 
HETATM    2  O           1     -19.464  -6.872  -6.597  0.00  0.00    -0.271 OA
HETATM    3  N           1     -20.838  -7.710  -5.048  0.00  0.00    -0.345 N 
HETATM    4  H           1     -21.755  -7.701  -4.619  0.00  0.00     0.163 HD
ENDROOT
BRANCH   1   5
HETATM    5  C           1     -21.618  -5.912  -6.589  0.00  0.00     0.278 C 
BRANCH   5   6
HETATM    6  C           1     -20.972  -4.587  -6.973  0.00  0.00     0.081 C 
BRANCH   6   7
HETATM    7  C           1     -21.175  -4.338  -8.435  0.00  0.00    -0.056 A 
HETATM    8  C           1     -20.149  -4.615  -9.338  0.00  0.00     0.007 A 
HETATM    9  C           1     -20.338  -4.383 -10.700  0.00  0.00     0.001 A 
HETATM   10  C           1     -21.552  -3.874 -11.160  0.00  0.00     0.000 A 
HETATM   11  C           1     -22.579  -3.598 -10.256  0.00  0.00     0.001 A 
HETATM   12  C           1     -22.390  -3.830  -8.894  0.00  0.00     0.007 A 
ENDBRANCH   6   7
ENDBRANCH   5   6
BRANCH   5  13
HETATM   13  N           1     -22.633  -5.678  -5.510  0.00  0.00    -0.066 N 
HETATM   14  H           1     -23.512  -5.304  -5.934  0.00  0.00     0.275 HD
HETATM   15  H           1     -22.257  -4.989  -4.821  0.00  0.00     0.275 HD
HETATM   16  H           1     -22.840  -6.580  -5.023  0.00  0.00     0.275 HD
ENDBRANCH   5  13
ENDBRANCH   1   5
BRANCH   3  17
HETATM   17  C           1     -19.820  -8.623  -4.563  0.00  0.00     0.185 C 
BRANCH  17  18
HETATM   18  C           1     -20.077 -10.002  -5.118  0.00  0.00     0.196 C 
HETATM   19  O           1     -19.414 -10.977  -4.700  0.00  0.00    -0.646 OA
HETATM   20  O           1     -20.952 -10.171  -5.994  0.00  0.00    -0.646 OA
ENDBRANCH  17  18
BRANCH  17  21
HETATM   21  C           1     -19.865  -8.672  -3.041  0.00  0.00     0.036 C 
BRANCH  21  22
HETATM   22  C           1     -21.299  -8.901  -2.581  0.00  0.00     0.003 C 
BRANCH  22  23
HETATM   23 Se           1     -21.640  -7.862  -0.969  0.00  0.00     0.000 Se
HETATM   24  C           1     -22.163  -6.246  -1.924  0.00  0.00     0.000 C 
ENDBRANCH  22  23
ENDBRANCH  21  22
ENDBRANCH  17  21
ENDBRANCH   3  17
TORSDOF 9
ENDMDL
MODEL 4
REMARK VINA RESULT:      -6.4     14.625     15.600
REMARK  9 active torsions:
REMARK  status: ('A' for Active; 'I' for Inactive)
REMARK       I    between atoms: C_1  and  N_7 
REMARK    1  A    between atoms: C_1  and  C_12 
REMARK    2  A    between atoms: C_2  and  C_24 
REMARK    3  A    between atoms: N_7  and  C_24 
REMARK    4  A    between atoms: C_8  and  Se_9 
REMARK    5  A    between atoms: C_8  and  C_17 
REMARK    6  A    between atoms: C_12  and  C_13 
REMARK    7  A    between atoms: C_12  and  N_23 
REMARK    8  A    between atoms: C_13  and  C_14 
REMARK    9  A    between atoms: C_17  and  C_24 
ROOT
HETATM    1  C           1     -21.681  -6.013  -5.286  0.00  0.00     0.249 C 
HETATM    2  O           1     -22.887  -6.100  -5.266  0.00  0.00    -0.271 OA
HETATM    3  N           1     -20.924  -6.813  -4.473  0.00  0.00    -0.345 N 
HETATM    4  H           1     -19.914  -6.740  -4.491  0.00  0.00     0.163 HD
ENDROOT
BRANCH   1   5
HETATM    5  C           1     -21.012  -5.023  -6.207  0.00  0.00     0.278 C 
BRANCH   5   6
HETATM    6  C           1     -20.582  -5.728  -7.486  0.00  0.00     0.081 C 
BRANCH   6   7
HETATM    7  C           1     -21.026  -4.928  -8.672  0.00  0.00    -0.056 A 
HETATM    8  C           1     -22.325  -4.424  -8.726  0.00  0.00     0.007 A 
HETATM    9  C           1     -22.738  -3.678  -9.829  0.00  0.00     0.001 A 
HETATM   10  C           1     -21.852  -3.436 -10.879  0.00  0.00     0.000 A 
HETATM   11  C           1     -20.552  -3.939 -10.824  0.00  0.00     0.001 A 
HETATM   12  C           1     -20.139  -4.685  -9.720  0.00  0.00     0.007 A 
ENDBRANCH   6   7
ENDBRANCH   5   6
BRANCH   5  13
HETATM   13  N           1     -19.807  -4.444  -5.527  0.00  0.00    -0.066 N 
HETATM   14  H           1     -19.442  -3.642  -6.089  0.00  0.00     0.275 HD
HETATM   15  H           1     -19.068  -5.177  -5.444  0.00  0.00     0.275 HD
HETATM   16  H           1     -20.072  -4.107  -4.573  0.00  0.00     0.275 HD
ENDBRANCH   5  13
ENDBRANCH   1   5
BRANCH   3  17
HETATM   17  C           1     -21.567  -7.765  -3.588  0.00  0.00     0.185 C 
BRANCH  17  18
HETATM   18  C           1     -21.536  -7.237  -2.175  0.00  0.00     0.196 C 
HETATM   19  O           1     -20.756  -7.742  -1.337  0.00  0.00    -0.646 OA
HETATM   20  O           1     -22.289  -6.297  -1.842  0.00  0.00    -0.646 OA
ENDBRANCH  17  18
BRANCH  17  21
HETATM   21  C           1     -20.827  -9.095  -3.649  0.00  0.00     0.036 C 
BRANCH  21  22
HETATM   22  C           1     -19.489  -8.902  -4.351  0.00  0.00     0.003 C 
BRANCH  22  23
HETATM   23 Se           1     -18.049  -9.517  -3.191  0.00  0.00     0.000 Se
HETATM   24  C           1     -16.846  -9.977  -4.653  0.00  0.00     0.000 C 
ENDBRANCH  22  23
ENDBRANCH  21  22
ENDBRANCH  17  21
ENDBRANCH   3  17
TORSDOF 9
ENDMDL
MODEL 5
REMARK VINA RESULT:      -6.3     14.845     15.858
REMARK  9 active torsions:
REMARK  status: ('A' for Active; 'I' for Inactive)
REMARK       I    between atoms: C_1  and  N_7 
REMARK    1  A    between atoms: C_1  and  C_12 
REMARK    2  A    between atoms: C_2  and  C_24 
REMARK    3  A    between atoms: N_7  and  C_24 
REMARK    4  A    between atoms: C_8  and  Se_9 
REMARK    5  A    between atoms: C_8  and  C_17 
REMARK    6  A    between atoms: C_12  and  C_13 
REMARK    7  A    between atoms: C_12  and  N_23 
REMARK    8  A    between atoms: C_13  and  C_14 
REMARK    9  A    between atoms: C_17  and  C_24 
ROOT
HETATM    1  C           1     -21.310  -6.609  -5.022  0.00  0.00     0.249 C 
HETATM    2  O           1     -21.811  -7.601  -5.498  0.00  0.00    -0.271 OA
HETATM    3  N           1     -21.002  -6.570  -3.689  0.00  0.00    -0.345 N 
HETATM    4  H           1     -20.582  -5.740  -3.291  0.00  0.00     0.163 HD
ENDROOT
BRANCH   1   5
HETATM    5  C           1     -21.024  -5.415  -5.898  0.00  0.00     0.278 C 
BRANCH   5   6
HETATM    6  C           1     -20.395  -5.881  -7.204  0.00  0.00     0.081 C 
BRANCH   6   7
HETATM    7  C           1     -20.931  -5.062  -8.338  0.00  0.00    -0.056 A 
HETATM    8  C           1     -20.119  -4.775  -9.435  0.00  0.00     0.007 A 
HETATM    9  C           1     -20.618  -4.014 -10.491  0.00  0.00     0.001 A 
HETATM   10  C           1     -21.929  -3.539 -10.450  0.00  0.00     0.000 A 
HETATM   11  C           1     -22.741  -3.827  -9.353  0.00  0.00     0.001 A 
HETATM   12  C           1     -22.242  -4.588  -8.297  0.00  0.00     0.007 A 
ENDBRANCH   6   7
ENDBRANCH   5   6
BRANCH   5  13
HETATM   13  N           1     -20.078  -4.491  -5.190  0.00  0.00    -0.066 N 
HETATM   14  H           1     -19.097  -4.820  -5.334  0.00  0.00     0.275 HD
HETATM   15  H           1     -20.297  -4.485  -4.168  0.00  0.00     0.275 HD
HETATM   16  H           1     -20.181  -3.524  -5.574  0.00  0.00     0.275 HD
ENDBRANCH   5  13
ENDBRANCH   1   5
BRANCH   3  17
HETATM   17  C           1     -21.277  -7.719  -2.846  0.00  0.00     0.185 C 
BRANCH  17  18
HETATM   18  C           1     -21.856  -7.252  -1.534  0.00  0.00     0.196 C 
HETATM   19  O           1     -22.607  -6.253  -1.502  0.00  0.00    -0.646 OA
HETATM   20  O           1     -21.585  -7.865  -0.479  0.00  0.00    -0.646 OA
ENDBRANCH  17  18
BRANCH  17  21
HETATM   21  C           1     -19.983  -8.480  -2.588  0.00  0.00     0.036 C 
BRANCH  21  22
HETATM   22  C           1     -19.951  -9.736  -3.448  0.00  0.00     0.003 C 
BRANCH  22  23
HETATM   23 Se           1     -18.564  -9.560  -4.806  0.00  0.00     0.000 Se
HETATM   24  C           1     -17.084  -9.655  -3.542  0.00  0.00     0.000 C 
ENDBRANCH  22  23
ENDBRANCH  21  22
ENDBRANCH  17  21
ENDBRANCH   3  17
TORSDOF 9
ENDMDL
MODEL 6
REMARK VINA RESULT:      -6.1     14.854     16.892
REMARK  9 active torsions:
REMARK  status: ('A' for Active; 'I' for Inactive)
REMARK       I    between atoms: C_1  and  N_7 
REMARK    1  A    between atoms: C_1  and  C_12 
REMARK    2  A    between atoms: C_2  and  C_24 
REMARK    3  A    between atoms: N_7  and  C_24 
REMARK    4  A    between atoms: C_8  and  Se_9 
REMARK    5  A    between atoms: C_8  and  C_17 
REMARK    6  A    between atoms: C_12  and  C_13 
REMARK    7  A    between atoms: C_12  and  N_23 
REMARK    8  A    between atoms: C_13  and  C_14 
REMARK    9  A    between atoms: C_17  and  C_24 
ROOT
HETATM    1  C           1     -20.879  -7.769  -5.431  0.00  0.00     0.249 C 
HETATM    2  O           1     -19.863  -7.988  -6.047  0.00  0.00    -0.271 OA
HETATM    3  N           1     -21.614  -6.646  -5.699  0.00  0.00    -0.345 N 
HETATM    4  H           1     -22.465  -6.463  -5.183  0.00  0.00     0.163 HD
ENDROOT
BRANCH   1   5
HETATM    5  C           1     -21.338  -8.735  -4.366  0.00  0.00     0.278 C 
BRANCH   5   6
HETATM    6  C           1     -20.457  -8.589  -3.133  0.00  0.00     0.081 C 
BRANCH   6   7
HETATM    7  C           1     -21.318  -8.467  -1.914  0.00  0.00    -0.056 A 
HETATM    8  C           1     -21.672  -9.607  -1.193  0.00  0.00     0.007 A 
HETATM    9  C           1     -22.473  -9.493  -0.058  0.00  0.00     0.001 A 
HETATM   10  C           1     -22.921  -8.239   0.358  0.00  0.00     0.000 A 
HETATM   11  C           1     -22.566  -7.098  -0.363  0.00  0.00     0.001 A 
HETATM   12  C           1     -21.764  -7.212  -1.498  0.00  0.00     0.007 A 
ENDBRANCH   6   7
ENDBRANCH   5   6
BRANCH   5  13
HETATM   13  N           1     -21.239 -10.137  -4.887  0.00  0.00    -0.066 N 
HETATM   14  H           1     -20.930 -10.117  -5.886  0.00  0.00     0.275 HD
HETATM   15  H           1     -22.173 -10.601  -4.821  0.00  0.00     0.275 HD
HETATM   16  H           1     -20.544 -10.673  -4.320  0.00  0.00     0.275 HD
ENDBRANCH   5  13
ENDBRANCH   1   5
BRANCH   3  17
HETATM   17  C           1     -21.173  -5.718  -6.722  0.00  0.00     0.185 C 
BRANCH  17  18
HETATM   18  C           1     -20.026  -4.893  -6.192  0.00  0.00     0.196 C 
HETATM   19  O           1     -19.004  -4.722  -6.893  0.00  0.00    -0.646 OA
HETATM   20  O           1     -20.097  -4.382  -5.055  0.00  0.00    -0.646 OA
ENDBRANCH  17  18
BRANCH  17  21
HETATM   21  C           1     -22.326  -4.797  -7.103  0.00  0.00     0.036 C 
BRANCH  21  22
HETATM   22  C           1     -21.862  -3.818  -8.174  0.00  0.00     0.003 C 
BRANCH  22  23
HETATM   23 Se           1     -22.628  -4.324  -9.894  0.00  0.00     0.000 Se
HETATM   24  C           1     -20.925  -4.308 -10.841  0.00  0.00     0.000 C 
ENDBRANCH  22  23
ENDBRANCH  21  22
ENDBRANCH  17  21
ENDBRANCH   3  17
TORSDOF 9
ENDMDL
MODEL 7
REMARK VINA RESULT:      -6.1     14.689     16.848
REMARK  9 active torsions:
REMARK  status: ('A' for Active; 'I' for Inactive)
REMARK       I    between atoms: C_1  and  N_7 
REMARK    1  A    between atoms: C_1  and  C_12 
REMARK    2  A    between atoms: C_2  and  C_24 
REMARK    3  A    between atoms: N_7  and  C_24 
REMARK    4  A    between atoms: C_8  and  Se_9 
REMARK    5  A    between atoms: C_8  and  C_17 
REMARK    6  A    between atoms: C_12  and  C_13 
REMARK    7  A    between atoms: C_12  and  N_23 
REMARK    8  A    between atoms: C_13  and  C_14 
REMARK    9  A    between atoms: C_17  and  C_24 
ROOT
HETATM    1  C           1     -21.410  -6.353  -4.384  0.00  0.00     0.249 C 
HETATM    2  O           1     -21.813  -7.386  -4.865  0.00  0.00    -0.271 OA
HETATM    3  N           1     -21.068  -5.307  -5.197  0.00  0.00    -0.345 N 
HETATM    4  H           1     -20.731  -4.442  -4.794  0.00  0.00     0.163 HD
ENDROOT
BRANCH   1   5
HETATM    5  C           1     -21.284  -6.218  -2.886  0.00  0.00     0.278 C 
BRANCH   5   6
HETATM    6  C           1     -20.663  -7.484  -2.311  0.00  0.00     0.081 C 
BRANCH   6   7
HETATM    7  C           1     -21.646  -8.154  -1.402  0.00  0.00    -0.056 A 
HETATM    8  C           1     -22.120  -7.485  -0.274  0.00  0.00     0.007 A 
HETATM    9  C           1     -23.036  -8.108   0.573  0.00  0.00     0.001 A 
HETATM   10  C           1     -23.477  -9.401   0.292  0.00  0.00     0.000 A 
HETATM   11  C           1     -23.004 -10.070  -0.837  0.00  0.00     0.001 A 
HETATM   12  C           1     -22.088  -9.447  -1.684  0.00  0.00     0.007 A 
ENDBRANCH   6   7
ENDBRANCH   5   6
BRANCH   5  13
HETATM   13  N           1     -22.643  -6.011  -2.288  0.00  0.00    -0.066 N 
HETATM   14  H           1     -23.305  -6.722  -2.673  0.00  0.00     0.275 HD
HETATM   15  H           1     -22.985  -5.052  -2.523  0.00  0.00     0.275 HD
HETATM   16  H           1     -22.587  -6.116  -1.249  0.00  0.00     0.275 HD
ENDBRANCH   5  13
ENDBRANCH   1   5
BRANCH   3  17
HETATM   17  C           1     -21.189  -5.436  -6.637  0.00  0.00     0.185 C 
BRANCH  17  18
HETATM   18  C           1     -19.823  -5.663  -7.237  0.00  0.00     0.196 C 
HETATM   19  O           1     -19.309  -6.803  -7.208  0.00  0.00    -0.646 OA
HETATM   20  O           1     -19.207  -4.712  -7.765  0.00  0.00    -0.646 OA
ENDBRANCH  17  18
BRANCH  17  21
HETATM   21  C           1     -21.791  -4.161  -7.213  0.00  0.00     0.036 C 
BRANCH  21  22
HETATM   22  C           1     -23.242  -4.414  -7.602  0.00  0.00     0.003 C 
BRANCH  22  23
HETATM   23 Se           1     -23.572  -3.700  -9.385  0.00  0.00     0.000 Se
HETATM   24  C           1     -21.835  -4.228 -10.096  0.00  0.00     0.000 C 
ENDBRANCH  22  23
ENDBRANCH  21  22
ENDBRANCH  17  21
ENDBRANCH   3  17
TORSDOF 9
ENDMDL
MODEL 8
REMARK VINA RESULT:      -5.9     15.845     16.923
REMARK  9 active torsions:
REMARK  status: ('A' for Active; 'I' for Inactive)
REMARK       I    between atoms: C_1  and  N_7 
REMARK    1  A    between atoms: C_1  and  C_12 
REMARK    2  A    between atoms: C_2  and  C_24 
REMARK    3  A    between atoms: N_7  and  C_24 
REMARK    4  A    between atoms: C_8  and  Se_9 
REMARK    5  A    between atoms: C_8  and  C_17 
REMARK    6  A    between atoms: C_12  and  C_13 
REMARK    7  A    between atoms: C_12  and  N_23 
REMARK    8  A    between atoms: C_13  and  C_14 
REMARK    9  A    between atoms: C_17  and  C_24 
ROOT
HETATM    1  C           1     -21.066  -7.701  -4.987  0.00  0.00     0.249 C 
HETATM    2  O           1     -21.067  -8.332  -6.018  0.00  0.00    -0.271 OA
HETATM    3  N           1     -20.471  -8.218  -3.868  0.00  0.00    -0.345 N 
HETATM    4  H           1     -20.471  -7.689  -3.006  0.00  0.00     0.163 HD
ENDROOT
BRANCH   1   5
HETATM    5  C           1     -21.721  -6.342  -4.935  0.00  0.00     0.278 C 
BRANCH   5   6
HETATM    6  C           1     -20.707  -5.273  -5.321  0.00  0.00     0.081 C 
BRANCH   6   7
HETATM    7  C           1     -20.908  -4.888  -6.754  0.00  0.00    -0.056 A 
HETATM    8  C           1     -22.169  -4.494  -7.199  0.00  0.00     0.007 A 
HETATM    9  C           1     -22.356  -4.134  -8.534  0.00  0.00     0.001 A 
HETATM   10  C           1     -21.282  -4.168  -9.422  0.00  0.00     0.000 A 
HETATM   11  C           1     -20.020  -4.561  -8.976  0.00  0.00     0.001 A 
HETATM   12  C           1     -19.833  -4.921  -7.642  0.00  0.00     0.007 A 
ENDBRANCH   6   7
ENDBRANCH   5   6
BRANCH   5  13
HETATM   13  N           1     -22.218  -6.081  -3.545  0.00  0.00    -0.066 N 
HETATM   14  H           1     -23.263  -6.081  -3.542  0.00  0.00     0.275 HD
HETATM   15  H           1     -21.869  -5.151  -3.219  0.00  0.00     0.275 HD
HETATM   16  H           1     -21.869  -6.828  -2.902  0.00  0.00     0.275 HD
ENDBRANCH   5  13
ENDBRANCH   1   5
BRANCH   3  17
HETATM   17  C           1     -19.841  -9.523  -3.918  0.00  0.00     0.185 C 
BRANCH  17  18
HETATM   18  C           1     -20.277 -10.338  -2.725  0.00  0.00     0.196 C 
HETATM   19  O           1     -20.992 -11.350  -2.888  0.00  0.00    -0.646 OA
HETATM   20  O           1     -19.923 -10.000  -1.576  0.00  0.00    -0.646 OA
ENDBRANCH  17  18
BRANCH  17  21
HETATM   21  C           1     -18.327  -9.358  -3.894  0.00  0.00     0.036 C 
BRANCH  21  22
HETATM   22  C           1     -17.705 -10.194  -5.004  0.00  0.00     0.003 C 
BRANCH  22  23
HETATM   23 Se           1     -15.906 -10.731  -4.486  0.00  0.00     0.000 Se
HETATM   24  C           1     -15.937  -9.784  -2.783  0.00  0.00     0.000 C 
ENDBRANCH  22  23
ENDBRANCH  21  22
ENDBRANCH  17  21
ENDBRANCH   3  17
TORSDOF 9
ENDMDL
MODEL 9
REMARK VINA RESULT:      -5.9     15.708     16.861
REMARK  9 active torsions:
REMARK  status: ('A' for Active; 'I' for Inactive)
REMARK       I    between atoms: C_1  and  N_7 
REMARK    1  A    between atoms: C_1  and  C_12 
REMARK    2  A    between atoms: C_2  and  C_24 
REMARK    3  A    between atoms: N_7  and  C_24 
REMARK    4  A    between atoms: C_8  and  Se_9 
REMARK    5  A    between atoms: C_8  and  C_17 
REMARK    6  A    between atoms: C_12  and  C_13 
REMARK    7  A    between atoms: C_12  and  N_23 
REMARK    8  A    between atoms: C_13  and  C_14 
REMARK    9  A    between atoms: C_17  and  C_24 
ROOT
HETATM    1  C           1     -21.445  -8.360  -3.667  0.00  0.00     0.249 C 
HETATM    2  O           1     -21.989  -9.417  -3.886  0.00  0.00    -0.271 OA
HETATM    3  N           1     -21.333  -7.900  -2.383  0.00  0.00    -0.345 N 
HETATM    4  H           1     -20.878  -7.015  -2.200  0.00  0.00     0.163 HD
ENDROOT
BRANCH   1   5
HETATM    5  C           1     -20.890  -7.547  -4.811  0.00  0.00     0.278 C 
BRANCH   5   6
HETATM    6  C           1     -21.522  -6.161  -4.804  0.00  0.00     0.081 C 
BRANCH   6   7
HETATM    7  C           1     -21.063  -5.396  -6.007  0.00  0.00    -0.056 A 
HETATM    8  C           1     -21.999  -4.840  -6.878  0.00  0.00     0.007 A 
HETATM    9  C           1     -21.571  -4.126  -7.997  0.00  0.00     0.001 A 
HETATM   10  C           1     -20.208  -3.969  -8.245  0.00  0.00     0.000 A 
HETATM   11  C           1     -19.272  -4.524  -7.373  0.00  0.00     0.001 A 
HETATM   12  C           1     -19.699  -5.238  -6.253  0.00  0.00     0.007 A 
ENDBRANCH   6   7
ENDBRANCH   5   6
BRANCH   5  13
HETATM   13  N           1     -21.201  -8.231  -6.108  0.00  0.00    -0.066 N 
HETATM   14  H           1     -22.210  -8.094  -6.341  0.00  0.00     0.275 HD
HETATM   15  H           1     -21.000  -9.253  -6.019  0.00  0.00     0.275 HD
HETATM   16  H           1     -20.609  -7.825  -6.868  0.00  0.00     0.275 HD
ENDBRANCH   5  13
ENDBRANCH   1   5
BRANCH   3  17
HETATM   17  C           1     -21.867  -8.681  -1.284  0.00  0.00     0.185 C 
BRANCH  17  18
HETATM   18  C           1     -22.638  -7.778  -0.353  0.00  0.00     0.196 C 
HETATM   19  O           1     -23.256  -8.264   0.620  0.00  0.00    -0.646 OA
HETATM   20  O           1     -22.658  -6.545  -0.554  0.00  0.00    -0.646 OA
ENDBRANCH  17  18
BRANCH  17  21
HETATM   21  C           1     -20.721  -9.335  -0.522  0.00  0.00     0.036 C 
BRANCH  21  22
HETATM   22  C           1     -20.667 -10.819  -0.860  0.00  0.00     0.003 C 
BRANCH  22  23
HETATM   23 Se           1     -19.100 -11.179  -1.962  0.00  0.00     0.000 Se
HETATM   24  C           1     -18.065 -11.980  -0.519  0.00  0.00     0.000 C 
ENDBRANCH  22  23
ENDBRANCH  21  22
ENDBRANCH  17  21
ENDBRANCH   3  17
TORSDOF 9
ENDMDL
