MODEL 1
REMARK VINA RESULT:      -8.2      0.000      0.000
REMARK  6 active torsions:
REMARK  status: ('A' for Active; 'I' for Inactive)
REMARK    1  A    between atoms: C_1  and  C_21 
REMARK    2  A    between atoms: C_4  and  C_5 
REMARK    3  A    between atoms: C_5  and  C_23 
REMARK    4  A    between atoms: N_9  and  C_23 
REMARK    5  A    between atoms: C_21  and  N_22 
REMARK       I    between atoms: N_22  and  C_24 
REMARK    6  A    between atoms: C_23  and  C_24 
ROOT
HETATM    1  C           1     -21.225  -5.857  -7.008  0.00  0.00     0.278 C 
ENDROOT
BRANCH   1   2
HETATM    2  C           1     -21.204  -5.574  -5.512  0.00  0.00     0.083 C 
BRANCH   2   3
HETATM    3  C           1     -21.254  -6.866  -4.758  0.00  0.00    -0.028 A 
HETATM    4  C           1     -20.990  -8.115  -5.271  0.00  0.00     0.096 A 
HETATM    5  N           1     -21.148  -9.026  -4.260  0.00  0.00    -0.365 N 
HETATM    6  H           1     -21.010 -10.062  -4.357  0.00  0.00     0.165 HD
HETATM    7  C           1     -21.511  -8.386  -3.096  0.00  0.00     0.042 A 
HETATM    8  C           1     -21.586  -7.023  -3.384  0.00  0.00    -0.002 A 
HETATM    9  C           1     -21.778  -8.905  -1.823  0.00  0.00     0.030 A 
HETATM   10  C           1     -21.944  -6.132  -2.354  0.00  0.00     0.014 A 
HETATM   11  C           1     -22.213  -6.634  -1.076  0.00  0.00     0.001 A 
HETATM   12  C           1     -22.131  -8.000  -0.817  0.00  0.00     0.002 A 
ENDBRANCH   2   3
ENDBRANCH   1   2
BRANCH   1  13
HETATM   13  N           1     -19.830  -6.137  -7.483  0.00  0.00    -0.066 N 
HETATM   14  H           1     -19.865  -6.773  -8.313  0.00  0.00     0.275 HD
HETATM   15  H           1     -19.367  -5.240  -7.753  0.00  0.00     0.275 HD
HETATM   16  H           1     -19.286  -6.593  -6.716  0.00  0.00     0.275 HD
ENDBRANCH   1  13
BRANCH   1  17
HETATM   17  C           1     -21.773  -4.657  -7.740  0.00  0.00     0.249 C 
HETATM   18  O           1     -21.755  -3.569  -7.215  0.00  0.00    -0.271 OA
HETATM   19  N           1     -22.290  -4.801  -8.999  0.00  0.00    -0.345 N 
HETATM   20  H           1     -22.306  -5.712  -9.439  0.00  0.00     0.163 HD
BRANCH  19  21
HETATM   21  C           1     -22.817  -3.647  -9.702  0.00  0.00     0.181 C 
HETATM   22  C           1     -21.966  -3.370 -10.933  0.00  0.00     0.043 C 
BRANCH  21  23
HETATM   23  C           1     -24.239  -3.924 -10.126  0.00  0.00     0.196 C 
HETATM   24  O           1     -24.811  -4.970  -9.750  0.00  0.00    -0.646 OA
HETATM   25  O           1     -24.845  -3.106 -10.852  0.00  0.00    -0.646 OA
ENDBRANCH  21  23
ENDBRANCH  19  21
ENDBRANCH   1  17
TORSDOF 6
ENDMDL
MODEL 2
REMARK VINA RESULT:      -7.7      3.424      7.487
REMARK  6 active torsions:
REMARK  status: ('A' for Active; 'I' for Inactive)
REMARK    1  A    between atoms: C_1  and  C_21 
REMARK    2  A    between atoms: C_4  and  C_5 
REMARK    3  A    between atoms: C_5  and  C_23 
REMARK    4  A    between atoms: N_9  and  C_23 
REMARK    5  A    between atoms: C_21  and  N_22 
REMARK       I    between atoms: N_22  and  C_24 
REMARK    6  A    between atoms: C_23  and  C_24 
ROOT
HETATM    1  C           1     -21.369  -6.225  -5.487  0.00  0.00     0.278 C 
ENDROOT
BRANCH   1   2
HETATM    2  C           1     -20.925  -4.919  -6.133  0.00  0.00     0.083 C 
BRANCH   2   3
HETATM    3  C           1     -21.850  -4.579  -7.260  0.00  0.00    -0.028 A 
HETATM    4  C           1     -23.202  -4.344  -7.157  0.00  0.00     0.096 A 
HETATM    5  N           1     -23.676  -4.069  -8.413  0.00  0.00    -0.365 N 
HETATM    6  H           1     -24.676  -3.849  -8.642  0.00  0.00     0.165 HD
HETATM    7  C           1     -22.651  -4.122  -9.331  0.00  0.00     0.042 A 
HETATM    8  C           1     -21.489  -4.442  -8.629  0.00  0.00    -0.002 A 
HETATM    9  C           1     -22.665  -3.913 -10.715  0.00  0.00     0.030 A 
HETATM   10  C           1     -20.279  -4.562  -9.340  0.00  0.00     0.014 A 
HETATM   11  C           1     -20.275  -4.356 -10.724  0.00  0.00     0.001 A 
HETATM   12  C           1     -21.451  -4.037 -11.399  0.00  0.00     0.002 A 
ENDBRANCH   2   3
ENDBRANCH   1   2
BRANCH   1  13
HETATM   13  N           1     -21.662  -5.989  -4.035  0.00  0.00    -0.066 N 
HETATM   14  H           1     -21.035  -6.588  -3.450  0.00  0.00     0.275 HD
HETATM   15  H           1     -21.495  -4.984  -3.805  0.00  0.00     0.275 HD
HETATM   16  H           1     -22.659  -6.232  -3.837  0.00  0.00     0.275 HD
ENDBRANCH   1  13
BRANCH   1  17
HETATM   17  C           1     -20.272  -7.251  -5.618  0.00  0.00     0.249 C 
HETATM   18  O           1     -19.533  -7.227  -6.574  0.00  0.00    -0.271 OA
HETATM   19  N           1     -20.112  -8.210  -4.654  0.00  0.00    -0.345 N 
HETATM   20  H           1     -20.732  -8.231  -3.854  0.00  0.00     0.163 HD
BRANCH  19  21
HETATM   21  C           1     -19.057  -9.196  -4.780  0.00  0.00     0.181 C 
HETATM   22  C           1     -18.289  -9.290  -3.470  0.00  0.00     0.043 C 
BRANCH  21  23
HETATM   23  C           1     -19.662 -10.540  -5.105  0.00  0.00     0.196 C 
HETATM   24  O           1     -20.312 -10.694  -6.162  0.00  0.00    -0.646 OA
HETATM   25  O           1     -19.513 -11.499  -4.318  0.00  0.00    -0.646 OA
ENDBRANCH  21  23
ENDBRANCH  19  21
ENDBRANCH   1  17
TORSDOF 6
ENDMDL
MODEL 3
REMARK VINA RESULT:      -7.6     13.151     15.424
REMARK  6 active torsions:
REMARK  status: ('A' for Active; 'I' for Inactive)
REMARK    1  A    between atoms: C_1  and  C_21 
REMARK    2  A    between atoms: C_4  and  C_5 
REMARK    3  A    between atoms: C_5  and  C_23 
REMARK    4  A    between atoms: N_9  and  C_23 
REMARK    5  A    between atoms: C_21  and  N_22 
REMARK       I    between atoms: N_22  and  C_24 
REMARK    6  A    between atoms: C_23  and  C_24 
ROOT
HETATM    1  C           1     -36.019  -0.360 -11.141  0.00  0.00     0.278 C 
ENDROOT
BRANCH   1   2
HETATM    2  C           1     -36.193  -1.808 -10.703  0.00  0.00     0.083 C 
BRANCH   2   3
HETATM    3  C           1     -34.925  -2.562 -10.957  0.00  0.00    -0.028 A 
HETATM    4  C           1     -33.718  -2.018 -11.333  0.00  0.00     0.096 A 
HETATM    5  N           1     -32.819  -3.042 -11.463  0.00  0.00    -0.365 N 
HETATM    6  H           1     -31.813  -2.927 -11.739  0.00  0.00     0.165 HD
HETATM    7  C           1     -33.423  -4.246 -11.177  0.00  0.00     0.042 A 
HETATM    8  C           1     -34.753  -3.971 -10.856  0.00  0.00    -0.002 A 
HETATM    9  C           1     -32.900  -5.545 -11.180  0.00  0.00     0.030 A 
HETATM   10  C           1     -35.605  -5.041 -10.521  0.00  0.00     0.014 A 
HETATM   11  C           1     -35.098  -6.345 -10.517  0.00  0.00     0.001 A 
HETATM   12  C           1     -33.766  -6.591 -10.843  0.00  0.00     0.002 A 
ENDBRANCH   2   3
ENDBRANCH   1   2
BRANCH   1  13
HETATM   13  N           1     -36.729   0.543 -10.174  0.00  0.00    -0.066 N 
HETATM   14  H           1     -36.043   0.920  -9.481  0.00  0.00     0.275 HD
HETATM   15  H           1     -37.167   1.335 -10.696  0.00  0.00     0.275 HD
HETATM   16  H           1     -37.470   0.001  -9.674  0.00  0.00     0.275 HD
ENDBRANCH   1  13
BRANCH   1  17
HETATM   17  C           1     -36.602  -0.176 -12.520  0.00  0.00     0.249 C 
HETATM   18  O           1     -37.792  -0.300 -12.694  0.00  0.00    -0.271 OA
HETATM   19  N           1     -35.784   0.131 -13.574  0.00  0.00    -0.345 N 
HETATM   20  H           1     -34.788   0.234 -13.427  0.00  0.00     0.163 HD
BRANCH  19  21
HETATM   21  C           1     -36.346   0.307 -14.899  0.00  0.00     0.181 C 
HETATM   22  C           1     -35.856   1.622 -15.488  0.00  0.00     0.043 C 
BRANCH  21  23
HETATM   23  C           1     -35.908  -0.834 -15.785  0.00  0.00     0.196 C 
HETATM   24  O           1     -35.188  -1.745 -15.321  0.00  0.00    -0.646 OA
HETATM   25  O           1     -36.267  -0.869 -16.982  0.00  0.00    -0.646 OA
ENDBRANCH  21  23
ENDBRANCH  19  21
ENDBRANCH   1  17
TORSDOF 6
ENDMDL
MODEL 4
REMARK VINA RESULT:      -7.3      1.844      2.803
REMARK  6 active torsions:
REMARK  status: ('A' for Active; 'I' for Inactive)
REMARK    1  A    between atoms: C_1  and  C_21 
REMARK    2  A    between atoms: C_4  and  C_5 
REMARK    3  A    between atoms: C_5  and  C_23 
REMARK    4  A    between atoms: N_9  and  C_23 
REMARK    5  A    between atoms: C_21  and  N_22 
REMARK       I    between atoms: N_22  and  C_24 
REMARK    6  A    between atoms: C_23  and  C_24 
ROOT
HETATM    1  C           1     -21.432  -7.071  -5.171  0.00  0.00     0.278 C 
ENDROOT
BRANCH   1   2
HETATM    2  C           1     -20.443  -7.269  -4.030  0.00  0.00     0.083 C 
BRANCH   2   3
HETATM    3  C           1     -21.167  -7.198  -2.723  0.00  0.00    -0.028 A 
HETATM    4  C           1     -21.995  -6.180  -2.308  0.00  0.00     0.096 A 
HETATM    5  N           1     -22.455  -6.497  -1.058  0.00  0.00    -0.365 N 
HETATM    6  H           1     -23.109  -5.904  -0.490  0.00  0.00     0.165 HD
HETATM    7  C           1     -21.938  -7.707  -0.652  0.00  0.00     0.042 A 
HETATM    8  C           1     -21.121  -8.170  -1.685  0.00  0.00    -0.002 A 
HETATM    9  C           1     -22.128  -8.420   0.538  0.00  0.00     0.030 A 
HETATM   10  C           1     -20.460  -9.403  -1.525  0.00  0.00     0.014 A 
HETATM   11  C           1     -20.640 -10.128  -0.342  0.00  0.00     0.001 A 
HETATM   12  C           1     -21.461  -9.642   0.673  0.00  0.00     0.002 A 
ENDBRANCH   2   3
ENDBRANCH   1   2
BRANCH   1  13
HETATM   13  N           1     -21.315  -8.212  -6.138  0.00  0.00    -0.066 N 
HETATM   14  H           1     -20.617  -8.904  -5.779  0.00  0.00     0.275 HD
HETATM   15  H           1     -22.244  -8.678  -6.241  0.00  0.00     0.275 HD
HETATM   16  H           1     -21.000  -7.850  -7.067  0.00  0.00     0.275 HD
ENDBRANCH   1  13
BRANCH   1  17
HETATM   17  C           1     -21.127  -5.776  -5.884  0.00  0.00     0.249 C 
HETATM   18  O           1     -20.548  -4.889  -5.302  0.00  0.00    -0.271 OA
HETATM   19  N           1     -21.505  -5.607  -7.188  0.00  0.00    -0.345 N 
HETATM   20  H           1     -21.991  -6.350  -7.674  0.00  0.00     0.163 HD
BRANCH  19  21
HETATM   21  C           1     -21.212  -4.362  -7.872  0.00  0.00     0.181 C 
HETATM   22  C           1     -19.968  -4.536  -8.732  0.00  0.00     0.043 C 
BRANCH  21  23
HETATM   23  C           1     -22.380  -3.984  -8.748  0.00  0.00     0.196 C 
HETATM   24  O           1     -23.550  -4.158  -8.341  0.00  0.00    -0.646 OA
HETATM   25  O           1     -22.179  -3.495  -9.881  0.00  0.00    -0.646 OA
ENDBRANCH  21  23
ENDBRANCH  19  21
ENDBRANCH   1  17
TORSDOF 6
ENDMDL
MODEL 5
REMARK VINA RESULT:      -7.1      3.593      7.577
REMARK  6 active torsions:
REMARK  status: ('A' for Active; 'I' for Inactive)
REMARK    1  A    between atoms: C_1  and  C_21 
REMARK    2  A    between atoms: C_4  and  C_5 
REMARK    3  A    between atoms: C_5  and  C_23 
REMARK    4  A    between atoms: N_9  and  C_23 
REMARK    5  A    between atoms: C_21  and  N_22 
REMARK       I    between atoms: N_22  and  C_24 
REMARK    6  A    between atoms: C_23  and  C_24 
ROOT
HETATM    1  C           1     -20.908  -5.780  -5.452  0.00  0.00     0.278 C 
ENDROOT
BRANCH   1   2
HETATM    2  C           1     -20.508  -5.815  -6.921  0.00  0.00     0.083 C 
BRANCH   2   3
HETATM    3  C           1     -21.467  -4.989  -7.720  0.00  0.00    -0.028 A 
HETATM    4  C           1     -22.703  -4.551  -7.304  0.00  0.00     0.096 A 
HETATM    5  N           1     -23.260  -3.831  -8.328  0.00  0.00    -0.365 N 
HETATM    6  H           1     -24.203  -3.373  -8.296  0.00  0.00     0.165 HD
HETATM    7  C           1     -22.403  -3.795  -9.405  0.00  0.00     0.042 A 
HETATM    8  C           1     -21.265  -4.519  -9.047  0.00  0.00    -0.002 A 
HETATM    9  C           1     -22.547  -3.184 -10.656  0.00  0.00     0.030 A 
HETATM   10  C           1     -20.218  -4.640  -9.982  0.00  0.00     0.014 A 
HETATM   11  C           1     -20.346  -4.035 -11.237  0.00  0.00     0.001 A 
HETATM   12  C           1     -21.494  -3.318 -11.567  0.00  0.00     0.002 A 
ENDBRANCH   2   3
ENDBRANCH   1   2
BRANCH   1  13
HETATM   13  N           1     -20.126  -4.711  -4.747  0.00  0.00    -0.066 N 
HETATM   14  H           1     -19.626  -5.128  -3.928  0.00  0.00     0.275 HD
HETATM   15  H           1     -19.429  -4.298  -5.406  0.00  0.00     0.275 HD
HETATM   16  H           1     -20.778  -3.965  -4.415  0.00  0.00     0.275 HD
ENDBRANCH   1  13
BRANCH   1  17
HETATM   17  C           1     -20.616  -7.117  -4.818  0.00  0.00     0.249 C 
HETATM   18  O           1     -20.873  -7.301  -3.651  0.00  0.00    -0.271 OA
HETATM   19  N           1     -20.060  -8.121  -5.563  0.00  0.00    -0.345 N 
HETATM   20  H           1     -19.844  -7.967  -6.539  0.00  0.00     0.163 HD
BRANCH  19  21
HETATM   21  C           1     -19.779  -9.406  -4.952  0.00  0.00     0.181 C 
HETATM   22  C           1     -20.862 -10.402  -5.343  0.00  0.00     0.043 C 
BRANCH  21  23
HETATM   23  C           1     -18.439  -9.907  -5.431  0.00  0.00     0.196 C 
HETATM   24  O           1     -17.442  -9.843  -4.679  0.00  0.00    -0.646 OA
HETATM   25  O           1     -18.325 -10.388  -6.579  0.00  0.00    -0.646 OA
ENDBRANCH  21  23
ENDBRANCH  19  21
ENDBRANCH   1  17
TORSDOF 6
ENDMDL
MODEL 6
REMARK VINA RESULT:      -7.1      1.883      2.957
REMARK  6 active torsions:
REMARK  status: ('A' for Active; 'I' for Inactive)
REMARK    1  A    between atoms: C_1  and  C_21 
REMARK    2  A    between atoms: C_4  and  C_5 
REMARK    3  A    between atoms: C_5  and  C_23 
REMARK    4  A    between atoms: N_9  and  C_23 
REMARK    5  A    between atoms: C_21  and  N_22 
REMARK       I    between atoms: N_22  and  C_24 
REMARK    6  A    between atoms: C_23  and  C_24 
ROOT
HETATM    1  C           1     -21.030  -7.910  -4.863  0.00  0.00     0.278 C 
ENDROOT
BRANCH   1   2
HETATM    2  C           1     -19.749  -8.199  -4.093  0.00  0.00     0.083 C 
BRANCH   2   3
HETATM    3  C           1     -20.082  -8.894  -2.810  0.00  0.00    -0.028 A 
HETATM    4  C           1     -19.610 -10.121  -2.406  0.00  0.00     0.096 A 
HETATM    5  N           1     -20.154 -10.397  -1.179  0.00  0.00    -0.365 N 
HETATM    6  H           1     -19.971 -11.268  -0.623  0.00  0.00     0.165 HD
HETATM    7  C           1     -20.974  -9.365  -0.780  0.00  0.00     0.042 A 
HETATM    8  C           1     -20.947  -8.405  -1.792  0.00  0.00    -0.002 A 
HETATM    9  C           1     -21.732  -9.211   0.388  0.00  0.00     0.030 A 
HETATM   10  C           1     -21.712  -7.233  -1.634  0.00  0.00     0.014 A 
HETATM   11  C           1     -22.474  -7.063  -0.473  0.00  0.00     0.001 A 
HETATM   12  C           1     -22.482  -8.039   0.521  0.00  0.00     0.002 A 
ENDBRANCH   2   3
ENDBRANCH   1   2
BRANCH   1  13
HETATM   13  N           1     -21.183  -8.911  -5.971  0.00  0.00    -0.066 N 
HETATM   14  H           1     -20.981  -9.870  -5.606  0.00  0.00     0.275 HD
HETATM   15  H           1     -22.162  -8.878  -6.337  0.00  0.00     0.275 HD
HETATM   16  H           1     -20.514  -8.682  -6.741  0.00  0.00     0.275 HD
ENDBRANCH   1  13
BRANCH   1  17
HETATM   17  C           1     -20.966  -6.521  -5.447  0.00  0.00     0.249 C 
HETATM   18  O           1     -20.871  -5.563  -4.717  0.00  0.00    -0.271 OA
HETATM   19  N           1     -21.014  -6.345  -6.804  0.00  0.00    -0.345 N 
HETATM   20  H           1     -21.094  -7.148  -7.415  0.00  0.00     0.163 HD
BRANCH  19  21
HETATM   21  C           1     -20.952  -5.009  -7.364  0.00  0.00     0.181 C 
HETATM   22  C           1     -19.964  -4.989  -8.521  0.00  0.00     0.043 C 
BRANCH  21  23
HETATM   23  C           1     -22.319  -4.611  -7.864  0.00  0.00     0.196 C 
HETATM   24  O           1     -22.499  -4.383  -9.080  0.00  0.00    -0.646 OA
HETATM   25  O           1     -23.273  -4.510  -7.062  0.00  0.00    -0.646 OA
ENDBRANCH  21  23
ENDBRANCH  19  21
ENDBRANCH   1  17
TORSDOF 6
ENDMDL
MODEL 7
REMARK VINA RESULT:      -7.0      3.275      4.697
REMARK  6 active torsions:
REMARK  status: ('A' for Active; 'I' for Inactive)
REMARK    1  A    between atoms: C_1  and  C_21 
REMARK    2  A    between atoms: C_4  and  C_5 
REMARK    3  A    between atoms: C_5  and  C_23 
REMARK    4  A    between atoms: N_9  and  C_23 
REMARK    5  A    between atoms: C_21  and  N_22 
REMARK       I    between atoms: N_22  and  C_24 
REMARK    6  A    between atoms: C_23  and  C_24 
ROOT
HETATM    1  C           1     -19.155  -9.930  -4.333  0.00  0.00     0.278 C 
ENDROOT
BRANCH   1   2
HETATM    2  C           1     -18.852  -9.192  -3.036  0.00  0.00     0.083 C 
BRANCH   2   3
HETATM    3  C           1     -19.840  -9.599  -1.987  0.00  0.00    -0.028 A 
HETATM    4  C           1     -19.930 -10.837  -1.394  0.00  0.00     0.096 A 
HETATM    5  N           1     -20.961 -10.797  -0.493  0.00  0.00    -0.365 N 
HETATM    6  H           1     -21.263 -11.600   0.110  0.00  0.00     0.165 HD
HETATM    7  C           1     -21.543  -9.549  -0.492  0.00  0.00     0.042 A 
HETATM    8  C           1     -20.855  -8.775  -1.426  0.00  0.00    -0.002 A 
HETATM    9  C           1     -22.617  -9.052   0.257  0.00  0.00     0.030 A 
HETATM   10  C           1     -21.254  -7.439  -1.626  0.00  0.00     0.014 A 
HETATM   11  C           1     -22.325  -6.926  -0.886  0.00  0.00     0.001 A 
HETATM   12  C           1     -22.995  -7.722   0.041  0.00  0.00     0.002 A 
ENDBRANCH   2   3
ENDBRANCH   1   2
BRANCH   1  13
HETATM   13  N           1     -17.891 -10.085  -5.126  0.00  0.00    -0.066 N 
HETATM   14  H           1     -17.927 -10.978  -5.669  0.00  0.00     0.275 HD
HETATM   15  H           1     -17.794  -9.281  -5.787  0.00  0.00     0.275 HD
HETATM   16  H           1     -17.073 -10.105  -4.476  0.00  0.00     0.275 HD
ENDBRANCH   1  13
BRANCH   1  17
HETATM   17  C           1     -20.159  -9.143  -5.138  0.00  0.00     0.249 C 
HETATM   18  O           1     -20.973  -9.722  -5.820  0.00  0.00    -0.271 OA
HETATM   19  N           1     -20.149  -7.775  -5.097  0.00  0.00    -0.345 N 
HETATM   20  H           1     -19.467  -7.291  -4.526  0.00  0.00     0.163 HD
BRANCH  19  21
HETATM   21  C           1     -21.115  -7.020  -5.871  0.00  0.00     0.181 C 
HETATM   22  C           1     -22.194  -6.476  -4.946  0.00  0.00     0.043 C 
BRANCH  21  23
HETATM   23  C           1     -20.418  -5.872  -6.560  0.00  0.00     0.196 C 
HETATM   24  O           1     -20.090  -5.971  -7.763  0.00  0.00    -0.646 OA
HETATM   25  O           1     -20.170  -4.822  -5.929  0.00  0.00    -0.646 OA
ENDBRANCH  21  23
ENDBRANCH  19  21
ENDBRANCH   1  17
TORSDOF 6
ENDMDL
MODEL 8
REMARK VINA RESULT:      -6.9      1.572      2.411
REMARK  6 active torsions:
REMARK  status: ('A' for Active; 'I' for Inactive)
REMARK    1  A    between atoms: C_1  and  C_21 
REMARK    2  A    between atoms: C_4  and  C_5 
REMARK    3  A    between atoms: C_5  and  C_23 
REMARK    4  A    between atoms: N_9  and  C_23 
REMARK    5  A    between atoms: C_21  and  N_22 
REMARK       I    between atoms: N_22  and  C_24 
REMARK    6  A    between atoms: C_23  and  C_24 
ROOT
HETATM    1  C           1     -20.827  -5.330  -6.401  0.00  0.00     0.278 C 
ENDROOT
BRANCH   1   2
HETATM    2  C           1     -22.022  -5.980  -5.716  0.00  0.00     0.083 C 
BRANCH   2   3
HETATM    3  C           1     -21.581  -6.607  -4.430  0.00  0.00    -0.028 A 
HETATM    4  C           1     -22.035  -6.283  -3.173  0.00  0.00     0.096 A 
HETATM    5  N           1     -21.383  -7.084  -2.273  0.00  0.00    -0.365 N 
HETATM    6  H           1     -21.528  -7.062  -1.233  0.00  0.00     0.165 HD
HETATM    7  C           1     -20.511  -7.925  -2.928  0.00  0.00     0.042 A 
HETATM    8  C           1     -20.617  -7.643  -4.290  0.00  0.00    -0.002 A 
HETATM    9  C           1     -19.645  -8.902  -2.423  0.00  0.00     0.030 A 
HETATM   10  C           1     -19.820  -8.370  -5.196  0.00  0.00     0.014 A 
HETATM   11  C           1     -18.950  -9.351  -4.709  0.00  0.00     0.001 A 
HETATM   12  C           1     -18.865  -9.611  -3.342  0.00  0.00     0.002 A 
ENDBRANCH   2   3
ENDBRANCH   1   2
BRANCH   1  13
HETATM   13  N           1     -20.018  -4.578  -5.385  0.00  0.00    -0.066 N 
HETATM   14  H           1     -19.763  -3.639  -5.768  0.00  0.00     0.275 HD
HETATM   15  H           1     -20.581  -4.456  -4.513  0.00  0.00     0.275 HD
HETATM   16  H           1     -19.148  -5.115  -5.167  0.00  0.00     0.275 HD
ENDBRANCH   1  13
BRANCH   1  17
HETATM   17  C           1     -21.313  -4.374  -7.462  0.00  0.00     0.249 C 
HETATM   18  O           1     -21.478  -3.207  -7.194  0.00  0.00    -0.271 OA
HETATM   19  N           1     -21.565  -4.828  -8.728  0.00  0.00    -0.345 N 
HETATM   20  H           1     -21.427  -5.805  -8.952  0.00  0.00     0.163 HD
BRANCH  19  21
HETATM   21  C           1     -22.032  -3.909  -9.748  0.00  0.00     0.181 C 
HETATM   22  C           1     -20.978  -3.782 -10.839  0.00  0.00     0.043 C 
BRANCH  21  23
HETATM   23  C           1     -23.314  -4.432 -10.347  0.00  0.00     0.196 C 
HETATM   24  O           1     -23.399  -4.617 -11.580  0.00  0.00    -0.646 OA
HETATM   25  O           1     -24.292  -4.683  -9.609  0.00  0.00    -0.646 OA
ENDBRANCH  21  23
ENDBRANCH  19  21
ENDBRANCH   1  17
TORSDOF 6
ENDMDL
MODEL 9
REMARK VINA RESULT:      -6.8     13.133     14.957
REMARK  6 active torsions:
REMARK  status: ('A' for Active; 'I' for Inactive)
REMARK    1  A    between atoms: C_1  and  C_21 
REMARK    2  A    between atoms: C_4  and  C_5 
REMARK    3  A    between atoms: C_5  and  C_23 
REMARK    4  A    between atoms: N_9  and  C_23 
REMARK    5  A    between atoms: C_21  and  N_22 
REMARK       I    between atoms: N_22  and  C_24 
REMARK    6  A    between atoms: C_23  and  C_24 
ROOT
HETATM    1  C           1     -27.639  -6.901 -18.611  0.00  0.00     0.278 C 
ENDROOT
BRANCH   1   2
HETATM    2  C           1     -26.778  -6.315 -19.723  0.00  0.00     0.083 C 
BRANCH   2   3
HETATM    3  C           1     -25.385  -6.852 -19.613  0.00  0.00    -0.028 A 
HETATM    4  C           1     -24.630  -6.919 -18.464  0.00  0.00     0.096 A 
HETATM    5  N           1     -23.420  -7.471 -18.790  0.00  0.00    -0.365 N 
HETATM    6  H           1     -22.638  -7.647 -18.113  0.00  0.00     0.165 HD
HETATM    7  C           1     -23.377  -7.764 -20.135  0.00  0.00     0.042 A 
HETATM    8  C           1     -24.604  -7.383 -20.677  0.00  0.00    -0.002 A 
HETATM    9  C           1     -22.354  -8.332 -20.905  0.00  0.00     0.030 A 
HETATM   10  C           1     -24.826  -7.575 -22.054  0.00  0.00     0.014 A 
HETATM   11  C           1     -23.816  -8.141 -22.839  0.00  0.00     0.001 A 
HETATM   12  C           1     -22.599  -8.513 -22.271  0.00  0.00     0.002 A 
ENDBRANCH   2   3
ENDBRANCH   1   2
BRANCH   1  13
HETATM   13  N           1     -28.820  -7.605 -19.213  0.00  0.00    -0.066 N 
HETATM   14  H           1     -29.088  -8.415 -18.608  0.00  0.00     0.275 HD
HETATM   15  H           1     -29.623  -6.941 -19.280  0.00  0.00     0.275 HD
HETATM   16  H           1     -28.570  -7.950 -20.167  0.00  0.00     0.275 HD
ENDBRANCH   1  13
BRANCH   1  17
HETATM   17  C           1     -28.121  -5.793 -17.709  0.00  0.00     0.249 C 
HETATM   18  O           1     -27.435  -5.427 -16.783  0.00  0.00    -0.271 OA
HETATM   19  N           1     -29.334  -5.202 -17.938  0.00  0.00    -0.345 N 
HETATM   20  H           1     -29.908  -5.509 -18.714  0.00  0.00     0.163 HD
BRANCH  19  21
HETATM   21  C           1     -29.797  -4.136 -17.070  0.00  0.00     0.181 C 
HETATM   22  C           1     -29.085  -2.841 -17.432  0.00  0.00     0.043 C 
BRANCH  21  23
HETATM   23  C           1     -31.285  -3.958 -17.244  0.00  0.00     0.196 C 
HETATM   24  O           1     -32.077  -4.779 -16.732  0.00  0.00    -0.646 OA
HETATM   25  O           1     -31.726  -2.990 -17.900  0.00  0.00    -0.646 OA
ENDBRANCH  21  23
ENDBRANCH  19  21
ENDBRANCH   1  17
TORSDOF 6
ENDMDL
