MODEL 1
REMARK VINA RESULT:      -5.4      0.000      0.000
REMARK  6 active torsions:
REMARK  status: ('A' for Active; 'I' for Inactive)
REMARK       I    between atoms: C_1  and  N_3 
REMARK    1  A    between atoms: C_1  and  C_2 
REMARK    2  A    between atoms: C_2  and  C_9 
REMARK    3  A    between atoms: C_2  and  N_6 
REMARK    4  A    between atoms: N_3  and  C_4 
REMARK    5  A    between atoms: C_4  and  C_14 
REMARK    6  A    between atoms: C_9  and  O_11 
ROOT
HETATM    1  C           1     -30.523  -5.847 -17.463  0.00  0.00     0.302 C 
ENDROOT
BRANCH   1   2
HETATM    2  C           1     -29.501  -6.810 -16.911  0.00  0.00     0.251 C 
HETATM    3  N           1     -28.599  -6.387 -15.972  0.00  0.00    -0.349 N 
HETATM    4  H           1     -28.618  -5.428 -15.648  0.00  0.00     0.163 HD
HETATM    5  O           1     -29.479  -7.953 -17.298  0.00  0.00    -0.271 OA
BRANCH   3   6
HETATM    6  C           1     -27.617  -7.312 -15.441  0.00  0.00     0.235 C 
BRANCH   6   7
HETATM    7  C           1     -26.231  -6.840 -15.806  0.00  0.00     0.191 C 
HETATM    8  O           1     -25.231  -7.499 -15.447  0.00  0.00    -0.647 OA
HETATM    9  O           1     -26.083  -5.789 -16.467  0.00  0.00    -0.647 OA
ENDBRANCH   6   7
ENDBRANCH   3   6
ENDBRANCH   1   2
BRANCH   1  10
HETATM   10  C           1     -29.818  -4.770 -18.277  0.00  0.00     0.153 C 
HETATM   11  C           1     -29.878  -3.446 -17.527  0.00  0.00     0.042 C 
BRANCH  10  12
HETATM   12  O           1     -28.479  -5.134 -18.475  0.00  0.00    -0.393 OA
HETATM   13  H           1     -27.960  -4.362 -18.323  0.00  0.00     0.210 HD
ENDBRANCH  10  12
ENDBRANCH   1  10
BRANCH   1  14
HETATM   14  N           1     -31.270  -5.207 -16.330  0.00  0.00    -0.064 N 
HETATM   15  H           1     -32.282  -5.459 -16.394  0.00  0.00     0.275 HD
HETATM   16  H           1     -30.883  -5.548 -15.421  0.00  0.00     0.275 HD
HETATM   17  H           1     -31.165  -4.169 -16.387  0.00  0.00     0.275 HD
ENDBRANCH   1  14
TORSDOF 6
ENDMDL
MODEL 2
REMARK VINA RESULT:      -5.2      1.743      2.356
REMARK  6 active torsions:
REMARK  status: ('A' for Active; 'I' for Inactive)
REMARK       I    between atoms: C_1  and  N_3 
REMARK    1  A    between atoms: C_1  and  C_2 
REMARK    2  A    between atoms: C_2  and  C_9 
REMARK    3  A    between atoms: C_2  and  N_6 
REMARK    4  A    between atoms: N_3  and  C_4 
REMARK    5  A    between atoms: C_4  and  C_14 
REMARK    6  A    between atoms: C_9  and  O_11 
ROOT
HETATM    1  C           1     -30.108  -3.934 -16.972  0.00  0.00     0.302 C 
ENDROOT
BRANCH   1   2
HETATM    2  C           1     -28.941  -4.811 -17.355  0.00  0.00     0.251 C 
HETATM    3  N           1     -27.995  -5.138 -16.420  0.00  0.00    -0.349 N 
HETATM    4  H           1     -28.079  -4.791 -15.473  0.00  0.00     0.163 HD
HETATM    5  O           1     -28.842  -5.225 -18.484  0.00  0.00    -0.271 OA
BRANCH   3   6
HETATM    6  C           1     -26.874  -5.980 -16.787  0.00  0.00     0.235 C 
BRANCH   6   7
HETATM    7  C           1     -26.683  -7.049 -15.739  0.00  0.00     0.191 C 
HETATM    8  O           1     -27.670  -7.505 -15.123  0.00  0.00    -0.647 OA
HETATM    9  O           1     -25.536  -7.478 -15.487  0.00  0.00    -0.647 OA
ENDBRANCH   6   7
ENDBRANCH   3   6
ENDBRANCH   1   2
BRANCH   1  10
HETATM   10  C           1     -31.221  -4.794 -16.390  0.00  0.00     0.153 C 
HETATM   11  C           1     -32.566  -4.306 -16.912  0.00  0.00     0.042 C 
BRANCH  10  12
HETATM   12  O           1     -31.029  -6.129 -16.771  0.00  0.00    -0.393 OA
HETATM   13  H           1     -30.099  -6.262 -16.845  0.00  0.00     0.210 HD
ENDBRANCH  10  12
ENDBRANCH   1  10
BRANCH   1  14
HETATM   14  N           1     -30.615  -3.218 -18.189  0.00  0.00    -0.064 N 
HETATM   15  H           1     -31.279  -3.837 -18.707  0.00  0.00     0.275 HD
HETATM   16  H           1     -31.108  -2.344 -17.898  0.00  0.00     0.275 HD
HETATM   17  H           1     -29.810  -2.974 -18.810  0.00  0.00     0.275 HD
ENDBRANCH   1  14
TORSDOF 6
ENDMDL
MODEL 3
REMARK VINA RESULT:      -5.0      9.078     11.405
REMARK  6 active torsions:
REMARK  status: ('A' for Active; 'I' for Inactive)
REMARK       I    between atoms: C_1  and  N_3 
REMARK    1  A    between atoms: C_1  and  C_2 
REMARK    2  A    between atoms: C_2  and  C_9 
REMARK    3  A    between atoms: C_2  and  N_6 
REMARK    4  A    between atoms: N_3  and  C_4 
REMARK    5  A    between atoms: C_4  and  C_14 
REMARK    6  A    between atoms: C_9  and  O_11 
ROOT
HETATM    1  C           1     -20.484  -5.034  -8.187  0.00  0.00     0.302 C 
ENDROOT
BRANCH   1   2
HETATM    2  C           1     -21.258  -4.498  -9.366  0.00  0.00     0.251 C 
HETATM    3  N           1     -22.529  -4.946  -9.611  0.00  0.00    -0.349 N 
HETATM    4  H           1     -22.948  -5.636  -9.001  0.00  0.00     0.163 HD
HETATM    5  O           1     -20.757  -3.675 -10.093  0.00  0.00    -0.271 OA
BRANCH   3   6
HETATM    6  C           1     -23.273  -4.431 -10.743  0.00  0.00     0.235 C 
BRANCH   6   7
HETATM    7  C           1     -24.387  -3.541 -10.251  0.00  0.00     0.191 C 
HETATM    8  O           1     -25.277  -3.158 -11.042  0.00  0.00    -0.647 OA
HETATM    9  O           1     -24.421  -3.186  -9.053  0.00  0.00    -0.647 OA
ENDBRANCH   6   7
ENDBRANCH   3   6
ENDBRANCH   1   2
BRANCH   1  10
HETATM   10  C           1     -21.302  -4.852  -6.916  0.00  0.00     0.153 C 
HETATM   11  C           1     -20.365  -4.643  -5.734  0.00  0.00     0.042 C 
BRANCH  10  12
HETATM   12  O           1     -22.136  -3.734  -7.053  0.00  0.00    -0.393 OA
HETATM   13  H           1     -22.743  -3.928  -7.747  0.00  0.00     0.210 HD
ENDBRANCH  10  12
ENDBRANCH   1  10
BRANCH   1  14
HETATM   14  N           1     -19.189  -4.287  -8.058  0.00  0.00    -0.064 N 
HETATM   15  H           1     -19.127  -3.563  -8.809  0.00  0.00     0.275 HD
HETATM   16  H           1     -19.146  -3.823  -7.123  0.00  0.00     0.275 HD
HETATM   17  H           1     -18.391  -4.956  -8.153  0.00  0.00     0.275 HD
ENDBRANCH   1  14
TORSDOF 6
ENDMDL
MODEL 4
REMARK VINA RESULT:      -4.9      9.226     11.462
REMARK  6 active torsions:
REMARK  status: ('A' for Active; 'I' for Inactive)
REMARK       I    between atoms: C_1  and  N_3 
REMARK    1  A    between atoms: C_1  and  C_2 
REMARK    2  A    between atoms: C_2  and  C_9 
REMARK    3  A    between atoms: C_2  and  N_6 
REMARK    4  A    between atoms: N_3  and  C_4 
REMARK    5  A    between atoms: C_4  and  C_14 
REMARK    6  A    between atoms: C_9  and  O_11 
ROOT
HETATM    1  C           1     -21.076  -4.819  -6.969  0.00  0.00     0.302 C 
ENDROOT
BRANCH   1   2
HETATM    2  C           1     -22.479  -4.434  -7.368  0.00  0.00     0.251 C 
HETATM    3  N           1     -22.693  -3.732  -8.525  0.00  0.00    -0.349 N 
HETATM    4  H           1     -21.911  -3.473  -9.112  0.00  0.00     0.163 HD
HETATM    5  O           1     -23.412  -4.743  -6.668  0.00  0.00    -0.271 OA
BRANCH   3   6
HETATM    6  C           1     -24.041  -3.362  -8.909  0.00  0.00     0.235 C 
BRANCH   6   7
HETATM    7  C           1     -24.190  -3.483 -10.405  0.00  0.00     0.191 C 
HETATM    8  O           1     -23.222  -3.857 -11.103  0.00  0.00    -0.647 OA
HETATM    9  O           1     -25.283  -3.211 -10.948  0.00  0.00    -0.647 OA
ENDBRANCH   6   7
ENDBRANCH   3   6
ENDBRANCH   1   2
BRANCH   1  10
HETATM   10  C           1     -20.080  -4.170  -7.921  0.00  0.00     0.153 C 
HETATM   11  C           1     -18.674  -4.304  -7.353  0.00  0.00     0.042 C 
BRANCH  10  12
HETATM   12  O           1     -20.141  -4.807  -9.168  0.00  0.00    -0.393 OA
HETATM   13  H           1     -20.476  -4.175  -9.782  0.00  0.00     0.210 HD
ENDBRANCH  10  12
ENDBRANCH   1  10
BRANCH   1  14
HETATM   14  N           1     -20.929  -6.310  -7.034  0.00  0.00    -0.064 N 
HETATM   15  H           1     -20.144  -6.556  -7.677  0.00  0.00     0.275 HD
HETATM   16  H           1     -20.727  -6.682  -6.079  0.00  0.00     0.275 HD
HETATM   17  H           1     -21.817  -6.732  -7.392  0.00  0.00     0.275 HD
ENDBRANCH   1  14
TORSDOF 6
ENDMDL
MODEL 5
REMARK VINA RESULT:      -4.7      9.592     11.513
REMARK  6 active torsions:
REMARK  status: ('A' for Active; 'I' for Inactive)
REMARK       I    between atoms: C_1  and  N_3 
REMARK    1  A    between atoms: C_1  and  C_2 
REMARK    2  A    between atoms: C_2  and  C_9 
REMARK    3  A    between atoms: C_2  and  N_6 
REMARK    4  A    between atoms: N_3  and  C_4 
REMARK    5  A    between atoms: C_4  and  C_14 
REMARK    6  A    between atoms: C_9  and  O_11 
ROOT
HETATM    1  C           1     -22.129  -3.623  -9.289  0.00  0.00     0.302 C 
ENDROOT
BRANCH   1   2
HETATM    2  C           1     -21.476  -4.085  -8.010  0.00  0.00     0.251 C 
HETATM    3  N           1     -21.062  -5.384  -7.882  0.00  0.00    -0.349 N 
HETATM    4  H           1     -21.194  -6.034  -8.647  0.00  0.00     0.163 HD
HETATM    5  O           1     -21.318  -3.309  -7.098  0.00  0.00    -0.271 OA
BRANCH   3   6
HETATM    6  C           1     -20.434  -5.828  -6.654  0.00  0.00     0.235 C 
BRANCH   6   7
HETATM    7  C           1     -21.416  -6.645  -5.852  0.00  0.00     0.191 C 
HETATM    8  O           1     -22.271  -6.074  -5.140  0.00  0.00    -0.647 OA
HETATM    9  O           1     -21.376  -7.894  -5.900  0.00  0.00    -0.647 OA
ENDBRANCH   6   7
ENDBRANCH   3   6
ENDBRANCH   1   2
BRANCH   1  10
HETATM   10  C           1     -23.640  -3.768  -9.169  0.00  0.00     0.153 C 
HETATM   11  C           1     -24.129  -4.819 -10.157  0.00  0.00     0.042 C 
BRANCH  10  12
HETATM   12  O           1     -23.970  -4.165  -7.865  0.00  0.00    -0.393 OA
HETATM   13  H           1     -23.164  -4.397  -7.437  0.00  0.00     0.210 HD
ENDBRANCH  10  12
ENDBRANCH   1  10
BRANCH   1  14
HETATM   14  N           1     -21.637  -4.460 -10.432  0.00  0.00    -0.064 N 
HETATM   15  H           1     -21.904  -4.009 -11.335  0.00  0.00     0.275 HD
HETATM   16  H           1     -20.596  -4.543 -10.379  0.00  0.00     0.275 HD
HETATM   17  H           1     -22.066  -5.412 -10.377  0.00  0.00     0.275 HD
ENDBRANCH   1  14
TORSDOF 6
ENDMDL
MODEL 6
REMARK VINA RESULT:      -4.7      9.527     11.919
REMARK  6 active torsions:
REMARK  status: ('A' for Active; 'I' for Inactive)
REMARK       I    between atoms: C_1  and  N_3 
REMARK    1  A    between atoms: C_1  and  C_2 
REMARK    2  A    between atoms: C_2  and  C_9 
REMARK    3  A    between atoms: C_2  and  N_6 
REMARK    4  A    between atoms: N_3  and  C_4 
REMARK    5  A    between atoms: C_4  and  C_14 
REMARK    6  A    between atoms: C_9  and  O_11 
ROOT
HETATM    1  C           1     -20.715  -5.540  -7.456  0.00  0.00     0.302 C 
ENDROOT
BRANCH   1   2
HETATM    2  C           1     -21.672  -4.425  -7.798  0.00  0.00     0.251 C 
HETATM    3  N           1     -22.680  -4.640  -8.699  0.00  0.00    -0.349 N 
HETATM    4  H           1     -22.783  -5.547  -9.136  0.00  0.00     0.163 HD
HETATM    5  O           1     -21.549  -3.343  -7.276  0.00  0.00    -0.271 OA
BRANCH   3   6
HETATM    6  C           1     -23.600  -3.569  -9.027  0.00  0.00     0.235 C 
BRANCH   6   7
HETATM    7  C           1     -24.059  -3.719 -10.457  0.00  0.00     0.191 C 
HETATM    8  O           1     -23.350  -4.338 -11.280  0.00  0.00    -0.647 OA
HETATM    9  O           1     -25.148  -3.225 -10.818  0.00  0.00    -0.647 OA
ENDBRANCH   6   7
ENDBRANCH   3   6
ENDBRANCH   1   2
BRANCH   1  10
HETATM   10  C           1     -21.337  -6.437  -6.395  0.00  0.00     0.153 C 
HETATM   11  C           1     -20.248  -6.951  -5.463  0.00  0.00     0.042 C 
BRANCH  10  12
HETATM   12  O           1     -22.276  -5.705  -5.655  0.00  0.00    -0.393 OA
HETATM   13  H           1     -22.671  -5.088  -6.248  0.00  0.00     0.210 HD
ENDBRANCH  10  12
ENDBRANCH   1  10
BRANCH   1  14
HETATM   14  N           1     -19.436  -4.958  -6.931  0.00  0.00    -0.064 N 
HETATM   15  H           1     -19.626  -4.446  -6.040  0.00  0.00     0.275 HD
HETATM   16  H           1     -18.751  -5.727  -6.752  0.00  0.00     0.275 HD
HETATM   17  H           1     -19.040  -4.295  -7.636  0.00  0.00     0.275 HD
ENDBRANCH   1  14
TORSDOF 6
ENDMDL
MODEL 7
REMARK VINA RESULT:      -4.7      8.698     10.603
REMARK  6 active torsions:
REMARK  status: ('A' for Active; 'I' for Inactive)
REMARK       I    between atoms: C_1  and  N_3 
REMARK    1  A    between atoms: C_1  and  C_2 
REMARK    2  A    between atoms: C_2  and  C_9 
REMARK    3  A    between atoms: C_2  and  N_6 
REMARK    4  A    between atoms: N_3  and  C_4 
REMARK    5  A    between atoms: C_4  and  C_14 
REMARK    6  A    between atoms: C_9  and  O_11 
ROOT
HETATM    1  C           1     -21.994  -3.622 -10.701  0.00  0.00     0.302 C 
ENDROOT
BRANCH   1   2
HETATM    2  C           1     -21.174  -4.084  -9.522  0.00  0.00     0.251 C 
HETATM    3  N           1     -21.617  -3.854  -8.247  0.00  0.00    -0.349 N 
HETATM    4  H           1     -22.495  -3.374  -8.096  0.00  0.00     0.163 HD
HETATM    5  O           1     -20.126  -4.657  -9.702  0.00  0.00    -0.271 OA
BRANCH   3   6
HETATM    6  C           1     -20.830  -4.298  -7.114  0.00  0.00     0.235 C 
BRANCH   6   7
HETATM    7  C           1     -21.396  -5.592  -6.582  0.00  0.00     0.191 C 
HETATM    8  O           1     -20.941  -6.685  -6.983  0.00  0.00    -0.647 OA
HETATM    9  O           1     -22.320  -5.570  -5.741  0.00  0.00    -0.647 OA
ENDBRANCH   6   7
ENDBRANCH   3   6
ENDBRANCH   1   2
BRANCH   1  10
HETATM   10  C           1     -23.197  -4.539 -10.874  0.00  0.00     0.153 C 
HETATM   11  C           1     -24.448  -3.837 -10.361  0.00  0.00     0.042 C 
BRANCH  10  12
HETATM   12  O           1     -23.359  -4.848 -12.231  0.00  0.00    -0.393 OA
HETATM   13  H           1     -23.650  -5.743 -12.276  0.00  0.00     0.210 HD
ENDBRANCH  10  12
ENDBRANCH   1  10
BRANCH   1  14
HETATM   14  N           1     -21.152  -3.664 -11.942  0.00  0.00    -0.064 N 
HETATM   15  H           1     -21.447  -4.470 -12.537  0.00  0.00     0.275 HD
HETATM   16  H           1     -21.276  -2.774 -12.477  0.00  0.00     0.275 HD
HETATM   17  H           1     -20.147  -3.774 -11.677  0.00  0.00     0.275 HD
ENDBRANCH   1  14
TORSDOF 6
ENDMDL
MODEL 8
REMARK VINA RESULT:      -4.6      9.121     10.842
REMARK  6 active torsions:
REMARK  status: ('A' for Active; 'I' for Inactive)
REMARK       I    between atoms: C_1  and  N_3 
REMARK    1  A    between atoms: C_1  and  C_2 
REMARK    2  A    between atoms: C_2  and  C_9 
REMARK    3  A    between atoms: C_2  and  N_6 
REMARK    4  A    between atoms: N_3  and  C_4 
REMARK    5  A    between atoms: C_4  and  C_14 
REMARK    6  A    between atoms: C_9  and  O_11 
ROOT
HETATM    1  C           1     -23.759  -4.351  -9.182  0.00  0.00     0.302 C 
ENDROOT
BRANCH   1   2
HETATM    2  C           1     -22.901  -4.340  -7.941  0.00  0.00     0.251 C 
HETATM    3  N           1     -21.549  -4.150  -8.046  0.00  0.00    -0.349 N 
HETATM    4  H           1     -21.126  -4.016  -8.955  0.00  0.00     0.163 HD
HETATM    5  O           1     -23.406  -4.499  -6.856  0.00  0.00    -0.271 OA
BRANCH   3   6
HETATM    6  C           1     -20.724  -4.138  -6.854  0.00  0.00     0.235 C 
BRANCH   6   7
HETATM    7  C           1     -20.304  -5.548  -6.518  0.00  0.00     0.191 C 
HETATM    8  O           1     -20.415  -5.972  -5.347  0.00  0.00    -0.647 OA
HETATM    9  O           1     -19.845  -6.293  -7.411  0.00  0.00    -0.647 OA
ENDBRANCH   6   7
ENDBRANCH   3   6
ENDBRANCH   1   2
BRANCH   1  10
HETATM   10  C           1     -22.868  -4.331 -10.417  0.00  0.00     0.153 C 
HETATM   11  C           1     -23.565  -5.059 -11.558  0.00  0.00     0.042 C 
BRANCH  10  12
HETATM   12  O           1     -22.621  -3.004 -10.793  0.00  0.00    -0.393 OA
HETATM   13  H           1     -21.852  -3.012 -11.338  0.00  0.00     0.210 HD
ENDBRANCH  10  12
ENDBRANCH   1  10
BRANCH   1  14
HETATM   14  N           1     -24.647  -3.143  -9.187  0.00  0.00    -0.064 N 
HETATM   15  H           1     -24.071  -2.287  -9.352  0.00  0.00     0.275 HD
HETATM   16  H           1     -25.358  -3.236  -9.947  0.00  0.00     0.275 HD
HETATM   17  H           1     -25.132  -3.064  -8.264  0.00  0.00     0.275 HD
ENDBRANCH   1  14
TORSDOF 6
ENDMDL
MODEL 9
REMARK VINA RESULT:      -4.6      9.951     11.773
REMARK  6 active torsions:
REMARK  status: ('A' for Active; 'I' for Inactive)
REMARK       I    between atoms: C_1  and  N_3 
REMARK    1  A    between atoms: C_1  and  C_2 
REMARK    2  A    between atoms: C_2  and  C_9 
REMARK    3  A    between atoms: C_2  and  N_6 
REMARK    4  A    between atoms: N_3  and  C_4 
REMARK    5  A    between atoms: C_4  and  C_14 
REMARK    6  A    between atoms: C_9  and  O_11 
ROOT
HETATM    1  C           1     -22.719  -4.380  -8.922  0.00  0.00     0.302 C 
ENDROOT
BRANCH   1   2
HETATM    2  C           1     -21.873  -4.419  -7.673  0.00  0.00     0.251 C 
HETATM    3  N           1     -21.520  -5.622  -7.123  0.00  0.00    -0.349 N 
HETATM    4  H           1     -21.826  -6.484  -7.554  0.00  0.00     0.163 HD
HETATM    5  O           1     -21.508  -3.389  -7.159  0.00  0.00    -0.271 OA
BRANCH   3   6
HETATM    6  C           1     -20.707  -5.659  -5.924  0.00  0.00     0.235 C 
BRANCH   6   7
HETATM    7  C           1     -21.572  -6.015  -4.739  0.00  0.00     0.191 C 
HETATM    8  O           1     -22.785  -6.269  -4.904  0.00  0.00    -0.647 OA
HETATM    9  O           1     -21.075  -6.056  -3.593  0.00  0.00    -0.647 OA
ENDBRANCH   6   7
ENDBRANCH   3   6
ENDBRANCH   1   2
BRANCH   1  10
HETATM   10  C           1     -22.011  -3.559  -9.991  0.00  0.00     0.153 C 
HETATM   11  C           1     -20.833  -4.352 -10.541  0.00  0.00     0.042 C 
BRANCH  10  12
HETATM   12  O           1     -22.906  -3.272 -11.030  0.00  0.00    -0.393 OA
HETATM   13  H           1     -23.240  -4.097 -11.339  0.00  0.00     0.210 HD
ENDBRANCH  10  12
ENDBRANCH   1  10
BRANCH   1  14
HETATM   14  N           1     -24.045  -3.753  -8.608  0.00  0.00    -0.064 N 
HETATM   15  H           1     -23.937  -3.090  -7.808  0.00  0.00     0.275 HD
HETATM   16  H           1     -24.391  -3.233  -9.446  0.00  0.00     0.275 HD
HETATM   17  H           1     -24.731  -4.499  -8.352  0.00  0.00     0.275 HD
ENDBRANCH   1  14
TORSDOF 6
ENDMDL
