MODEL 1
REMARK VINA RESULT:      -6.1      0.000      0.000
REMARK  10 active torsions:
REMARK  status: ('A' for Active; 'I' for Inactive)
REMARK       I    between atoms: C_6  and  N_12 
REMARK    1  A    between atoms: C_6  and  C_7 
REMARK    2  A    between atoms: C_7  and  C_8 
REMARK    3  A    between atoms: C_7  and  N_13 
REMARK    4  A    between atoms: C_8  and  O_15 
REMARK    5  A    between atoms: O_10  and  P_22 
REMARK    6  A    between atoms: N_12  and  C_21 
REMARK    7  A    between atoms: C_16  and  C_21 
REMARK    8  A    between atoms: C_20  and  C_21 
REMARK    9  A    between atoms: C_20  and  O_23 
REMARK   10  A    between atoms: P_22  and  O_23 
ROOT
HETATM    1  O           1     -37.792  -0.679 -13.553  0.00  0.00    -0.271 OA
HETATM    2  C           1     -36.707  -0.155 -13.458  0.00  0.00     0.251 C 
HETATM    3  N           1     -36.018  -0.219 -12.278  0.00  0.00    -0.343 N 
HETATM    4  H           1     -35.109   0.220 -12.199  0.00  0.00     0.163 HD
ENDROOT
BRANCH   3   5
HETATM    5  C           1     -36.588  -0.915 -11.141  0.00  0.00     0.210 C 
BRANCH   5   6
HETATM    6  C           1     -36.922   0.082 -10.058  0.00  0.00     0.198 C 
HETATM    7  O           1     -36.245   0.114  -9.007  0.00  0.00    -0.646 OA
HETATM    8  O           1     -37.875   0.875 -10.212  0.00  0.00    -0.646 OA
ENDBRANCH   5   6
BRANCH   5   9
HETATM    9  C           1     -35.581  -1.925 -10.609  0.00  0.00     0.217 C 
BRANCH   9  10
HETATM   10  O           1     -35.695  -3.124 -11.327  0.00  0.00    -0.287 OA
BRANCH  10  11
HETATM   11  P           1     -34.449  -3.500 -12.283  0.00  0.00     0.406 P 
HETATM   12  O           1     -34.548  -2.733 -13.545  0.00  0.00    -0.624 OA
HETATM   13  O           1     -33.182  -3.161 -11.599  0.00  0.00    -0.624 OA
BRANCH  11  14
HETATM   14  O           1     -34.479  -5.081 -12.608  0.00  0.00    -0.300 OA
HETATM   15  H           1     -33.576  -5.323 -12.723  0.00  0.00     0.223 HD
ENDBRANCH  11  14
ENDBRANCH  10  11
ENDBRANCH   9  10
ENDBRANCH   5   9
ENDBRANCH   3   5
BRANCH   2  16
HETATM   16  C           1     -36.113   0.569 -14.642  0.00  0.00     0.297 C 
BRANCH  16  17
HETATM   17  C           1     -36.961   0.301 -15.879  0.00  0.00     0.206 C 
BRANCH  17  18
HETATM   18  O           1     -38.010   1.229 -15.937  0.00  0.00    -0.398 OA
HETATM   19  H           1     -38.326   1.340 -15.056  0.00  0.00     0.209 HD
ENDBRANCH  17  18
ENDBRANCH  16  17
BRANCH  16  20
HETATM   20  N           1     -34.716   0.079 -14.877  0.00  0.00    -0.064 N 
HETATM   21  H           1     -34.562  -0.804 -14.340  0.00  0.00     0.275 HD
HETATM   22  H           1     -34.034   0.803 -14.557  0.00  0.00     0.275 HD
HETATM   23  H           1     -34.578  -0.103 -15.897  0.00  0.00     0.275 HD
ENDBRANCH  16  20
ENDBRANCH   2  16
TORSDOF 10
ENDMDL
MODEL 2
REMARK VINA RESULT:      -6.0      2.706      5.057
REMARK  10 active torsions:
REMARK  status: ('A' for Active; 'I' for Inactive)
REMARK       I    between atoms: C_6  and  N_12 
REMARK    1  A    between atoms: C_6  and  C_7 
REMARK    2  A    between atoms: C_7  and  C_8 
REMARK    3  A    between atoms: C_7  and  N_13 
REMARK    4  A    between atoms: C_8  and  O_15 
REMARK    5  A    between atoms: O_10  and  P_22 
REMARK    6  A    between atoms: N_12  and  C_21 
REMARK    7  A    between atoms: C_16  and  C_21 
REMARK    8  A    between atoms: C_20  and  C_21 
REMARK    9  A    between atoms: C_20  and  O_23 
REMARK   10  A    between atoms: P_22  and  O_23 
ROOT
HETATM    1  O           1     -33.671  -2.277 -11.120  0.00  0.00    -0.271 OA
HETATM    2  C           1     -34.203  -2.657 -12.136  0.00  0.00     0.251 C 
HETATM    3  N           1     -34.888  -1.771 -12.922  0.00  0.00    -0.343 N 
HETATM    4  H           1     -35.333  -2.091 -13.774  0.00  0.00     0.163 HD
ENDROOT
BRANCH   3   5
HETATM    5  C           1     -34.978  -0.377 -12.537  0.00  0.00     0.210 C 
BRANCH   5   6
HETATM    6  C           1     -36.223  -0.164 -11.710  0.00  0.00     0.198 C 
HETATM    7  O           1     -36.167   0.510 -10.658  0.00  0.00    -0.646 OA
HETATM    8  O           1     -37.309  -0.660 -12.076  0.00  0.00    -0.646 OA
ENDBRANCH   5   6
BRANCH   5   9
HETATM    9  C           1     -35.043   0.491 -13.786  0.00  0.00     0.217 C 
BRANCH   9  10
HETATM   10  O           1     -35.101  -0.327 -14.923  0.00  0.00    -0.287 OA
BRANCH  10  11
HETATM   11  P           1     -36.393  -0.131 -15.873  0.00  0.00     0.406 P 
HETATM   12  O           1     -37.574  -0.752 -15.233  0.00  0.00    -0.624 OA
HETATM   13  O           1     -36.643   1.313 -16.073  0.00  0.00    -0.624 OA
BRANCH  11  14
HETATM   14  O           1     -36.120  -0.833 -17.301  0.00  0.00    -0.300 OA
HETATM   15  H           1     -36.216  -0.142 -17.935  0.00  0.00     0.223 HD
ENDBRANCH  11  14
ENDBRANCH  10  11
ENDBRANCH   9  10
ENDBRANCH   5   9
ENDBRANCH   3   5
BRANCH   2  16
HETATM   16  C           1     -34.109  -4.108 -12.538  0.00  0.00     0.297 C 
BRANCH  16  17
HETATM   17  C           1     -33.225  -4.855 -11.547  0.00  0.00     0.206 C 
BRANCH  17  18
HETATM   18  O           1     -33.928  -5.051 -10.350  0.00  0.00    -0.398 OA
HETATM   19  H           1     -34.090  -5.976 -10.275  0.00  0.00     0.209 HD
ENDBRANCH  17  18
ENDBRANCH  16  17
BRANCH  16  20
HETATM   20  N           1     -33.514  -4.209 -13.911  0.00  0.00    -0.064 N 
HETATM   21  H           1     -34.189  -4.689 -14.548  0.00  0.00     0.275 HD
HETATM   22  H           1     -32.627  -4.759 -13.866  0.00  0.00     0.275 HD
HETATM   23  H           1     -33.312  -3.250 -14.274  0.00  0.00     0.275 HD
ENDBRANCH  16  20
ENDBRANCH   2  16
TORSDOF 10
ENDMDL
MODEL 3
REMARK VINA RESULT:      -5.9      2.325      4.295
REMARK  10 active torsions:
REMARK  status: ('A' for Active; 'I' for Inactive)
REMARK       I    between atoms: C_6  and  N_12 
REMARK    1  A    between atoms: C_6  and  C_7 
REMARK    2  A    between atoms: C_7  and  C_8 
REMARK    3  A    between atoms: C_7  and  N_13 
REMARK    4  A    between atoms: C_8  and  O_15 
REMARK    5  A    between atoms: O_10  and  P_22 
REMARK    6  A    between atoms: N_12  and  C_21 
REMARK    7  A    between atoms: C_16  and  C_21 
REMARK    8  A    between atoms: C_20  and  C_21 
REMARK    9  A    between atoms: C_20  and  O_23 
REMARK   10  A    between atoms: P_22  and  O_23 
ROOT
HETATM    1  O           1     -33.677  -1.370 -11.006  0.00  0.00    -0.271 OA
HETATM    2  C           1     -34.559  -2.137 -11.314  0.00  0.00     0.251 C 
HETATM    3  N           1     -35.775  -1.655 -11.716  0.00  0.00    -0.343 N 
HETATM    4  H           1     -36.513  -2.299 -11.973  0.00  0.00     0.163 HD
ENDROOT
BRANCH   3   5
HETATM    5  C           1     -36.007  -0.226 -11.771  0.00  0.00     0.210 C 
BRANCH   5   6
HETATM    6  C           1     -36.876   0.189 -10.608  0.00  0.00     0.198 C 
HETATM    7  O           1     -38.075   0.486 -10.798  0.00  0.00    -0.646 OA
HETATM    8  O           1     -36.395   0.234  -9.456  0.00  0.00    -0.646 OA
ENDBRANCH   5   6
BRANCH   5   9
HETATM    9  C           1     -36.708   0.123 -13.078  0.00  0.00     0.217 C 
BRANCH   9  10
HETATM   10  O           1     -36.459  -0.880 -14.025  0.00  0.00    -0.287 OA
BRANCH  10  11
HETATM   11  P           1     -35.670  -0.418 -15.357  0.00  0.00     0.406 P 
HETATM   12  O           1     -36.572   0.388 -16.209  0.00  0.00    -0.624 OA
HETATM   13  O           1     -34.495   0.396 -14.976  0.00  0.00    -0.624 OA
BRANCH  11  14
HETATM   14  O           1     -35.180  -1.723 -16.170  0.00  0.00    -0.300 OA
HETATM   15  H           1     -35.609  -1.665 -17.007  0.00  0.00     0.223 HD
ENDBRANCH  11  14
ENDBRANCH  10  11
ENDBRANCH   9  10
ENDBRANCH   5   9
ENDBRANCH   3   5
BRANCH   2  16
HETATM   16  C           1     -34.317  -3.625 -11.256  0.00  0.00     0.297 C 
BRANCH  16  17
HETATM   17  C           1     -33.932  -4.132 -12.641  0.00  0.00     0.206 C 
BRANCH  17  18
HETATM   18  O           1     -34.376  -3.223 -13.611  0.00  0.00    -0.398 OA
HETATM   19  H           1     -33.674  -3.121 -14.232  0.00  0.00     0.209 HD
ENDBRANCH  17  18
ENDBRANCH  16  17
BRANCH  16  20
HETATM   20  N           1     -35.567  -4.317 -10.801  0.00  0.00    -0.064 N 
HETATM   21  H           1     -36.401  -3.788 -11.143  0.00  0.00     0.275 HD
HETATM   22  H           1     -35.584  -4.354  -9.757  0.00  0.00     0.275 HD
HETATM   23  H           1     -35.587  -5.288 -11.184  0.00  0.00     0.275 HD
ENDBRANCH  16  20
ENDBRANCH   2  16
TORSDOF 10
ENDMDL
MODEL 4
REMARK VINA RESULT:      -5.2     25.890     27.326
REMARK  10 active torsions:
REMARK  status: ('A' for Active; 'I' for Inactive)
REMARK       I    between atoms: C_6  and  N_12 
REMARK    1  A    between atoms: C_6  and  C_7 
REMARK    2  A    between atoms: C_7  and  C_8 
REMARK    3  A    between atoms: C_7  and  N_13 
REMARK    4  A    between atoms: C_8  and  O_15 
REMARK    5  A    between atoms: O_10  and  P_22 
REMARK    6  A    between atoms: N_12  and  C_21 
REMARK    7  A    between atoms: C_16  and  C_21 
REMARK    8  A    between atoms: C_20  and  C_21 
REMARK    9  A    between atoms: C_20  and  O_23 
REMARK   10  A    between atoms: P_22  and  O_23 
ROOT
HETATM    1  O           1     -11.556   3.388 -21.998  0.00  0.00    -0.271 OA
HETATM    2  C           1     -12.130   4.446 -22.095  0.00  0.00     0.251 C 
HETATM    3  N           1     -11.623   5.559 -21.480  0.00  0.00    -0.343 N 
HETATM    4  H           1     -12.105   6.446 -21.562  0.00  0.00     0.163 HD
ENDROOT
BRANCH   3   5
HETATM    5  C           1     -10.398   5.468 -20.711  0.00  0.00     0.210 C 
BRANCH   5   6
HETATM    6  C           1     -10.728   5.462 -19.238  0.00  0.00     0.198 C 
HETATM    7  O           1      -9.863   5.802 -18.402  0.00  0.00    -0.646 OA
HETATM    8  O           1     -11.866   5.116 -18.855  0.00  0.00    -0.646 OA
ENDBRANCH   5   6
BRANCH   5   9
HETATM    9  C           1      -9.511   6.664 -21.028  0.00  0.00     0.217 C 
BRANCH   9  10
HETATM   10  O           1     -10.310   7.753 -21.403  0.00  0.00    -0.287 OA
BRANCH  10  11
HETATM   11  P           1     -10.017   9.145 -20.638  0.00  0.00     0.406 P 
HETATM   12  O           1      -8.715   9.689 -21.085  0.00  0.00    -0.624 OA
HETATM   13  O           1     -11.089  10.115 -20.951  0.00  0.00    -0.624 OA
BRANCH  11  14
HETATM   14  O           1      -9.976   8.884 -19.045  0.00  0.00    -0.300 OA
HETATM   15  H           1     -10.656   9.431 -18.691  0.00  0.00     0.223 HD
ENDBRANCH  11  14
ENDBRANCH  10  11
ENDBRANCH   9  10
ENDBRANCH   5   9
ENDBRANCH   3   5
BRANCH   2  16
HETATM   16  C           1     -13.405   4.542 -22.896  0.00  0.00     0.297 C 
BRANCH  16  17
HETATM   17  C           1     -14.321   5.587 -22.272  0.00  0.00     0.206 C 
BRANCH  17  18
HETATM   18  O           1     -14.357   5.407 -20.883  0.00  0.00    -0.398 OA
HETATM   19  H           1     -13.521   5.052 -20.630  0.00  0.00     0.209 HD
ENDBRANCH  17  18
ENDBRANCH  16  17
BRANCH  16  20
HETATM   20  N           1     -14.095   3.210 -22.897  0.00  0.00    -0.064 N 
HETATM   21  H           1     -15.126   3.353 -22.986  0.00  0.00     0.275 HD
HETATM   22  H           1     -13.889   2.711 -22.002  0.00  0.00     0.275 HD
HETATM   23  H           1     -13.750   2.640 -23.701  0.00  0.00     0.275 HD
ENDBRANCH  16  20
ENDBRANCH   2  16
TORSDOF 10
ENDMDL
MODEL 5
REMARK VINA RESULT:      -5.1     13.873     16.461
REMARK  10 active torsions:
REMARK  status: ('A' for Active; 'I' for Inactive)
REMARK       I    between atoms: C_6  and  N_12 
REMARK    1  A    between atoms: C_6  and  C_7 
REMARK    2  A    between atoms: C_7  and  C_8 
REMARK    3  A    between atoms: C_7  and  N_13 
REMARK    4  A    between atoms: C_8  and  O_15 
REMARK    5  A    between atoms: O_10  and  P_22 
REMARK    6  A    between atoms: N_12  and  C_21 
REMARK    7  A    between atoms: C_16  and  C_21 
REMARK    8  A    between atoms: C_20  and  C_21 
REMARK    9  A    between atoms: C_20  and  O_23 
REMARK   10  A    between atoms: P_22  and  O_23 
ROOT
HETATM    1  O           1     -21.213  -7.390  -6.585  0.00  0.00    -0.271 OA
HETATM    2  C           1     -21.200  -6.409  -5.879  0.00  0.00     0.251 C 
HETATM    3  N           1     -21.416  -5.172  -6.423  0.00  0.00    -0.343 N 
HETATM    4  H           1     -21.405  -4.351  -5.830  0.00  0.00     0.163 HD
ENDROOT
BRANCH   3   5
HETATM    5  C           1     -21.658  -5.036  -7.845  0.00  0.00     0.210 C 
BRANCH   5   6
HETATM    6  C           1     -20.416  -4.506  -8.518  0.00  0.00     0.198 C 
HETATM    7  O           1     -19.728  -3.625  -7.959  0.00  0.00    -0.646 OA
HETATM    8  O           1     -20.074  -4.949  -9.636  0.00  0.00    -0.646 OA
ENDBRANCH   5   6
BRANCH   5   9
HETATM    9  C           1     -22.811  -4.068  -8.072  0.00  0.00     0.217 C 
BRANCH   9  10
HETATM   10  O           1     -22.808  -3.640  -9.407  0.00  0.00    -0.287 OA
BRANCH  10  11
HETATM   11  P           1     -24.061  -4.117 -10.308  0.00  0.00     0.406 P 
HETATM   12  O           1     -24.730  -2.932 -10.888  0.00  0.00    -0.624 OA
HETATM   13  O           1     -23.578  -4.993 -11.399  0.00  0.00    -0.624 OA
BRANCH  11  14
HETATM   14  O           1     -25.106  -4.932  -9.387  0.00  0.00    -0.300 OA
HETATM   15  H           1     -24.630  -5.687  -9.087  0.00  0.00     0.223 HD
ENDBRANCH  11  14
ENDBRANCH  10  11
ENDBRANCH   9  10
ENDBRANCH   5   9
ENDBRANCH   3   5
BRANCH   2  16
HETATM   16  C           1     -20.948  -6.551  -4.398  0.00  0.00     0.297 C 
BRANCH  16  17
HETATM   17  C           1     -20.581  -7.995  -4.080  0.00  0.00     0.206 C 
BRANCH  17  18
HETATM   18  O           1     -21.738  -8.785  -4.096  0.00  0.00    -0.398 OA
HETATM   19  H           1     -21.458  -9.680  -4.193  0.00  0.00     0.209 HD
ENDBRANCH  17  18
ENDBRANCH  16  17
BRANCH  16  20
HETATM   20  N           1     -22.187  -6.172  -3.642  0.00  0.00    -0.064 N 
HETATM   21  H           1     -22.902  -6.927  -3.745  0.00  0.00     0.275 HD
HETATM   22  H           1     -22.569  -5.278  -4.025  0.00  0.00     0.275 HD
HETATM   23  H           1     -21.954  -6.046  -2.632  0.00  0.00     0.275 HD
ENDBRANCH  16  20
ENDBRANCH   2  16
TORSDOF 10
ENDMDL
MODEL 6
REMARK VINA RESULT:      -5.1     13.607     15.693
REMARK  10 active torsions:
REMARK  status: ('A' for Active; 'I' for Inactive)
REMARK       I    between atoms: C_6  and  N_12 
REMARK    1  A    between atoms: C_6  and  C_7 
REMARK    2  A    between atoms: C_7  and  C_8 
REMARK    3  A    between atoms: C_7  and  N_13 
REMARK    4  A    between atoms: C_8  and  O_15 
REMARK    5  A    between atoms: O_10  and  P_22 
REMARK    6  A    between atoms: N_12  and  C_21 
REMARK    7  A    between atoms: C_16  and  C_21 
REMARK    8  A    between atoms: C_20  and  C_21 
REMARK    9  A    between atoms: C_20  and  O_23 
REMARK   10  A    between atoms: P_22  and  O_23 
ROOT
HETATM    1  O           1     -23.028  -3.185  -8.539  0.00  0.00    -0.271 OA
HETATM    2  C           1     -23.087  -4.308  -8.982  0.00  0.00     0.251 C 
HETATM    3  N           1     -22.150  -5.237  -8.617  0.00  0.00    -0.343 N 
HETATM    4  H           1     -22.200  -6.177  -8.989  0.00  0.00     0.163 HD
ENDROOT
BRANCH   3   5
HETATM    5  C           1     -21.088  -4.875  -7.700  0.00  0.00     0.210 C 
BRANCH   5   6
HETATM    6  C           1     -19.860  -4.481  -8.484  0.00  0.00     0.198 C 
HETATM    7  O           1     -18.810  -4.164  -7.884  0.00  0.00    -0.646 OA
HETATM    8  O           1     -19.892  -4.472  -9.733  0.00  0.00    -0.646 OA
ENDBRANCH   5   6
BRANCH   5   9
HETATM    9  C           1     -20.761  -6.066  -6.809  0.00  0.00     0.217 C 
BRANCH   9  10
HETATM   10  O           1     -20.874  -5.689  -5.463  0.00  0.00    -0.287 OA
BRANCH  10  11
HETATM   11  P           1     -22.008  -6.455  -4.605  0.00  0.00     0.406 P 
HETATM   12  O           1     -21.910  -6.048  -3.186  0.00  0.00    -0.624 OA
HETATM   13  O           1     -23.346  -6.102  -5.128  0.00  0.00    -0.624 OA
BRANCH  11  14
HETATM   14  O           1     -21.787  -8.050  -4.726  0.00  0.00    -0.300 OA
HETATM   15  H           1     -21.351  -8.174  -5.551  0.00  0.00     0.223 HD
ENDBRANCH  11  14
ENDBRANCH  10  11
ENDBRANCH   9  10
ENDBRANCH   5   9
ENDBRANCH   3   5
BRANCH   2  16
HETATM   16  C           1     -24.193  -4.685  -9.936  0.00  0.00     0.297 C 
BRANCH  16  17
HETATM   17  C           1     -23.643  -4.741 -11.356  0.00  0.00     0.206 C 
BRANCH  17  18
HETATM   18  O           1     -22.438  -4.028 -11.419  0.00  0.00    -0.398 OA
HETATM   19  H           1     -21.782  -4.561 -11.003  0.00  0.00     0.209 HD
ENDBRANCH  17  18
ENDBRANCH  16  17
BRANCH  16  20
HETATM   20  N           1     -25.285  -3.660  -9.865  0.00  0.00    -0.064 N 
HETATM   21  H           1     -25.450  -3.260 -10.816  0.00  0.00     0.275 HD
HETATM   22  H           1     -25.002  -2.895  -9.211  0.00  0.00     0.275 HD
HETATM   23  H           1     -26.162  -4.108  -9.516  0.00  0.00     0.275 HD
ENDBRANCH  16  20
ENDBRANCH   2  16
TORSDOF 10
ENDMDL
MODEL 7
REMARK VINA RESULT:      -4.7     13.930     15.999
REMARK  10 active torsions:
REMARK  status: ('A' for Active; 'I' for Inactive)
REMARK       I    between atoms: C_6  and  N_12 
REMARK    1  A    between atoms: C_6  and  C_7 
REMARK    2  A    between atoms: C_7  and  C_8 
REMARK    3  A    between atoms: C_7  and  N_13 
REMARK    4  A    between atoms: C_8  and  O_15 
REMARK    5  A    between atoms: O_10  and  P_22 
REMARK    6  A    between atoms: N_12  and  C_21 
REMARK    7  A    between atoms: C_16  and  C_21 
REMARK    8  A    between atoms: C_20  and  C_21 
REMARK    9  A    between atoms: C_20  and  O_23 
REMARK   10  A    between atoms: P_22  and  O_23 
ROOT
HETATM    1  O           1     -22.814  -3.069  -8.893  0.00  0.00    -0.271 OA
HETATM    2  C           1     -22.990  -4.260  -8.989  0.00  0.00     0.251 C 
HETATM    3  N           1     -22.197  -5.128  -8.288  0.00  0.00    -0.343 N 
HETATM    4  H           1     -22.346  -6.126  -8.369  0.00  0.00     0.163 HD
ENDROOT
BRANCH   3   5
HETATM    5  C           1     -21.145  -4.618  -7.431  0.00  0.00     0.210 C 
BRANCH   5   6
HETATM    6  C           1     -19.839  -4.615  -8.187  0.00  0.00     0.198 C 
HETATM    7  O           1     -19.829  -4.816  -9.421  0.00  0.00    -0.646 OA
HETATM    8  O           1     -18.766  -4.410  -7.579  0.00  0.00    -0.646 OA
ENDBRANCH   5   6
BRANCH   5   9
HETATM    9  C           1     -21.018  -5.508  -6.202  0.00  0.00     0.217 C 
BRANCH   9  10
HETATM   10  O           1     -21.040  -6.854  -6.593  0.00  0.00    -0.287 OA
BRANCH  10  11
HETATM   11  P           1     -20.929  -7.941  -5.403  0.00  0.00     0.406 P 
HETATM   12  O           1     -21.242  -9.286  -5.934  0.00  0.00    -0.624 OA
HETATM   13  O           1     -19.554  -7.935  -4.857  0.00  0.00    -0.624 OA
BRANCH  11  14
HETATM   14  O           1     -21.974  -7.564  -4.232  0.00  0.00    -0.300 OA
HETATM   15  H           1     -21.549  -7.824  -3.433  0.00  0.00     0.223 HD
ENDBRANCH  11  14
ENDBRANCH  10  11
ENDBRANCH   9  10
ENDBRANCH   5   9
ENDBRANCH   3   5
BRANCH   2  16
HETATM   16  C           1     -24.086  -4.791  -9.881  0.00  0.00     0.297 C 
BRANCH  16  17
HETATM   17  C           1     -23.604  -4.801 -11.327  0.00  0.00     0.206 C 
BRANCH  17  18
HETATM   18  O           1     -22.217  -4.603 -11.359  0.00  0.00    -0.398 OA
HETATM   19  H           1     -22.020  -4.172 -12.174  0.00  0.00     0.209 HD
ENDBRANCH  17  18
ENDBRANCH  16  17
BRANCH  16  20
HETATM   20  N           1     -25.295  -3.912  -9.764  0.00  0.00    -0.064 N 
HETATM   21  H           1     -25.011  -2.976  -9.396  0.00  0.00     0.275 HD
HETATM   22  H           1     -25.981  -4.350  -9.108  0.00  0.00     0.275 HD
HETATM   23  H           1     -25.736  -3.799 -10.704  0.00  0.00     0.275 HD
ENDBRANCH  16  20
ENDBRANCH   2  16
TORSDOF 10
ENDMDL
MODEL 8
REMARK VINA RESULT:      -4.7      3.894      6.351
REMARK  10 active torsions:
REMARK  status: ('A' for Active; 'I' for Inactive)
REMARK       I    between atoms: C_6  and  N_12 
REMARK    1  A    between atoms: C_6  and  C_7 
REMARK    2  A    between atoms: C_7  and  C_8 
REMARK    3  A    between atoms: C_7  and  N_13 
REMARK    4  A    between atoms: C_8  and  O_15 
REMARK    5  A    between atoms: O_10  and  P_22 
REMARK    6  A    between atoms: N_12  and  C_21 
REMARK    7  A    between atoms: C_16  and  C_21 
REMARK    8  A    between atoms: C_20  and  C_21 
REMARK    9  A    between atoms: C_20  and  O_23 
REMARK   10  A    between atoms: P_22  and  O_23 
ROOT
HETATM    1  O           1     -32.845  -5.923 -11.193  0.00  0.00    -0.271 OA
HETATM    2  C           1     -34.024  -5.829 -10.947  0.00  0.00     0.251 C 
HETATM    3  N           1     -34.674  -4.642 -11.151  0.00  0.00    -0.343 N 
HETATM    4  H           1     -35.662  -4.565 -10.944  0.00  0.00     0.163 HD
ENDROOT
BRANCH   3   5
HETATM    5  C           1     -33.949  -3.496 -11.662  0.00  0.00     0.210 C 
BRANCH   5   6
HETATM    6  C           1     -34.254  -2.287 -10.812  0.00  0.00     0.198 C 
HETATM    7  O           1     -33.322  -1.627 -10.305  0.00  0.00    -0.646 OA
HETATM    8  O           1     -35.440  -1.947 -10.614  0.00  0.00    -0.646 OA
ENDBRANCH   5   6
BRANCH   5   9
HETATM    9  C           1     -34.374  -3.227 -13.099  0.00  0.00     0.217 C 
BRANCH   9  10
HETATM   10  O           1     -33.584  -3.988 -13.972  0.00  0.00    -0.287 OA
BRANCH  10  11
HETATM   11  P           1     -34.219  -4.286 -15.427  0.00  0.00     0.406 P 
HETATM   12  O           1     -35.235  -5.356 -15.310  0.00  0.00    -0.624 OA
HETATM   13  O           1     -34.856  -3.057 -15.949  0.00  0.00    -0.624 OA
BRANCH  11  14
HETATM   14  O           1     -33.052  -4.758 -16.437  0.00  0.00    -0.300 OA
HETATM   15  H           1     -32.380  -5.116 -15.883  0.00  0.00     0.223 HD
ENDBRANCH  11  14
ENDBRANCH  10  11
ENDBRANCH   9  10
ENDBRANCH   5   9
ENDBRANCH   3   5
BRANCH   2  16
HETATM   16  C           1     -34.780  -7.022 -10.415  0.00  0.00     0.297 C 
BRANCH  16  17
HETATM   17  C           1     -33.854  -7.866  -9.548  0.00  0.00     0.206 C 
BRANCH  17  18
HETATM   18  O           1     -33.312  -8.905 -10.318  0.00  0.00    -0.398 OA
HETATM   19  H           1     -32.727  -9.386  -9.757  0.00  0.00     0.209 HD
ENDBRANCH  17  18
ENDBRANCH  16  17
BRANCH  16  20
HETATM   20  N           1     -35.281  -7.848 -11.562  0.00  0.00    -0.064 N 
HETATM   21  H           1     -36.181  -8.306 -11.293  0.00  0.00     0.275 HD
HETATM   22  H           1     -34.574  -8.581 -11.798  0.00  0.00     0.275 HD
HETATM   23  H           1     -35.436  -7.233 -12.392  0.00  0.00     0.275 HD
ENDBRANCH  16  20
ENDBRANCH   2  16
TORSDOF 10
ENDMDL
MODEL 9
REMARK VINA RESULT:      -4.7     25.535     26.944
REMARK  10 active torsions:
REMARK  status: ('A' for Active; 'I' for Inactive)
REMARK       I    between atoms: C_6  and  N_12 
REMARK    1  A    between atoms: C_6  and  C_7 
REMARK    2  A    between atoms: C_7  and  C_8 
REMARK    3  A    between atoms: C_7  and  N_13 
REMARK    4  A    between atoms: C_8  and  O_15 
REMARK    5  A    between atoms: O_10  and  P_22 
REMARK    6  A    between atoms: N_12  and  C_21 
REMARK    7  A    between atoms: C_16  and  C_21 
REMARK    8  A    between atoms: C_20  and  C_21 
REMARK    9  A    between atoms: C_20  and  O_23 
REMARK   10  A    between atoms: P_22  and  O_23 
ROOT
HETATM    1  O           1     -11.151   6.725 -22.899  0.00  0.00    -0.271 OA
HETATM    2  C           1     -11.959   7.456 -22.377  0.00  0.00     0.251 C 
HETATM    3  N           1     -12.911   6.937 -21.541  0.00  0.00    -0.343 N 
HETATM    4  H           1     -13.588   7.550 -21.104  0.00  0.00     0.163 HD
ENDROOT
BRANCH   3   5
HETATM    5  C           1     -12.951   5.511 -21.283  0.00  0.00     0.210 C 
BRANCH   5   6
HETATM    6  C           1     -14.379   5.028 -21.350  0.00  0.00     0.198 C 
HETATM    7  O           1     -15.177   5.306 -20.429  0.00  0.00    -0.646 OA
HETATM    8  O           1     -14.764   4.349 -22.326  0.00  0.00    -0.646 OA
ENDBRANCH   5   6
BRANCH   5   9
HETATM    9  C           1     -12.384   5.232 -19.897  0.00  0.00     0.217 C 
BRANCH   9  10
HETATM   10  O           1     -11.010   4.975 -19.996  0.00  0.00    -0.287 OA
BRANCH  10  11
HETATM   11  P           1     -10.031   6.107 -19.387  0.00  0.00     0.406 P 
HETATM   12  O           1      -8.882   6.306 -20.299  0.00  0.00    -0.624 OA
HETATM   13  O           1     -10.774   7.378 -19.247  0.00  0.00    -0.624 OA
BRANCH  11  14
HETATM   14  O           1      -9.497   5.633 -17.940  0.00  0.00    -0.300 OA
HETATM   15  H           1      -8.936   6.330 -17.647  0.00  0.00     0.223 HD
ENDBRANCH  11  14
ENDBRANCH  10  11
ENDBRANCH   9  10
ENDBRANCH   5   9
ENDBRANCH   3   5
BRANCH   2  16
HETATM   16  C           1     -11.918   8.940 -22.645  0.00  0.00     0.297 C 
BRANCH  16  17
HETATM   17  C           1     -10.514   9.467 -22.374  0.00  0.00     0.206 C 
BRANCH  17  18
HETATM   18  O           1     -10.369   9.725 -21.004  0.00  0.00    -0.398 OA
HETATM   19  H           1     -10.971  10.418 -20.790  0.00  0.00     0.209 HD
ENDBRANCH  17  18
ENDBRANCH  16  17
BRANCH  16  20
HETATM   20  N           1     -12.895   9.637 -21.747  0.00  0.00    -0.064 N 
HETATM   21  H           1     -13.765   9.064 -21.667  0.00  0.00     0.275 HD
HETATM   22  H           1     -13.132  10.572 -22.150  0.00  0.00     0.275 HD
HETATM   23  H           1     -12.471   9.763 -20.801  0.00  0.00     0.275 HD
ENDBRANCH  16  20
ENDBRANCH   2  16
TORSDOF 10
ENDMDL
