MODEL 1
REMARK VINA RESULT:      -7.2      0.000      0.000
REMARK  8 active torsions:
REMARK  status: ('A' for Active; 'I' for Inactive)
REMARK    1  A    between atoms: C_3  and  C_6 
REMARK    2  A    between atoms: C_6  and  C_7 
REMARK    3  A    between atoms: C_6  and  N_27 
REMARK    4  A    between atoms: C_7  and  C_11 
REMARK    5  A    between atoms: C_8  and  C_29 
REMARK    6  A    between atoms: C_8  and  C_9 
REMARK    7  A    between atoms: N_23  and  C_29 
REMARK       I    between atoms: N_27  and  C_28 
REMARK    8  A    between atoms: C_28  and  C_29 
ROOT
HETATM    1  O           1     -33.834  -1.833  -9.799  0.00  0.00    -0.271 OA
HETATM    2  H           1     -32.487  -2.469 -12.206  0.00  0.00     0.163 HD
HETATM    3  N           1     -33.303  -2.828 -11.726  0.00  0.00    -0.344 N 
HETATM    4  C           1     -34.079  -1.990 -10.972  0.00  0.00     0.249 C 
ENDROOT
BRANCH   4   5
HETATM    5  C           1     -35.240  -1.264 -11.604  0.00  0.00     0.280 C 
BRANCH   5   6
HETATM    6  C           1     -34.715  -0.226 -12.588  0.00  0.00     0.101 C 
BRANCH   6   7
HETATM    7  C           1     -35.482  -0.320 -13.870  0.00  0.00     0.028 A 
HETATM    8  C           1     -36.806   0.021 -14.016  0.00  0.00     0.114 A 
HETATM    9  N           1     -37.090  -0.218 -15.332  0.00  0.00    -0.360 N 
HETATM   10  C           1     -35.949  -0.685 -15.920  0.00  0.00     0.180 A 
HETATM   11  H           1     -38.017  -0.069 -15.803  0.00  0.00     0.166 HD
HETATM   12  N           1     -34.960  -0.758 -15.060  0.00  0.00    -0.355 N 
ATOM     13  HN          1     -34.006  -1.073 -15.238  1.00  0.00     0.166 HD
ENDBRANCH   6   7
ENDBRANCH   5   6
BRANCH   5  14
HETATM   14  N           1     -36.042  -0.579 -10.537  0.00  0.00    -0.066 N 
HETATM   15  H           1     -35.461  -0.482  -9.673  0.00  0.00     0.275 HD
HETATM   16  H           1     -36.892  -1.146 -10.324  0.00  0.00     0.275 HD
HETATM   17  H           1     -36.328   0.369 -10.871  0.00  0.00     0.275 HD
ENDBRANCH   5  14
ENDBRANCH   4   5
BRANCH   3  18
HETATM   18  C           1     -33.649  -4.232 -11.838  0.00  0.00     0.191 C 
BRANCH  18  19
HETATM   19  C           1     -34.432  -4.456 -13.109  0.00  0.00     0.197 C 
HETATM   20  O           1     -35.169  -5.459 -13.220  0.00  0.00    -0.646 OA
HETATM   21  O           1     -34.344  -3.639 -14.050  0.00  0.00    -0.646 OA
ENDBRANCH  18  19
BRANCH  18  22
HETATM   22  C           1     -34.497  -4.642 -10.641  0.00  0.00     0.094 C 
BRANCH  22  23
HETATM   23  C           1     -34.334  -6.109 -10.392  0.00  0.00     0.028 A 
HETATM   24  C           1     -35.164  -6.863  -9.596  0.00  0.00     0.114 A 
HETATM   25  N           1     -34.652  -8.130  -9.652  0.00  0.00    -0.360 N 
HETATM   26  H           1     -35.034  -8.976  -9.162  0.00  0.00     0.166 HD
HETATM   27  C           1     -33.554  -8.094 -10.465  0.00  0.00     0.180 A 
HETATM   28  N           1     -33.338  -6.884 -10.926  0.00  0.00    -0.354 N 
ATOM     29  HN          1     -32.588  -6.585 -11.550  1.00  0.00     0.166 HD
ENDBRANCH  22  23
ENDBRANCH  18  22
ENDBRANCH   3  18
TORSDOF 8
ENDMDL
MODEL 2
REMARK VINA RESULT:      -6.5     14.005     15.733
REMARK  8 active torsions:
REMARK  status: ('A' for Active; 'I' for Inactive)
REMARK    1  A    between atoms: C_3  and  C_6 
REMARK    2  A    between atoms: C_6  and  C_7 
REMARK    3  A    between atoms: C_6  and  N_27 
REMARK    4  A    between atoms: C_7  and  C_11 
REMARK    5  A    between atoms: C_8  and  C_29 
REMARK    6  A    between atoms: C_8  and  C_9 
REMARK    7  A    between atoms: N_23  and  C_29 
REMARK       I    between atoms: N_27  and  C_28 
REMARK    8  A    between atoms: C_28  and  C_29 
ROOT
HETATM    1  O           1     -19.341  -6.526  -7.382  0.00  0.00    -0.271 OA
HETATM    2  H           1     -21.608  -7.962  -6.484  0.00  0.00     0.163 HD
HETATM    3  N           1     -20.834  -7.494  -6.032  0.00  0.00    -0.344 N 
HETATM    4  C           1     -20.265  -6.393  -6.614  0.00  0.00     0.249 C 
ENDROOT
BRANCH   4   5
HETATM    5  C           1     -20.791  -5.015  -6.298  0.00  0.00     0.280 C 
BRANCH   5   6
HETATM    6  C           1     -20.587  -4.104  -7.502  0.00  0.00     0.101 C 
BRANCH   6   7
HETATM    7  C           1     -21.809  -4.138  -8.366  0.00  0.00     0.028 A 
HETATM    8  C           1     -21.802  -4.365  -9.722  0.00  0.00     0.114 A 
HETATM    9  N           1     -23.115  -4.310 -10.097  0.00  0.00    -0.360 N 
HETATM   10  C           1     -23.853  -4.057  -8.975  0.00  0.00     0.180 A 
HETATM   11  H           1     -23.488  -4.438 -11.071  0.00  0.00     0.166 HD
HETATM   12  N           1     -23.089  -3.948  -7.913  0.00  0.00    -0.355 N 
ATOM     13  HN          1     -23.385  -3.763  -6.954  1.00  0.00     0.166 HD
ENDBRANCH   6   7
ENDBRANCH   5   6
BRANCH   5  14
HETATM   14  N           1     -20.050  -4.457  -5.118  0.00  0.00    -0.066 N 
HETATM   15  H           1     -20.530  -4.748  -4.236  0.00  0.00     0.275 HD
HETATM   16  H           1     -20.035  -3.415  -5.179  0.00  0.00     0.275 HD
HETATM   17  H           1     -19.071  -4.823  -5.118  0.00  0.00     0.275 HD
ENDBRANCH   5  14
ENDBRANCH   4   5
BRANCH   3  18
HETATM   18  C           1     -20.326  -7.988  -4.767  0.00  0.00     0.191 C 
BRANCH  18  19
HETATM   19  C           1     -19.300  -9.064  -5.024  0.00  0.00     0.197 C 
HETATM   20  O           1     -18.278  -9.138  -4.307  0.00  0.00    -0.646 OA
HETATM   21  O           1     -19.471  -9.882  -5.953  0.00  0.00    -0.646 OA
ENDBRANCH  18  19
BRANCH  18  22
HETATM   22  C           1     -21.474  -8.565  -3.950  0.00  0.00     0.094 C 
BRANCH  22  23
HETATM   23  C           1     -21.805  -7.634  -2.825  0.00  0.00     0.028 A 
HETATM   24  C           1     -21.982  -6.277  -2.962  0.00  0.00     0.114 A 
HETATM   25  N           1     -22.265  -5.829  -1.701  0.00  0.00    -0.360 N 
HETATM   26  H           1     -22.461  -4.836  -1.424  0.00  0.00     0.166 HD
HETATM   27  C           1     -22.250  -6.912  -0.867  0.00  0.00     0.180 A 
HETATM   28  N           1     -21.974  -8.017  -1.520  0.00  0.00    -0.354 N 
ATOM     29  HN          1     -21.901  -8.960  -1.138  1.00  0.00     0.166 HD
ENDBRANCH  22  23
ENDBRANCH  18  22
ENDBRANCH   3  18
TORSDOF 8
ENDMDL
MODEL 3
REMARK VINA RESULT:      -6.3     13.325     16.237
REMARK  8 active torsions:
REMARK  status: ('A' for Active; 'I' for Inactive)
REMARK    1  A    between atoms: C_3  and  C_6 
REMARK    2  A    between atoms: C_6  and  C_7 
REMARK    3  A    between atoms: C_6  and  N_27 
REMARK    4  A    between atoms: C_7  and  C_11 
REMARK    5  A    between atoms: C_8  and  C_29 
REMARK    6  A    between atoms: C_8  and  C_9 
REMARK    7  A    between atoms: N_23  and  C_29 
REMARK       I    between atoms: N_27  and  C_28 
REMARK    8  A    between atoms: C_28  and  C_29 
ROOT
HETATM    1  O           1     -20.836  -5.615  -3.897  0.00  0.00    -0.271 OA
HETATM    2  H           1     -23.146  -5.185  -5.474  0.00  0.00     0.163 HD
HETATM    3  N           1     -22.220  -5.554  -5.649  0.00  0.00    -0.344 N 
HETATM    4  C           1     -21.552  -6.222  -4.659  0.00  0.00     0.249 C 
ENDROOT
BRANCH   4   5
HETATM    5  C           1     -21.708  -7.716  -4.518  0.00  0.00     0.280 C 
BRANCH   5   6
HETATM    6  C           1     -20.792  -8.220  -3.410  0.00  0.00     0.101 C 
BRANCH   6   7
HETATM    7  C           1     -21.550  -8.269  -2.119  0.00  0.00     0.028 A 
HETATM    8  C           1     -22.024  -9.419  -1.534  0.00  0.00     0.114 A 
HETATM    9  N           1     -22.643  -9.004  -0.388  0.00  0.00    -0.360 N 
HETATM   10  C           1     -22.522  -7.645  -0.325  0.00  0.00     0.180 A 
HETATM   11  H           1     -23.124  -9.619   0.315  0.00  0.00     0.166 HD
HETATM   12  N           1     -21.866  -7.173  -1.360  0.00  0.00    -0.355 N 
ATOM     13  HN          1     -21.638  -6.198  -1.556  1.00  0.00     0.166 HD
ENDBRANCH   6   7
ENDBRANCH   5   6
BRANCH   5  14
HETATM   14  N           1     -21.339  -8.380  -5.812  0.00  0.00    -0.066 N 
HETATM   15  H           1     -22.143  -8.956  -6.150  0.00  0.00     0.275 HD
HETATM   16  H           1     -20.509  -8.996  -5.662  0.00  0.00     0.275 HD
HETATM   17  H           1     -21.110  -7.651  -6.524  0.00  0.00     0.275 HD
ENDBRANCH   5  14
ENDBRANCH   4   5
BRANCH   3  18
HETATM   18  C           1     -21.600  -5.374  -6.947  0.00  0.00     0.191 C 
BRANCH  18  19
HETATM   19  C           1     -20.103  -5.511  -6.812  0.00  0.00     0.197 C 
HETATM   20  O           1     -19.552  -6.609  -7.046  0.00  0.00    -0.646 OA
HETATM   21  O           1     -19.414  -4.528  -6.466  0.00  0.00    -0.646 OA
ENDBRANCH  18  19
BRANCH  18  22
HETATM   22  C           1     -21.937  -3.989  -7.483  0.00  0.00     0.094 C 
BRANCH  22  23
HETATM   23  C           1     -22.880  -4.115  -8.638  0.00  0.00     0.028 A 
HETATM   24  C           1     -22.589  -4.762  -9.817  0.00  0.00     0.114 A 
HETATM   25  N           1     -23.718  -4.635 -10.577  0.00  0.00    -0.360 N 
HETATM   26  H           1     -23.859  -5.011 -11.547  0.00  0.00     0.166 HD
HETATM   27  C           1     -24.632  -3.932  -9.843  0.00  0.00     0.180 A 
HETATM   28  N           1     -24.152  -3.605  -8.666  0.00  0.00    -0.354 N 
ATOM     29  HN          1     -24.624  -3.081  -7.929  1.00  0.00     0.166 HD
ENDBRANCH  22  23
ENDBRANCH  18  22
ENDBRANCH   3  18
TORSDOF 8
ENDMDL
MODEL 4
REMARK VINA RESULT:      -6.3     14.034     16.076
REMARK  8 active torsions:
REMARK  status: ('A' for Active; 'I' for Inactive)
REMARK    1  A    between atoms: C_3  and  C_6 
REMARK    2  A    between atoms: C_6  and  C_7 
REMARK    3  A    between atoms: C_6  and  N_27 
REMARK    4  A    between atoms: C_7  and  C_11 
REMARK    5  A    between atoms: C_8  and  C_29 
REMARK    6  A    between atoms: C_8  and  C_9 
REMARK    7  A    between atoms: N_23  and  C_29 
REMARK       I    between atoms: N_27  and  C_28 
REMARK    8  A    between atoms: C_28  and  C_29 
ROOT
HETATM    1  O           1     -22.916  -5.987  -5.143  0.00  0.00    -0.271 OA
HETATM    2  H           1     -21.499  -5.407  -2.763  0.00  0.00     0.163 HD
HETATM    3  N           1     -21.599  -6.222  -3.355  0.00  0.00    -0.344 N 
HETATM    4  C           1     -21.794  -6.070  -4.701  0.00  0.00     0.249 C 
ENDROOT
BRANCH   4   5
HETATM    5  C           1     -20.610  -6.006  -5.633  0.00  0.00     0.280 C 
BRANCH   5   6
HETATM    6  C           1     -20.358  -4.559  -6.036  0.00  0.00     0.101 C 
BRANCH   6   7
HETATM    7  C           1     -21.056  -4.272  -7.330  0.00  0.00     0.028 A 
HETATM    8  C           1     -20.447  -4.270  -8.562  0.00  0.00     0.114 A 
HETATM    9  N           1     -21.443  -3.964  -9.448  0.00  0.00    -0.360 N 
HETATM   10  C           1     -22.593  -3.797  -8.731  0.00  0.00     0.180 A 
HETATM   11  H           1     -21.340  -3.874 -10.490  0.00  0.00     0.166 HD
HETATM   12  N           1     -22.389  -3.977  -7.447  0.00  0.00    -0.355 N 
ATOM     13  HN          1     -23.076  -3.912  -6.695  1.00  0.00     0.166 HD
ENDBRANCH   6   7
ENDBRANCH   5   6
BRANCH   5  14
HETATM   14  N           1     -20.894  -6.824  -6.859  0.00  0.00    -0.066 N 
HETATM   15  H           1     -20.001  -7.010  -7.368  0.00  0.00     0.275 HD
HETATM   16  H           1     -21.548  -6.300  -7.482  0.00  0.00     0.275 HD
HETATM   17  H           1     -21.330  -7.731  -6.577  0.00  0.00     0.275 HD
ENDBRANCH   5  14
ENDBRANCH   4   5
BRANCH   3  18
HETATM   18  C           1     -21.535  -7.550  -2.778  0.00  0.00     0.191 C 
BRANCH  18  19
HETATM   19  C           1     -21.824  -7.469  -1.298  0.00  0.00     0.197 C 
HETATM   20  O           1     -22.727  -6.715  -0.878  0.00  0.00    -0.646 OA
HETATM   21  O           1     -21.160  -8.157  -0.493  0.00  0.00    -0.646 OA
ENDBRANCH  18  19
BRANCH  18  22
HETATM   22  C           1     -20.143  -8.130  -2.992  0.00  0.00     0.094 C 
BRANCH  22  23
HETATM   23  C           1     -20.183  -9.128  -4.107  0.00  0.00     0.028 A 
HETATM   24  C           1     -19.104  -9.471  -4.888  0.00  0.00     0.114 A 
HETATM   25  N           1     -19.585 -10.402  -5.766  0.00  0.00    -0.360 N 
HETATM   26  H           1     -19.037 -10.889  -6.517  0.00  0.00     0.166 HD
HETATM   27  C           1     -20.911 -10.584  -5.486  0.00  0.00     0.180 A 
HETATM   28  N           1     -21.299  -9.826  -4.488  0.00  0.00    -0.354 N 
ATOM     29  HN          1     -22.233  -9.769  -4.081  1.00  0.00     0.166 HD
ENDBRANCH  22  23
ENDBRANCH  18  22
ENDBRANCH   3  18
TORSDOF 8
ENDMDL
MODEL 5
REMARK VINA RESULT:      -5.9     15.189     16.937
REMARK  8 active torsions:
REMARK  status: ('A' for Active; 'I' for Inactive)
REMARK    1  A    between atoms: C_3  and  C_6 
REMARK    2  A    between atoms: C_6  and  C_7 
REMARK    3  A    between atoms: C_6  and  N_27 
REMARK    4  A    between atoms: C_7  and  C_11 
REMARK    5  A    between atoms: C_8  and  C_29 
REMARK    6  A    between atoms: C_8  and  C_9 
REMARK    7  A    between atoms: N_23  and  C_29 
REMARK       I    between atoms: N_27  and  C_28 
REMARK    8  A    between atoms: C_28  and  C_29 
ROOT
HETATM    1  O           1     -22.630  -5.839  -2.323  0.00  0.00    -0.271 OA
HETATM    2  H           1     -20.122  -6.972  -1.661  0.00  0.00     0.163 HD
HETATM    3  N           1     -20.986  -7.326  -2.050  0.00  0.00    -0.344 N 
HETATM    4  C           1     -21.769  -6.518  -2.830  0.00  0.00     0.249 C 
ENDROOT
BRANCH   4   5
HETATM    5  C           1     -21.556  -6.475  -4.323  0.00  0.00     0.280 C 
BRANCH   5   6
HETATM    6  C           1     -20.579  -5.357  -4.665  0.00  0.00     0.101 C 
BRANCH   6   7
HETATM    7  C           1     -20.555  -5.151  -6.148  0.00  0.00     0.028 A 
HETATM    8  C           1     -20.945  -3.996  -6.783  0.00  0.00     0.114 A 
HETATM    9  N           1     -20.760  -4.244  -8.114  0.00  0.00    -0.360 N 
HETATM   10  C           1     -20.274  -5.515  -8.232  0.00  0.00     0.180 A 
HETATM   11  H           1     -20.956  -3.578  -8.902  0.00  0.00     0.166 HD
HETATM   12  N           1     -20.140  -6.089  -7.058  0.00  0.00    -0.355 N 
ATOM     13  HN          1     -19.800  -7.030  -6.864  1.00  0.00     0.166 HD
ENDBRANCH   6   7
ENDBRANCH   5   6
BRANCH   5  14
HETATM   14  N           1     -22.866  -6.219  -5.007  0.00  0.00    -0.066 N 
HETATM   15  H           1     -23.507  -5.711  -4.355  0.00  0.00     0.275 HD
HETATM   16  H           1     -23.298  -7.129  -5.282  0.00  0.00     0.275 HD
HETATM   17  H           1     -22.705  -5.636  -5.860  0.00  0.00     0.275 HD
ENDBRANCH   5  14
ENDBRANCH   4   5
BRANCH   3  18
HETATM   18  C           1     -21.397  -8.691  -1.782  0.00  0.00     0.191 C 
BRANCH  18  19
HETATM   19  C           1     -21.845  -8.807  -0.345  0.00  0.00     0.197 C 
HETATM   20  O           1     -21.185  -9.498   0.461  0.00  0.00    -0.646 OA
HETATM   21  O           1     -22.875  -8.214   0.038  0.00  0.00    -0.646 OA
ENDBRANCH  18  19
BRANCH  18  22
HETATM   22  C           1     -20.223  -9.631  -2.025  0.00  0.00     0.094 C 
BRANCH  22  23
HETATM   23  C           1     -19.865  -9.617  -3.479  0.00  0.00     0.028 A 
HETATM   24  C           1     -20.668 -10.099  -4.486  0.00  0.00     0.114 A 
HETATM   25  N           1     -19.958  -9.888  -5.635  0.00  0.00    -0.360 N 
HETATM   26  H           1     -20.265 -10.134  -6.609  0.00  0.00     0.166 HD
HETATM   27  C           1     -18.777  -9.297  -5.286  0.00  0.00     0.180 A 
HETATM   28  N           1     -18.693  -9.121  -3.988  0.00  0.00    -0.354 N 
ATOM     29  HN          1     -17.920  -8.704  -3.469  1.00  0.00     0.166 HD
ENDBRANCH  22  23
ENDBRANCH  18  22
ENDBRANCH   3  18
TORSDOF 8
ENDMDL
MODEL 6
REMARK VINA RESULT:      -5.8     14.669     16.577
REMARK  8 active torsions:
REMARK  status: ('A' for Active; 'I' for Inactive)
REMARK    1  A    between atoms: C_3  and  C_6 
REMARK    2  A    between atoms: C_6  and  C_7 
REMARK    3  A    between atoms: C_6  and  N_27 
REMARK    4  A    between atoms: C_7  and  C_11 
REMARK    5  A    between atoms: C_8  and  C_29 
REMARK    6  A    between atoms: C_8  and  C_9 
REMARK    7  A    between atoms: N_23  and  C_29 
REMARK       I    between atoms: N_27  and  C_28 
REMARK    8  A    between atoms: C_28  and  C_29 
ROOT
HETATM    1  O           1     -19.778  -7.529  -6.035  0.00  0.00    -0.271 OA
HETATM    2  H           1     -21.675  -9.396  -5.073  0.00  0.00     0.163 HD
HETATM    3  N           1     -21.096  -8.683  -4.649  0.00  0.00    -0.344 N 
HETATM    4  C           1     -20.776  -7.553  -5.354  0.00  0.00     0.249 C 
ENDROOT
BRANCH   4   5
HETATM    5  C           1     -21.668  -6.339  -5.278  0.00  0.00     0.280 C 
BRANCH   5   6
HETATM    6  C           1     -20.961  -5.149  -5.914  0.00  0.00     0.101 C 
BRANCH   6   7
HETATM    7  C           1     -21.658  -4.774  -7.185  0.00  0.00     0.028 A 
HETATM    8  C           1     -21.090  -4.838  -8.435  0.00  0.00     0.114 A 
HETATM    9  N           1     -22.068  -4.411  -9.290  0.00  0.00    -0.360 N 
HETATM   10  C           1     -23.168  -4.111  -8.538  0.00  0.00     0.180 A 
HETATM   11  H           1     -21.987  -4.329 -10.334  0.00  0.00     0.166 HD
HETATM   12  N           1     -22.949  -4.320  -7.260  0.00  0.00    -0.355 N 
ATOM     13  HN          1     -23.600  -4.177  -6.489  1.00  0.00     0.166 HD
ENDBRANCH   6   7
ENDBRANCH   5   6
BRANCH   5  14
HETATM   14  N           1     -21.972  -6.031  -3.842  0.00  0.00    -0.066 N 
HETATM   15  H           1     -21.396  -6.646  -3.224  0.00  0.00     0.275 HD
HETATM   16  H           1     -22.986  -6.202  -3.657  0.00  0.00     0.275 HD
HETATM   17  H           1     -21.744  -5.030  -3.646  0.00  0.00     0.275 HD
ENDBRANCH   5  14
ENDBRANCH   4   5
BRANCH   3  18
HETATM   18  C           1     -20.605  -8.856  -3.296  0.00  0.00     0.191 C 
BRANCH  18  19
HETATM   19  C           1     -19.334  -9.670  -3.324  0.00  0.00     0.197 C 
HETATM   20  O           1     -19.325 -10.797  -3.866  0.00  0.00    -0.646 OA
HETATM   21  O           1     -18.291  -9.219  -2.805  0.00  0.00    -0.646 OA
ENDBRANCH  18  19
BRANCH  18  22
HETATM   22  C           1     -21.654  -9.582  -2.465  0.00  0.00     0.094 C 
BRANCH  22  23
HETATM   23  C           1     -21.637  -9.050  -1.065  0.00  0.00     0.028 A 
HETATM   24  C           1     -22.253  -7.888  -0.663  0.00  0.00     0.114 A 
HETATM   25  N           1     -21.985  -7.790   0.674  0.00  0.00    -0.360 N 
HETATM   26  H           1     -22.300  -7.022   1.316  0.00  0.00     0.166 HD
HETATM   27  C           1     -21.234  -8.877   1.023  0.00  0.00     0.180 A 
HETATM   28  N           1     -21.008  -9.656  -0.009  0.00  0.00    -0.354 N 
ATOM     29  HN          1     -20.477 -10.527  -0.022  1.00  0.00     0.166 HD
ENDBRANCH  22  23
ENDBRANCH  18  22
ENDBRANCH   3  18
TORSDOF 8
ENDMDL
MODEL 7
REMARK VINA RESULT:      -5.8     15.587     17.202
REMARK  8 active torsions:
REMARK  status: ('A' for Active; 'I' for Inactive)
REMARK    1  A    between atoms: C_3  and  C_6 
REMARK    2  A    between atoms: C_6  and  C_7 
REMARK    3  A    between atoms: C_6  and  N_27 
REMARK    4  A    between atoms: C_7  and  C_11 
REMARK    5  A    between atoms: C_8  and  C_29 
REMARK    6  A    between atoms: C_8  and  C_9 
REMARK    7  A    between atoms: N_23  and  C_29 
REMARK       I    between atoms: N_27  and  C_28 
REMARK    8  A    between atoms: C_28  and  C_29 
ROOT
HETATM    1  O           1     -22.086  -5.885  -2.330  0.00  0.00    -0.271 OA
HETATM    2  H           1     -20.164  -7.569  -1.114  0.00  0.00     0.163 HD
HETATM    3  N           1     -21.096  -7.699  -1.483  0.00  0.00    -0.344 N 
HETATM    4  C           1     -21.529  -6.938  -2.535  0.00  0.00     0.249 C 
ENDROOT
BRANCH   4   5
HETATM    5  C           1     -21.312  -7.412  -3.950  0.00  0.00     0.280 C 
BRANCH   5   6
HETATM    6  C           1     -22.080  -6.513  -4.911  0.00  0.00     0.101 C 
BRANCH   6   7
HETATM    7  C           1     -21.127  -5.901  -5.891  0.00  0.00     0.028 A 
HETATM    8  C           1     -20.324  -4.817  -5.626  0.00  0.00     0.114 A 
HETATM    9  N           1     -19.628  -4.601  -6.783  0.00  0.00    -0.360 N 
HETATM   10  C           1     -20.029  -5.545  -7.686  0.00  0.00     0.180 A 
HETATM   11  H           1     -18.916  -3.847  -6.947  0.00  0.00     0.166 HD
HETATM   12  N           1     -20.936  -6.345  -7.173  0.00  0.00    -0.355 N 
ATOM     13  HN          1     -21.399  -7.130  -7.632  1.00  0.00     0.166 HD
ENDBRANCH   6   7
ENDBRANCH   5   6
BRANCH   5  14
HETATM   14  N           1     -21.804  -8.823  -4.085  0.00  0.00    -0.066 N 
HETATM   15  H           1     -21.137  -9.472  -3.611  0.00  0.00     0.275 HD
HETATM   16  H           1     -21.873  -9.072  -5.097  0.00  0.00     0.275 HD
HETATM   17  H           1     -22.746  -8.907  -3.639  0.00  0.00     0.275 HD
ENDBRANCH   5  14
ENDBRANCH   4   5
BRANCH   3  18
HETATM   18  C           1     -21.976  -8.693  -0.898  0.00  0.00     0.191 C 
BRANCH  18  19
HETATM   19  C           1     -22.347  -8.273   0.503  0.00  0.00     0.197 C 
HETATM   20  O           1     -23.525  -7.951   0.768  0.00  0.00    -0.646 OA
HETATM   21  O           1     -21.476  -8.246   1.399  0.00  0.00    -0.646 OA
ENDBRANCH  18  19
BRANCH  18  22
HETATM   22  C           1     -21.262 -10.038  -0.853  0.00  0.00     0.094 C 
BRANCH  22  23
HETATM   23  C           1     -22.260 -11.124  -0.597  0.00  0.00     0.028 A 
HETATM   24  C           1     -23.352 -11.385  -1.391  0.00  0.00     0.114 A 
HETATM   25  N           1     -23.979 -12.444  -0.794  0.00  0.00    -0.360 N 
HETATM   26  H           1     -24.855 -12.916  -1.127  0.00  0.00     0.166 HD
HETATM   27  C           1     -23.254 -12.777   0.317  0.00  0.00     0.180 A 
HETATM   28  N           1     -22.210 -11.995   0.460  0.00  0.00    -0.354 N 
ATOM     29  HN          1     -21.509 -12.029   1.201  1.00  0.00     0.166 HD
ENDBRANCH  22  23
ENDBRANCH  18  22
ENDBRANCH   3  18
TORSDOF 8
ENDMDL
MODEL 8
REMARK VINA RESULT:      -5.7     15.732     18.479
REMARK  8 active torsions:
REMARK  status: ('A' for Active; 'I' for Inactive)
REMARK    1  A    between atoms: C_3  and  C_6 
REMARK    2  A    between atoms: C_6  and  C_7 
REMARK    3  A    between atoms: C_6  and  N_27 
REMARK    4  A    between atoms: C_7  and  C_11 
REMARK    5  A    between atoms: C_8  and  C_29 
REMARK    6  A    between atoms: C_8  and  C_9 
REMARK    7  A    between atoms: N_23  and  C_29 
REMARK       I    between atoms: N_27  and  C_28 
REMARK    8  A    between atoms: C_28  and  C_29 
ROOT
HETATM    1  O           1     -19.870 -10.078  -2.540  0.00  0.00    -0.271 OA
HETATM    2  H           1     -22.434  -9.269  -3.422  0.00  0.00     0.163 HD
HETATM    3  N           1     -21.503  -8.878  -3.479  0.00  0.00    -0.344 N 
HETATM    4  C           1     -20.416  -9.706  -3.552  0.00  0.00     0.249 C 
ENDROOT
BRANCH   4   5
HETATM    5  C           1     -19.899 -10.156  -4.896  0.00  0.00     0.280 C 
BRANCH   5   6
HETATM    6  C           1     -18.715  -9.288  -5.302  0.00  0.00     0.101 C 
BRANCH   6   7
HETATM    7  C           1     -17.549 -10.162  -5.646  0.00  0.00     0.028 A 
HETATM    8  C           1     -17.636 -11.337  -6.354  0.00  0.00     0.114 A 
HETATM    9  N           1     -16.351 -11.797  -6.436  0.00  0.00    -0.360 N 
HETATM   10  C           1     -15.551 -10.899  -5.788  0.00  0.00     0.180 A 
HETATM   11  H           1     -16.037 -12.679  -6.911  0.00  0.00     0.166 HD
HETATM   12  N           1     -16.249  -9.899  -5.300  0.00  0.00    -0.355 N 
ATOM     13  HN          1     -15.898  -9.098  -4.775  1.00  0.00     0.166 HD
ENDBRANCH   6   7
ENDBRANCH   5   6
BRANCH   5  14
HETATM   14  N           1     -20.988 -10.024  -5.920  0.00  0.00    -0.066 N 
HETATM   15  H           1     -20.672 -10.449  -6.821  0.00  0.00     0.275 HD
HETATM   16  H           1     -21.205  -9.014  -6.068  0.00  0.00     0.275 HD
HETATM   17  H           1     -21.843 -10.521  -5.582  0.00  0.00     0.275 HD
ENDBRANCH   5  14
ENDBRANCH   4   5
BRANCH   3  18
HETATM   18  C           1     -21.318  -7.439  -3.482  0.00  0.00     0.191 C 
BRANCH  18  19
HETATM   19  C           1     -21.828  -6.865  -2.182  0.00  0.00     0.197 C 
HETATM   20  O           1     -21.521  -7.406  -1.098  0.00  0.00    -0.646 OA
HETATM   21  O           1     -22.555  -5.849  -2.190  0.00  0.00    -0.646 OA
ENDBRANCH  18  19
BRANCH  18  22
HETATM   22  C           1     -22.094  -6.832  -4.644  0.00  0.00     0.094 C 
BRANCH  22  23
HETATM   23  C           1     -21.141  -6.163  -5.585  0.00  0.00     0.028 A 
HETATM   24  C           1     -20.462  -4.998  -5.313  0.00  0.00     0.114 A 
HETATM   25  N           1     -19.716  -4.754  -6.432  0.00  0.00    -0.360 N 
HETATM   26  H           1     -19.068  -3.942  -6.582  0.00  0.00     0.166 HD
HETATM   27  C           1     -19.966  -5.763  -7.320  0.00  0.00     0.180 A 
HETATM   28  N           1     -20.824  -6.628  -6.835  0.00  0.00    -0.354 N 
ATOM     29  HN          1     -21.180  -7.469  -7.290  1.00  0.00     0.166 HD
ENDBRANCH  22  23
ENDBRANCH  18  22
ENDBRANCH   3  18
TORSDOF 8
ENDMDL
MODEL 9
REMARK VINA RESULT:      -5.5     16.571     18.908
REMARK  8 active torsions:
REMARK  status: ('A' for Active; 'I' for Inactive)
REMARK    1  A    between atoms: C_3  and  C_6 
REMARK    2  A    between atoms: C_6  and  C_7 
REMARK    3  A    between atoms: C_6  and  N_27 
REMARK    4  A    between atoms: C_7  and  C_11 
REMARK    5  A    between atoms: C_8  and  C_29 
REMARK    6  A    between atoms: C_8  and  C_9 
REMARK    7  A    between atoms: N_23  and  C_29 
REMARK       I    between atoms: N_27  and  C_28 
REMARK    8  A    between atoms: C_28  and  C_29 
ROOT
HETATM    1  O           1     -20.082  -7.820  -6.043  0.00  0.00    -0.271 OA
HETATM    2  H           1     -19.283  -7.177  -3.406  0.00  0.00     0.163 HD
HETATM    3  N           1     -20.021  -7.737  -3.812  0.00  0.00    -0.344 N 
HETATM    4  C           1     -19.817  -8.378  -5.004  0.00  0.00     0.249 C 
ENDROOT
BRANCH   4   5
HETATM    5  C           1     -19.261  -9.780  -5.022  0.00  0.00     0.280 C 
BRANCH   5   6
HETATM    6  C           1     -17.808  -9.745  -5.478  0.00  0.00     0.101 C 
BRANCH   6   7
HETATM    7  C           1     -16.920 -10.176  -4.351  0.00  0.00     0.028 A 
HETATM    8  C           1     -16.858  -9.558  -3.125  0.00  0.00     0.114 A 
HETATM    9  N           1     -15.933 -10.272  -2.416  0.00  0.00    -0.360 N 
HETATM   10  C           1     -15.480 -11.275  -3.224  0.00  0.00     0.180 A 
HETATM   11  H           1     -15.627 -10.082  -1.429  0.00  0.00     0.166 HD
HETATM   12  N           1     -16.059 -11.242  -4.402  0.00  0.00    -0.355 N 
ATOM     13  HN          1     -15.903 -11.874  -5.187  1.00  0.00     0.166 HD
ENDBRANCH   6   7
ENDBRANCH   5   6
BRANCH   5  14
HETATM   14  N           1     -20.061 -10.623  -5.970  0.00  0.00    -0.066 N 
HETATM   15  H           1     -19.786 -10.400  -6.953  0.00  0.00     0.275 HD
HETATM   16  H           1     -21.078 -10.424  -5.838  0.00  0.00     0.275 HD
HETATM   17  H           1     -19.875 -11.634  -5.778  0.00  0.00     0.275 HD
ENDBRANCH   5  14
ENDBRANCH   4   5
BRANCH   3  18
HETATM   18  C           1     -21.296  -7.861  -3.133  0.00  0.00     0.191 C 
BRANCH  18  19
HETATM   19  C           1     -22.030  -6.544  -3.198  0.00  0.00     0.197 C 
HETATM   20  O           1     -22.201  -5.870  -2.159  0.00  0.00    -0.646 OA
HETATM   21  O           1     -22.468  -6.126  -4.291  0.00  0.00    -0.646 OA
ENDBRANCH  18  19
BRANCH  18  22
HETATM   22  C           1     -21.060  -8.238  -1.676  0.00  0.00     0.094 C 
BRANCH  22  23
HETATM   23  C           1     -22.093  -9.230  -1.243  0.00  0.00     0.028 A 
HETATM   24  C           1     -22.876  -9.103  -0.119  0.00  0.00     0.114 A 
HETATM   25  N           1     -23.667 -10.219  -0.111  0.00  0.00    -0.360 N 
HETATM   26  H           1     -24.394 -10.459   0.607  0.00  0.00     0.166 HD
HETATM   27  C           1     -23.339 -10.963  -1.210  0.00  0.00     0.180 A 
HETATM   28  N           1     -22.391 -10.389  -1.912  0.00  0.00    -0.354 N 
ATOM     29  HN          1     -21.964 -10.733  -2.773  1.00  0.00     0.166 HD
ENDBRANCH  22  23
ENDBRANCH  18  22
ENDBRANCH   3  18
TORSDOF 8
ENDMDL
