MODEL 1
REMARK VINA RESULT:      -6.6      0.000      0.000
REMARK  5 active torsions:
REMARK  status: ('A' for Active; 'I' for Inactive)
REMARK       I    between atoms: C_1  and  N_8 
REMARK    1  A    between atoms: C_1  and  C_9 
REMARK    2  A    between atoms: C_9  and  C_10 
REMARK    3  A    between atoms: C_10  and  C_11 
REMARK    4  A    between atoms: C_10  and  N_13 
REMARK       I    between atoms: N_13  and  C_16 
REMARK    5  A    between atoms: C_16  and  C_17 
ROOT
HETATM    1  C           1     -22.237  -4.356  -9.918  0.00  0.00     0.194 C 
ENDROOT
BRANCH   1   2
HETATM    2  C           1     -23.180  -3.162  -9.864  0.00  0.00     0.138 C 
BRANCH   2   3
HETATM    3  C           1     -24.580  -3.610 -10.205  0.00  0.00     0.217 C 
HETATM    4  O           1     -25.202  -3.041 -11.071  0.00  0.00    -0.274 OA
HETATM    5  N           1     -25.145  -4.660  -9.534  0.00  0.00    -0.370 N 
HETATM    6  H           1     -24.624  -5.137  -8.809  0.00  0.00     0.159 HD
HETATM    7  H           1     -26.084  -4.961  -9.763  0.00  0.00     0.159 HD
ENDBRANCH   2   3
ENDBRANCH   1   2
BRANCH   1   8
HETATM    8  C           1     -21.374  -4.259 -11.152  0.00  0.00     0.197 C 
HETATM    9  O           1     -21.894  -4.009 -12.261  0.00  0.00    -0.646 OA
HETATM   10  O           1     -20.138  -4.429 -11.066  0.00  0.00    -0.646 OA
ENDBRANCH   1   8
BRANCH   1  11
HETATM   11  N           1     -21.394  -4.362  -8.738  0.00  0.00    -0.344 N 
HETATM   12  H           1     -20.390  -4.273  -8.833  0.00  0.00     0.163 HD
HETATM   13  C           1     -21.955  -4.486  -7.496  0.00  0.00     0.251 C 
HETATM   14  O           1     -23.153  -4.592  -7.384  0.00  0.00    -0.271 OA
BRANCH  13  15
HETATM   15  C           1     -21.078  -4.491  -6.268  0.00  0.00     0.311 C 
HETATM   16  C           1     -19.679  -4.975  -6.605  0.00  0.00     0.047 C 
HETATM   17  C           1     -19.689  -6.468  -6.292  0.00  0.00     0.033 C 
HETATM   18  C           1     -21.092  -6.756  -5.786  0.00  0.00     0.271 C 
HETATM   19  N           1     -21.558  -5.464  -5.290  0.00  0.00     0.097 N 
HETATM   20  H           1     -21.151  -5.285  -4.373  0.00  0.00     0.317 HD
ENDBRANCH  13  15
ENDBRANCH   1  11
TORSDOF 5
ENDMDL
MODEL 2
REMARK VINA RESULT:      -5.7      3.719      6.621
REMARK  5 active torsions:
REMARK  status: ('A' for Active; 'I' for Inactive)
REMARK       I    between atoms: C_1  and  N_8 
REMARK    1  A    between atoms: C_1  and  C_9 
REMARK    2  A    between atoms: C_9  and  C_10 
REMARK    3  A    between atoms: C_10  and  C_11 
REMARK    4  A    between atoms: C_10  and  N_13 
REMARK       I    between atoms: N_13  and  C_16 
REMARK    5  A    between atoms: C_16  and  C_17 
ROOT
HETATM    1  C           1     -21.366  -7.298  -3.818  0.00  0.00     0.194 C 
ENDROOT
BRANCH   1   2
HETATM    2  C           1     -20.472  -8.532  -3.797  0.00  0.00     0.138 C 
BRANCH   2   3
HETATM    3  C           1     -20.230  -9.002  -5.211  0.00  0.00     0.217 C 
HETATM    4  O           1     -21.130  -8.977  -6.017  0.00  0.00    -0.274 OA
HETATM    5  N           1     -18.992  -9.455  -5.579  0.00  0.00    -0.370 N 
HETATM    6  H           1     -18.238  -9.475  -4.904  0.00  0.00     0.159 HD
HETATM    7  H           1     -18.830  -9.770  -6.527  0.00  0.00     0.159 HD
ENDBRANCH   2   3
ENDBRANCH   1   2
BRANCH   1   8
HETATM    8  C           1     -21.653  -6.863  -2.402  0.00  0.00     0.197 C 
HETATM    9  O           1     -22.412  -5.892  -2.188  0.00  0.00    -0.646 OA
HETATM   10  O           1     -21.132  -7.471  -1.443  0.00  0.00    -0.646 OA
ENDBRANCH   1   8
BRANCH   1  11
HETATM   11  N           1     -20.695  -6.226  -4.526  0.00  0.00    -0.344 N 
HETATM   12  H           1     -19.718  -6.031  -4.342  0.00  0.00     0.163 HD
HETATM   13  C           1     -21.380  -5.476  -5.444  0.00  0.00     0.251 C 
HETATM   14  O           1     -22.545  -5.709  -5.663  0.00  0.00    -0.271 OA
BRANCH  13  15
HETATM   15  C           1     -20.682  -4.360  -6.181  0.00  0.00     0.311 C 
HETATM   16  C           1     -21.566  -3.805  -7.284  0.00  0.00     0.047 C 
HETATM   17  C           1     -21.148  -4.556  -8.544  0.00  0.00     0.033 C 
HETATM   18  C           1     -20.042  -5.495  -8.096  0.00  0.00     0.271 C 
HETATM   19  N           1     -19.509  -4.861  -6.893  0.00  0.00     0.097 N 
HETATM   20  H           1     -18.892  -4.093  -7.159  0.00  0.00     0.317 HD
ENDBRANCH  13  15
ENDBRANCH   1  11
TORSDOF 5
ENDMDL
MODEL 3
REMARK VINA RESULT:      -5.7     18.116     20.073
REMARK  5 active torsions:
REMARK  status: ('A' for Active; 'I' for Inactive)
REMARK       I    between atoms: C_1  and  N_8 
REMARK    1  A    between atoms: C_1  and  C_9 
REMARK    2  A    between atoms: C_9  and  C_10 
REMARK    3  A    between atoms: C_10  and  C_11 
REMARK    4  A    between atoms: C_10  and  N_13 
REMARK       I    between atoms: N_13  and  C_16 
REMARK    5  A    between atoms: C_16  and  C_17 
ROOT
HETATM    1  C           1     -11.790   8.504 -19.837  0.00  0.00     0.194 C 
ENDROOT
BRANCH   1   2
HETATM    2  C           1     -11.053   9.252 -20.941  0.00  0.00     0.138 C 
BRANCH   2   3
HETATM    3  C           1      -9.578   8.942 -20.862  0.00  0.00     0.217 C 
HETATM    4  O           1      -8.767   9.819 -21.040  0.00  0.00    -0.274 OA
HETATM    5  N           1      -9.161   7.668 -20.588  0.00  0.00    -0.370 N 
HETATM    6  H           1      -9.841   6.933 -20.438  0.00  0.00     0.159 HD
HETATM    7  H           1      -8.172   7.459 -20.535  0.00  0.00     0.159 HD
ENDBRANCH   2   3
ENDBRANCH   1   2
BRANCH   1   8
HETATM    8  C           1     -12.809   9.419 -19.204  0.00  0.00     0.197 C 
HETATM    9  O           1     -12.983   9.399 -17.966  0.00  0.00    -0.646 OA
HETATM   10  O           1     -13.480  10.196 -19.916  0.00  0.00    -0.646 OA
ENDBRANCH   1   8
BRANCH   1  11
HETATM   11  N           1     -12.462   7.349 -20.400  0.00  0.00    -0.344 N 
HETATM   12  H           1     -13.147   7.471 -21.135  0.00  0.00     0.163 HD
HETATM   13  C           1     -12.169   6.094 -19.939  0.00  0.00     0.251 C 
HETATM   14  O           1     -11.351   5.949 -19.062  0.00  0.00    -0.271 OA
BRANCH  13  15
HETATM   15  C           1     -12.868   4.892 -20.526  0.00  0.00     0.311 C 
HETATM   16  C           1     -12.086   3.621 -20.243  0.00  0.00     0.047 C 
HETATM   17  C           1     -11.221   3.403 -21.480  0.00  0.00     0.033 C 
HETATM   18  C           1     -11.561   4.557 -22.408  0.00  0.00     0.271 C 
HETATM   19  N           1     -12.897   4.966 -21.984  0.00  0.00     0.097 N 
HETATM   20  H           1     -13.587   4.320 -22.365  0.00  0.00     0.317 HD
ENDBRANCH  13  15
ENDBRANCH   1  11
TORSDOF 5
ENDMDL
MODEL 4
REMARK VINA RESULT:      -5.7     17.959     19.653
REMARK  5 active torsions:
REMARK  status: ('A' for Active; 'I' for Inactive)
REMARK       I    between atoms: C_1  and  N_8 
REMARK    1  A    between atoms: C_1  and  C_9 
REMARK    2  A    between atoms: C_9  and  C_10 
REMARK    3  A    between atoms: C_10  and  C_11 
REMARK    4  A    between atoms: C_10  and  N_13 
REMARK       I    between atoms: N_13  and  C_16 
REMARK    5  A    between atoms: C_16  and  C_17 
ROOT
HETATM    1  C           1     -11.146   8.192 -20.220  0.00  0.00     0.194 C 
ENDROOT
BRANCH   1   2
HETATM    2  C           1     -11.395   9.043 -18.981  0.00  0.00     0.138 C 
BRANCH   2   3
HETATM    3  C           1     -12.799   9.594 -19.023  0.00  0.00     0.217 C 
HETATM    4  O           1     -13.635   9.173 -18.260  0.00  0.00    -0.274 OA
HETATM    5  N           1     -13.125  10.571 -19.925  0.00  0.00    -0.370 N 
HETATM    6  H           1     -12.424  10.924 -20.564  0.00  0.00     0.159 HD
HETATM    7  H           1     -14.066  10.940 -19.953  0.00  0.00     0.159 HD
ENDBRANCH   2   3
ENDBRANCH   1   2
BRANCH   1   8
HETATM    8  C           1      -9.718   8.372 -20.674  0.00  0.00     0.197 C 
HETATM    9  O           1      -9.299   9.508 -20.985  0.00  0.00    -0.646 OA
HETATM   10  O           1      -8.954   7.385 -20.739  0.00  0.00    -0.646 OA
ENDBRANCH   1   8
BRANCH   1  11
HETATM   11  N           1     -11.380   6.796 -19.904  0.00  0.00    -0.344 N 
HETATM   12  H           1     -10.707   6.284 -19.347  0.00  0.00     0.163 HD
HETATM   13  C           1     -12.511   6.172 -20.356  0.00  0.00     0.251 C 
HETATM   14  O           1     -13.313   6.784 -21.020  0.00  0.00    -0.271 OA
BRANCH  13  15
HETATM   15  C           1     -12.755   4.720 -20.027  0.00  0.00     0.311 C 
HETATM   16  C           1     -11.442   3.974 -19.864  0.00  0.00     0.047 C 
HETATM   17  C           1     -11.165   3.355 -21.229  0.00  0.00     0.033 C 
HETATM   18  C           1     -12.338   3.773 -22.099  0.00  0.00     0.271 C 
HETATM   19  N           1     -13.408   4.036 -21.141  0.00  0.00     0.097 N 
HETATM   20  H           1     -13.815   3.153 -20.834  0.00  0.00     0.317 HD
ENDBRANCH  13  15
ENDBRANCH   1  11
TORSDOF 5
ENDMDL
MODEL 5
REMARK VINA RESULT:      -5.5      1.738      2.092
REMARK  5 active torsions:
REMARK  status: ('A' for Active; 'I' for Inactive)
REMARK       I    between atoms: C_1  and  N_8 
REMARK    1  A    between atoms: C_1  and  C_9 
REMARK    2  A    between atoms: C_9  and  C_10 
REMARK    3  A    between atoms: C_10  and  C_11 
REMARK    4  A    between atoms: C_10  and  N_13 
REMARK       I    between atoms: N_13  and  C_16 
REMARK    5  A    between atoms: C_16  and  C_17 
ROOT
HETATM    1  C           1     -21.944  -4.600  -8.598  0.00  0.00     0.194 C 
ENDROOT
BRANCH   1   2
HETATM    2  C           1     -23.061  -3.598  -8.857  0.00  0.00     0.138 C 
BRANCH   2   3
HETATM    3  C           1     -24.125  -4.239  -9.715  0.00  0.00     0.217 C 
HETATM    4  O           1     -23.849  -5.188 -10.409  0.00  0.00    -0.274 OA
HETATM    5  N           1     -25.402  -3.747  -9.704  0.00  0.00    -0.370 N 
HETATM    6  H           1     -25.633  -2.952  -9.121  0.00  0.00     0.159 HD
HETATM    7  H           1     -26.115  -4.177 -10.279  0.00  0.00     0.159 HD
ENDBRANCH   2   3
ENDBRANCH   1   2
BRANCH   1   8
HETATM    8  C           1     -20.680  -4.129  -9.275  0.00  0.00     0.197 C 
HETATM    9  O           1     -20.521  -4.314 -10.501  0.00  0.00    -0.646 OA
HETATM   10  O           1     -19.791  -3.554  -8.610  0.00  0.00    -0.646 OA
ENDBRANCH   1   8
BRANCH   1  11
HETATM   11  N           1     -21.715  -4.712  -7.171  0.00  0.00    -0.344 N 
HETATM   12  H           1     -22.073  -4.002  -6.544  0.00  0.00     0.163 HD
HETATM   13  C           1     -21.015  -5.776  -6.670  0.00  0.00     0.251 C 
HETATM   14  O           1     -20.587  -6.623  -7.419  0.00  0.00    -0.271 OA
BRANCH  13  15
HETATM   15  C           1     -20.777  -5.893  -5.185  0.00  0.00     0.311 C 
HETATM   16  C           1     -20.180  -7.245  -4.838  0.00  0.00     0.047 C 
HETATM   17  C           1     -21.371  -8.119  -4.458  0.00  0.00     0.033 C 
HETATM   18  C           1     -22.585  -7.216  -4.600  0.00  0.00     0.271 C 
HETATM   19  N           1     -22.040  -5.870  -4.452  0.00  0.00     0.097 N 
HETATM   20  H           1     -21.881  -5.674  -3.464  0.00  0.00     0.317 HD
ENDBRANCH  13  15
ENDBRANCH   1  11
TORSDOF 5
ENDMDL
MODEL 6
REMARK VINA RESULT:      -5.5      6.125      8.164
REMARK  5 active torsions:
REMARK  status: ('A' for Active; 'I' for Inactive)
REMARK       I    between atoms: C_1  and  N_8 
REMARK    1  A    between atoms: C_1  and  C_9 
REMARK    2  A    between atoms: C_9  and  C_10 
REMARK    3  A    between atoms: C_10  and  C_11 
REMARK    4  A    between atoms: C_10  and  N_13 
REMARK       I    between atoms: N_13  and  C_16 
REMARK    5  A    between atoms: C_16  and  C_17 
ROOT
HETATM    1  C           1     -20.979  -7.819  -3.524  0.00  0.00     0.194 C 
ENDROOT
BRANCH   1   2
HETATM    2  C           1     -21.281  -8.570  -4.815  0.00  0.00     0.138 C 
BRANCH   2   3
HETATM    3  C           1     -20.097  -9.429  -5.186  0.00  0.00     0.217 C 
HETATM    4  O           1     -20.236 -10.347  -5.959  0.00  0.00    -0.274 OA
HETATM    5  N           1     -18.866  -9.169  -4.646  0.00  0.00    -0.370 N 
HETATM    6  H           1     -18.750  -8.400  -3.998  0.00  0.00     0.159 HD
HETATM    7  H           1     -18.073  -9.745  -4.895  0.00  0.00     0.159 HD
ENDBRANCH   2   3
ENDBRANCH   1   2
BRANCH   1   8
HETATM    8  C           1     -21.482  -6.401  -3.639  0.00  0.00     0.197 C 
HETATM    9  O           1     -22.296  -5.957  -2.800  0.00  0.00    -0.646 OA
HETATM   10  O           1     -21.087  -5.671  -4.573  0.00  0.00    -0.646 OA
ENDBRANCH   1   8
BRANCH   1  11
HETATM   11  N           1     -21.641  -8.478  -2.414  0.00  0.00    -0.344 N 
HETATM   12  H           1     -22.641  -8.384  -2.295  0.00  0.00     0.163 HD
HETATM   13  C           1     -20.912  -9.226  -1.529  0.00  0.00     0.251 C 
HETATM   14  O           1     -19.718  -9.337  -1.674  0.00  0.00    -0.271 OA
BRANCH  13  15
HETATM   15  C           1     -21.600  -9.912  -0.375  0.00  0.00     0.311 C 
HETATM   16  C           1     -23.070  -9.533  -0.320  0.00  0.00     0.047 C 
HETATM   17  C           1     -23.143  -8.368   0.661  0.00  0.00     0.033 C 
HETATM   18  C           1     -21.712  -8.147   1.120  0.00  0.00     0.271 C 
HETATM   19  N           1     -21.071  -9.440   0.901  0.00  0.00     0.097 N 
HETATM   20  H           1     -21.324 -10.077   1.656  0.00  0.00     0.317 HD
ENDBRANCH  13  15
ENDBRANCH   1  11
TORSDOF 5
ENDMDL
MODEL 7
REMARK VINA RESULT:      -5.5     18.078     19.628
REMARK  5 active torsions:
REMARK  status: ('A' for Active; 'I' for Inactive)
REMARK       I    between atoms: C_1  and  N_8 
REMARK    1  A    between atoms: C_1  and  C_9 
REMARK    2  A    between atoms: C_9  and  C_10 
REMARK    3  A    between atoms: C_10  and  C_11 
REMARK    4  A    between atoms: C_10  and  N_13 
REMARK       I    between atoms: N_13  and  C_16 
REMARK    5  A    between atoms: C_16  and  C_17 
ROOT
HETATM    1  C           1     -10.777   6.842 -21.245  0.00  0.00     0.194 C 
ENDROOT
BRANCH   1   2
HETATM    2  C           1     -11.080   8.322 -21.049  0.00  0.00     0.138 C 
BRANCH   2   3
HETATM    3  C           1     -11.277   8.607 -19.580  0.00  0.00     0.217 C 
HETATM    4  O           1     -12.377   8.520 -19.091  0.00  0.00    -0.274 OA
HETATM    5  N           1     -10.208   8.961 -18.802  0.00  0.00    -0.370 N 
HETATM    6  H           1      -9.285   9.033 -19.212  0.00  0.00     0.159 HD
HETATM    7  H           1     -10.340   9.152 -17.817  0.00  0.00     0.159 HD
ENDBRANCH   2   3
ENDBRANCH   1   2
BRANCH   1   8
HETATM    8  C           1      -9.566   6.466 -20.427  0.00  0.00     0.197 C 
HETATM    9  O           1      -9.699   5.768 -19.398  0.00  0.00    -0.646 OA
HETATM   10  O           1      -8.430   6.851 -20.778  0.00  0.00    -0.646 OA
ENDBRANCH   1   8
BRANCH   1  11
HETATM   11  N           1     -11.915   6.054 -20.814  0.00  0.00    -0.344 N 
HETATM   12  H           1     -12.448   6.337 -20.000  0.00  0.00     0.163 HD
HETATM   13  C           1     -12.270   4.928 -21.505  0.00  0.00     0.251 C 
HETATM   14  O           1     -11.634   4.590 -22.476  0.00  0.00    -0.271 OA
BRANCH  13  15
HETATM   15  C           1     -13.454   4.107 -21.057  0.00  0.00     0.311 C 
HETATM   16  C           1     -13.891   3.147 -22.149  0.00  0.00     0.047 C 
HETATM   17  C           1     -15.002   3.875 -22.898  0.00  0.00     0.033 C 
HETATM   18  C           1     -15.147   5.210 -22.189  0.00  0.00     0.271 C 
HETATM   19  N           1     -14.626   4.954 -20.850  0.00  0.00     0.097 N 
HETATM   20  H           1     -15.331   4.467 -20.298  0.00  0.00     0.317 HD
ENDBRANCH  13  15
ENDBRANCH   1  11
TORSDOF 5
ENDMDL
MODEL 8
REMARK VINA RESULT:      -5.4      5.623      7.473
REMARK  5 active torsions:
REMARK  status: ('A' for Active; 'I' for Inactive)
REMARK       I    between atoms: C_1  and  N_8 
REMARK    1  A    between atoms: C_1  and  C_9 
REMARK    2  A    between atoms: C_9  and  C_10 
REMARK    3  A    between atoms: C_10  and  C_11 
REMARK    4  A    between atoms: C_10  and  N_13 
REMARK       I    between atoms: N_13  and  C_16 
REMARK    5  A    between atoms: C_16  and  C_17 
ROOT
HETATM    1  C           1     -20.647  -8.601  -4.407  0.00  0.00     0.194 C 
ENDROOT
BRANCH   1   2
HETATM    2  C           1     -20.572  -7.162  -4.903  0.00  0.00     0.138 C 
BRANCH   2   3
HETATM    3  C           1     -21.720  -6.370  -4.327  0.00  0.00     0.217 C 
HETATM    4  O           1     -21.625  -5.883  -3.226  0.00  0.00    -0.274 OA
HETATM    5  N           1     -22.869  -6.204  -5.053  0.00  0.00    -0.370 N 
HETATM    6  H           1     -22.948  -6.612  -5.976  0.00  0.00     0.159 HD
HETATM    7  H           1     -23.639  -5.673  -4.667  0.00  0.00     0.159 HD
ENDBRANCH   2   3
ENDBRANCH   1   2
BRANCH   1   8
HETATM    8  C           1     -19.517  -9.399  -5.008  0.00  0.00     0.197 C 
HETATM    9  O           1     -19.739 -10.179  -5.959  0.00  0.00    -0.646 OA
HETATM   10  O           1     -18.358  -9.282  -4.554  0.00  0.00    -0.646 OA
ENDBRANCH   1   8
BRANCH   1  11
HETATM   11  N           1     -20.538  -8.621  -2.961  0.00  0.00    -0.344 N 
HETATM   12  H           1     -19.853  -8.037  -2.497  0.00  0.00     0.163 HD
HETATM   13  C           1     -21.360  -9.429  -2.223  0.00  0.00     0.251 C 
HETATM   14  O           1     -22.177 -10.126  -2.777  0.00  0.00    -0.271 OA
BRANCH  13  15
HETATM   15  C           1     -21.246  -9.450  -0.718  0.00  0.00     0.311 C 
HETATM   16  C           1     -22.542  -9.927  -0.086  0.00  0.00     0.047 C 
HETATM   17  C           1     -23.314  -8.655   0.245  0.00  0.00     0.033 C 
HETATM   18  C           1     -22.416  -7.517  -0.210  0.00  0.00     0.271 C 
HETATM   19  N           1     -21.077  -8.100  -0.190  0.00  0.00     0.097 N 
HETATM   20  H           1     -20.732  -8.127   0.769  0.00  0.00     0.317 HD
ENDBRANCH  13  15
ENDBRANCH   1  11
TORSDOF 5
ENDMDL
MODEL 9
REMARK VINA RESULT:      -5.2      5.952      8.552
REMARK  5 active torsions:
REMARK  status: ('A' for Active; 'I' for Inactive)
REMARK       I    between atoms: C_1  and  N_8 
REMARK    1  A    between atoms: C_1  and  C_9 
REMARK    2  A    between atoms: C_9  and  C_10 
REMARK    3  A    between atoms: C_10  and  C_11 
REMARK    4  A    between atoms: C_10  and  N_13 
REMARK       I    between atoms: N_13  and  C_16 
REMARK    5  A    between atoms: C_16  and  C_17 
ROOT
HETATM    1  C           1     -21.286  -7.766  -2.835  0.00  0.00     0.194 C 
ENDROOT
BRANCH   1   2
HETATM    2  C           1     -21.481  -7.272  -4.263  0.00  0.00     0.138 C 
BRANCH   2   3
HETATM    3  C           1     -20.256  -7.600  -5.081  0.00  0.00     0.217 C 
HETATM    4  O           1     -19.462  -8.416  -4.677  0.00  0.00    -0.274 OA
HETATM    5  N           1     -20.045  -6.975  -6.280  0.00  0.00    -0.370 N 
HETATM    6  H           1     -20.711  -6.292  -6.619  0.00  0.00     0.159 HD
HETATM    7  H           1     -19.224  -7.195  -6.829  0.00  0.00     0.159 HD
ENDBRANCH   2   3
ENDBRANCH   1   2
BRANCH   1   8
HETATM    8  C           1     -21.952  -6.809  -1.878  0.00  0.00     0.197 C 
HETATM    9  O           1     -22.318  -7.206  -0.750  0.00  0.00    -0.646 OA
HETATM   10  O           1     -22.138  -5.619  -2.211  0.00  0.00    -0.646 OA
ENDBRANCH   1   8
BRANCH   1  11
HETATM   11  N           1     -21.879  -9.082  -2.693  0.00  0.00    -0.344 N 
HETATM   12  H           1     -22.819  -9.252  -3.027  0.00  0.00     0.163 HD
HETATM   13  C           1     -21.167 -10.095  -2.110  0.00  0.00     0.251 C 
HETATM   14  O           1     -20.044  -9.891  -1.712  0.00  0.00    -0.271 OA
BRANCH  13  15
HETATM   15  C           1     -21.783 -11.464  -1.962  0.00  0.00     0.311 C 
HETATM   16  C           1     -23.299 -11.377  -1.963  0.00  0.00     0.047 C 
HETATM   17  C           1     -23.694 -11.320  -0.491  0.00  0.00     0.033 C 
HETATM   18  C           1     -22.383 -11.385   0.273  0.00  0.00     0.271 C 
HETATM   19  N           1     -21.467 -12.039  -0.657  0.00  0.00     0.097 N 
HETATM   20  H           1     -21.639 -13.044  -0.654  0.00  0.00     0.317 HD
ENDBRANCH  13  15
ENDBRANCH   1  11
TORSDOF 5
ENDMDL
