MODEL 1
REMARK VINA RESULT:      -5.9      0.000      0.000
REMARK  8 active torsions:
REMARK  status: ('A' for Active; 'I' for Inactive)
REMARK       I    between atoms: C_2  and  N_3 
REMARK    1  A    between atoms: C_2  and  C_12 
REMARK    2  A    between atoms: N_3  and  C_7 
REMARK    3  A    between atoms: C_5  and  C_14 
REMARK    4  A    between atoms: C_5  and  C_6 
REMARK    5  A    between atoms: C_6  and  N_20 
REMARK    6  A    between atoms: C_7  and  C_8 
REMARK    7  A    between atoms: C_12  and  C_14 
REMARK    8  A    between atoms: C_12  and  N_19 
ROOT
HETATM    1  C           1     -21.215  -5.796  -6.930  0.00  0.00     0.274 C 
ENDROOT
BRANCH   1   2
HETATM    2  C           1     -21.678  -4.603  -7.728  0.00  0.00     0.249 C 
HETATM    3  N           1     -22.200  -4.778  -8.982  0.00  0.00    -0.345 N 
HETATM    4  H           1     -22.276  -5.708  -9.372  0.00  0.00     0.163 HD
HETATM    5  O           1     -21.586  -3.492  -7.263  0.00  0.00    -0.271 OA
BRANCH   3   6
HETATM    6  C           1     -22.644  -3.631  -9.749  0.00  0.00     0.181 C 
HETATM    7  C           1     -21.767  -3.477 -10.985  0.00  0.00     0.043 C 
BRANCH   6   8
HETATM    8  C           1     -24.078  -3.835 -10.171  0.00  0.00     0.196 C 
HETATM    9  O           1     -24.684  -2.930 -10.785  0.00  0.00    -0.646 OA
HETATM   10  O           1     -24.661  -4.910  -9.907  0.00  0.00    -0.646 OA
ENDBRANCH   6   8
ENDBRANCH   3   6
ENDBRANCH   1   2
BRANCH   1  11
HETATM   11  C           1     -21.140  -5.424  -5.455  0.00  0.00     0.044 C 
BRANCH  11  12
HETATM   12  C           1     -21.963  -6.414  -4.639  0.00  0.00     0.030 C 
BRANCH  12  13
HETATM   13  C           1     -21.401  -6.500  -3.227  0.00  0.00     0.230 C 
BRANCH  13  14
HETATM   14  N           1     -22.376  -5.894  -2.262  0.00  0.00    -0.079 N 
HETATM   15  H           1     -23.089  -6.609  -1.994  0.00  0.00     0.274 HD
HETATM   16  H           1     -21.867  -5.572  -1.408  0.00  0.00     0.274 HD
HETATM   17  H           1     -22.850  -5.079  -2.712  0.00  0.00     0.274 HD
ENDBRANCH  13  14
ENDBRANCH  12  13
ENDBRANCH  11  12
ENDBRANCH   1  11
BRANCH   1  18
HETATM   18  N           1     -19.858  -6.221  -7.407  0.00  0.00    -0.067 N 
HETATM   19  H           1     -19.175  -6.153  -6.619  0.00  0.00     0.275 HD
HETATM   20  H           1     -19.552  -5.598  -8.188  0.00  0.00     0.275 HD
HETATM   21  H           1     -19.900  -7.208  -7.746  0.00  0.00     0.275 HD
ENDBRANCH   1  18
TORSDOF 8
ENDMDL
MODEL 2
REMARK VINA RESULT:      -5.6     11.241     13.346
REMARK  8 active torsions:
REMARK  status: ('A' for Active; 'I' for Inactive)
REMARK       I    between atoms: C_2  and  N_3 
REMARK    1  A    between atoms: C_2  and  C_12 
REMARK    2  A    between atoms: N_3  and  C_7 
REMARK    3  A    between atoms: C_5  and  C_14 
REMARK    4  A    between atoms: C_5  and  C_6 
REMARK    5  A    between atoms: C_6  and  N_20 
REMARK    6  A    between atoms: C_7  and  C_8 
REMARK    7  A    between atoms: C_12  and  C_14 
REMARK    8  A    between atoms: C_12  and  N_19 
ROOT
HETATM    1  C           1     -25.027  -6.902 -19.749  0.00  0.00     0.274 C 
ENDROOT
BRANCH   1   2
HETATM    2  C           1     -26.439  -6.656 -19.281  0.00  0.00     0.249 C 
HETATM    3  N           1     -26.690  -6.410 -17.958  0.00  0.00    -0.345 N 
HETATM    4  H           1     -25.927  -6.392 -17.294  0.00  0.00     0.163 HD
HETATM    5  O           1     -27.351  -6.679 -20.074  0.00  0.00    -0.271 OA
BRANCH   3   6
HETATM    6  C           1     -28.047  -6.173 -17.508  0.00  0.00     0.181 C 
HETATM    7  C           1     -28.262  -6.855 -16.163  0.00  0.00     0.043 C 
BRANCH   6   8
HETATM    8  C           1     -28.277  -4.689 -17.363  0.00  0.00     0.196 C 
HETATM    9  O           1     -27.644  -4.039 -16.504  0.00  0.00    -0.646 OA
HETATM   10  O           1     -29.101  -4.109 -18.104  0.00  0.00    -0.646 OA
ENDBRANCH   6   8
ENDBRANCH   3   6
ENDBRANCH   1   2
BRANCH   1  11
HETATM   11  C           1     -25.035  -7.927 -20.876  0.00  0.00     0.044 C 
BRANCH  11  12
HETATM   12  C           1     -24.269  -7.373 -22.071  0.00  0.00     0.030 C 
BRANCH  12  13
HETATM   13  C           1     -23.206  -8.374 -22.502  0.00  0.00     0.230 C 
BRANCH  13  14
HETATM   14  N           1     -22.635  -9.052 -21.292  0.00  0.00    -0.079 N 
HETATM   15  H           1     -22.816  -8.464 -20.448  0.00  0.00     0.274 HD
HETATM   16  H           1     -23.088  -9.986 -21.170  0.00  0.00     0.274 HD
HETATM   17  H           1     -21.606  -9.178 -21.417  0.00  0.00     0.274 HD
ENDBRANCH  13  14
ENDBRANCH  12  13
ENDBRANCH  11  12
ENDBRANCH   1  11
BRANCH   1  18
HETATM   18  N           1     -24.205  -7.423 -18.607  0.00  0.00    -0.067 N 
HETATM   19  H           1     -23.328  -7.855 -18.977  0.00  0.00     0.275 HD
HETATM   20  H           1     -24.754  -8.142 -18.083  0.00  0.00     0.275 HD
HETATM   21  H           1     -23.961  -6.636 -17.965  0.00  0.00     0.275 HD
ENDBRANCH   1  18
TORSDOF 8
ENDMDL
MODEL 3
REMARK VINA RESULT:      -5.5     10.306     12.163
REMARK  8 active torsions:
REMARK  status: ('A' for Active; 'I' for Inactive)
REMARK       I    between atoms: C_2  and  N_3 
REMARK    1  A    between atoms: C_2  and  C_12 
REMARK    2  A    between atoms: N_3  and  C_7 
REMARK    3  A    between atoms: C_5  and  C_14 
REMARK    4  A    between atoms: C_5  and  C_6 
REMARK    5  A    between atoms: C_6  and  N_20 
REMARK    6  A    between atoms: C_7  and  C_8 
REMARK    7  A    between atoms: C_12  and  C_14 
REMARK    8  A    between atoms: C_12  and  N_19 
ROOT
HETATM    1  C           1     -24.912  -6.745 -17.226  0.00  0.00     0.274 C 
ENDROOT
BRANCH   1   2
HETATM    2  C           1     -26.170  -6.936 -16.415  0.00  0.00     0.249 C 
HETATM    3  N           1     -27.384  -6.586 -16.941  0.00  0.00    -0.345 N 
HETATM    4  H           1     -27.438  -6.199 -17.875  0.00  0.00     0.163 HD
HETATM    5  O           1     -26.106  -7.397 -15.300  0.00  0.00    -0.271 OA
BRANCH   3   6
HETATM    6  C           1     -28.593  -6.769 -16.162  0.00  0.00     0.181 C 
HETATM    7  C           1     -28.920  -5.479 -15.422  0.00  0.00     0.043 C 
BRANCH   6   8
HETATM    8  C           1     -29.734  -7.126 -17.083  0.00  0.00     0.196 C 
HETATM    9  O           1     -30.685  -6.329 -17.238  0.00  0.00    -0.646 OA
HETATM   10  O           1     -29.729  -8.218 -17.691  0.00  0.00    -0.646 OA
ENDBRANCH   6   8
ENDBRANCH   3   6
ENDBRANCH   1   2
BRANCH   1  11
HETATM   11  C           1     -25.260  -6.732 -18.708  0.00  0.00     0.044 C 
BRANCH  11  12
HETATM   12  C           1     -24.148  -7.412 -19.497  0.00  0.00     0.030 C 
BRANCH  12  13
HETATM   13  C           1     -24.670  -7.812 -20.870  0.00  0.00     0.230 C 
BRANCH  13  14
HETATM   14  N           1     -26.149  -8.051 -20.794  0.00  0.00    -0.079 N 
HETATM   15  H           1     -26.519  -7.654 -19.902  0.00  0.00     0.274 HD
HETATM   16  H           1     -26.618  -7.585 -21.603  0.00  0.00     0.274 HD
HETATM   17  H           1     -26.337  -9.078 -20.826  0.00  0.00     0.274 HD
ENDBRANCH  13  14
ENDBRANCH  12  13
ENDBRANCH  11  12
ENDBRANCH   1  11
BRANCH   1  18
HETATM   18  N           1     -23.961  -7.870 -16.946  0.00  0.00    -0.067 N 
HETATM   19  H           1     -24.312  -8.430 -16.136  0.00  0.00     0.275 HD
HETATM   20  H           1     -23.018  -7.481 -16.719  0.00  0.00     0.275 HD
HETATM   21  H           1     -23.890  -8.484 -17.788  0.00  0.00     0.275 HD
ENDBRANCH   1  18
TORSDOF 8
ENDMDL
MODEL 4
REMARK VINA RESULT:      -5.4      2.819      6.163
REMARK  8 active torsions:
REMARK  status: ('A' for Active; 'I' for Inactive)
REMARK       I    between atoms: C_2  and  N_3 
REMARK    1  A    between atoms: C_2  and  C_12 
REMARK    2  A    between atoms: N_3  and  C_7 
REMARK    3  A    between atoms: C_5  and  C_14 
REMARK    4  A    between atoms: C_5  and  C_6 
REMARK    5  A    between atoms: C_6  and  N_20 
REMARK    6  A    between atoms: C_7  and  C_8 
REMARK    7  A    between atoms: C_12  and  C_14 
REMARK    8  A    between atoms: C_12  and  N_19 
ROOT
HETATM    1  C           1     -20.564  -4.958  -6.624  0.00  0.00     0.274 C 
ENDROOT
BRANCH   1   2
HETATM    2  C           1     -21.450  -5.752  -5.697  0.00  0.00     0.249 C 
HETATM    3  N           1     -20.900  -6.671  -4.844  0.00  0.00    -0.345 N 
HETATM    4  H           1     -19.899  -6.818  -4.836  0.00  0.00     0.163 HD
HETATM    5  O           1     -22.646  -5.578  -5.706  0.00  0.00    -0.271 OA
BRANCH   3   6
HETATM    6  C           1     -21.752  -7.435  -3.953  0.00  0.00     0.181 C 
HETATM    7  C           1     -21.320  -8.895  -3.967  0.00  0.00     0.043 C 
BRANCH   6   8
HETATM    8  C           1     -21.632  -6.887  -2.553  0.00  0.00     0.196 C 
HETATM    9  O           1     -20.844  -7.415  -1.739  0.00  0.00    -0.646 OA
HETATM   10  O           1     -22.322  -5.903  -2.205  0.00  0.00    -0.646 OA
ENDBRANCH   6   8
ENDBRANCH   3   6
ENDBRANCH   1   2
BRANCH   1  11
HETATM   11  C           1     -21.375  -3.844  -7.273  0.00  0.00     0.044 C 
BRANCH  11  12
HETATM   12  C           1     -21.461  -4.086  -8.774  0.00  0.00     0.030 C 
BRANCH  12  13
HETATM   13  C           1     -22.919  -4.061  -9.211  0.00  0.00     0.230 C 
BRANCH  13  14
HETATM   14  N           1     -23.805  -4.043  -8.001  0.00  0.00    -0.079 N 
HETATM   15  H           1     -23.233  -4.240  -7.149  0.00  0.00     0.274 HD
HETATM   16  H           1     -24.252  -3.103  -7.911  0.00  0.00     0.274 HD
HETATM   17  H           1     -24.546  -4.773  -8.102  0.00  0.00     0.274 HD
ENDBRANCH  13  14
ENDBRANCH  12  13
ENDBRANCH  11  12
ENDBRANCH   1  11
BRANCH   1  18
HETATM   18  N           1     -20.017  -5.861  -7.688  0.00  0.00    -0.067 N 
HETATM   19  H           1     -18.992  -5.688  -7.800  0.00  0.00     0.275 HD
HETATM   20  H           1     -20.504  -5.669  -8.593  0.00  0.00     0.275 HD
HETATM   21  H           1     -20.173  -6.857  -7.415  0.00  0.00     0.275 HD
ENDBRANCH   1  18
TORSDOF 8
ENDMDL
MODEL 5
REMARK VINA RESULT:      -5.1     10.375     12.012
REMARK  8 active torsions:
REMARK  status: ('A' for Active; 'I' for Inactive)
REMARK       I    between atoms: C_2  and  N_3 
REMARK    1  A    between atoms: C_2  and  C_12 
REMARK    2  A    between atoms: N_3  and  C_7 
REMARK    3  A    between atoms: C_5  and  C_14 
REMARK    4  A    between atoms: C_5  and  C_6 
REMARK    5  A    between atoms: C_6  and  N_20 
REMARK    6  A    between atoms: C_7  and  C_8 
REMARK    7  A    between atoms: C_12  and  C_14 
REMARK    8  A    between atoms: C_12  and  N_19 
ROOT
HETATM    1  C           1     -27.960  -6.265 -15.828  0.00  0.00     0.274 C 
ENDROOT
BRANCH   1   2
HETATM    2  C           1     -29.067  -6.034 -16.826  0.00  0.00     0.249 C 
HETATM    3  N           1     -30.307  -5.645 -16.395  0.00  0.00    -0.345 N 
HETATM    4  H           1     -30.481  -5.512 -15.407  0.00  0.00     0.163 HD
HETATM    5  O           1     -28.861  -6.194 -18.006  0.00  0.00    -0.271 OA
BRANCH   3   6
HETATM    6  C           1     -31.372  -5.423 -17.354  0.00  0.00     0.181 C 
HETATM    7  C           1     -32.348  -6.591 -17.308  0.00  0.00     0.043 C 
BRANCH   6   8
HETATM    8  C           1     -32.099  -4.146 -17.010  0.00  0.00     0.196 C 
HETATM    9  O           1     -32.873  -4.112 -16.029  0.00  0.00    -0.646 OA
HETATM   10  O           1     -31.926  -3.122 -17.706  0.00  0.00    -0.646 OA
ENDBRANCH   6   8
ENDBRANCH   3   6
ENDBRANCH   1   2
BRANCH   1  11
HETATM   11  C           1     -26.624  -5.887 -16.454  0.00  0.00     0.044 C 
BRANCH  11  12
HETATM   12  C           1     -25.537  -6.818 -15.932  0.00  0.00     0.030 C 
BRANCH  12  13
HETATM   13  C           1     -24.587  -7.177 -17.067  0.00  0.00     0.230 C 
BRANCH  13  14
HETATM   14  N           1     -23.491  -8.056 -16.544  0.00  0.00    -0.079 N 
HETATM   15  H           1     -23.792  -9.055 -16.594  0.00  0.00     0.274 HD
HETATM   16  H           1     -22.631  -7.922 -17.123  0.00  0.00     0.274 HD
HETATM   17  H           1     -23.285  -7.802 -15.552  0.00  0.00     0.274 HD
ENDBRANCH  13  14
ENDBRANCH  12  13
ENDBRANCH  11  12
ENDBRANCH   1  11
BRANCH   1  18
HETATM   18  N           1     -27.935  -7.712 -15.435  0.00  0.00    -0.067 N 
HETATM   19  H           1     -28.562  -7.861 -14.613  0.00  0.00     0.275 HD
HETATM   20  H           1     -26.959  -7.989 -15.185  0.00  0.00     0.275 HD
HETATM   21  H           1     -28.266  -8.297 -16.235  0.00  0.00     0.275 HD
ENDBRANCH   1  18
TORSDOF 8
ENDMDL
MODEL 6
REMARK VINA RESULT:      -5.1      2.876      6.034
REMARK  8 active torsions:
REMARK  status: ('A' for Active; 'I' for Inactive)
REMARK       I    between atoms: C_2  and  N_3 
REMARK    1  A    between atoms: C_2  and  C_12 
REMARK    2  A    between atoms: N_3  and  C_7 
REMARK    3  A    between atoms: C_5  and  C_14 
REMARK    4  A    between atoms: C_5  and  C_6 
REMARK    5  A    between atoms: C_6  and  N_20 
REMARK    6  A    between atoms: C_7  and  C_8 
REMARK    7  A    between atoms: C_12  and  C_14 
REMARK    8  A    between atoms: C_12  and  N_19 
ROOT
HETATM    1  C           1     -22.175  -4.316  -7.285  0.00  0.00     0.274 C 
ENDROOT
BRANCH   1   2
HETATM    2  C           1     -21.384  -5.123  -6.286  0.00  0.00     0.249 C 
HETATM    3  N           1     -22.034  -5.891  -5.358  0.00  0.00    -0.345 N 
HETATM    4  H           1     -23.045  -5.918  -5.342  0.00  0.00     0.163 HD
HETATM    5  O           1     -20.176  -5.090  -6.304  0.00  0.00    -0.271 OA
BRANCH   3   6
HETATM    6  C           1     -21.273  -6.667  -4.398  0.00  0.00     0.181 C 
HETATM    7  C           1     -21.807  -6.402  -2.996  0.00  0.00     0.043 C 
BRANCH   6   8
HETATM    8  C           1     -21.408  -8.135  -4.719  0.00  0.00     0.196 C 
HETATM    9  O           1     -21.750  -8.941  -3.828  0.00  0.00    -0.646 OA
HETATM   10  O           1     -21.176  -8.544  -5.878  0.00  0.00    -0.646 OA
ENDBRANCH   6   8
ENDBRANCH   3   6
ENDBRANCH   1   2
BRANCH   1  11
HETATM   11  C           1     -22.015  -4.924  -8.672  0.00  0.00     0.044 C 
BRANCH  11  12
HETATM   12  C           1     -22.665  -4.012  -9.705  0.00  0.00     0.030 C 
BRANCH  12  13
HETATM   13  C           1     -23.905  -4.689 -10.273  0.00  0.00     0.230 C 
BRANCH  13  14
HETATM   14  N           1     -25.131  -4.105  -9.637  0.00  0.00    -0.079 N 
HETATM   15  H           1     -25.050  -4.175  -8.598  0.00  0.00     0.274 HD
HETATM   16  H           1     -25.221  -3.101  -9.913  0.00  0.00     0.274 HD
HETATM   17  H           1     -25.974  -4.632  -9.959  0.00  0.00     0.274 HD
ENDBRANCH  13  14
ENDBRANCH  12  13
ENDBRANCH  11  12
ENDBRANCH   1  11
BRANCH   1  18
HETATM   18  N           1     -21.671  -2.903  -7.299  0.00  0.00    -0.067 N 
HETATM   19  H           1     -22.112  -2.383  -8.090  0.00  0.00     0.275 HD
HETATM   20  H           1     -20.633  -2.905  -7.418  0.00  0.00     0.275 HD
HETATM   21  H           1     -21.915  -2.437  -6.397  0.00  0.00     0.275 HD
ENDBRANCH   1  18
TORSDOF 8
ENDMDL
MODEL 7
REMARK VINA RESULT:      -4.9     11.822     13.113
REMARK  8 active torsions:
REMARK  status: ('A' for Active; 'I' for Inactive)
REMARK       I    between atoms: C_2  and  N_3 
REMARK    1  A    between atoms: C_2  and  C_12 
REMARK    2  A    between atoms: N_3  and  C_7 
REMARK    3  A    between atoms: C_5  and  C_14 
REMARK    4  A    between atoms: C_5  and  C_6 
REMARK    5  A    between atoms: C_6  and  N_20 
REMARK    6  A    between atoms: C_7  and  C_8 
REMARK    7  A    between atoms: C_12  and  C_14 
REMARK    8  A    between atoms: C_12  and  N_19 
ROOT
HETATM    1  C           1     -28.677  -5.491 -16.841  0.00  0.00     0.274 C 
ENDROOT
BRANCH   1   2
HETATM    2  C           1     -28.116  -6.257 -18.014  0.00  0.00     0.249 C 
HETATM    3  N           1     -26.790  -6.141 -18.336  0.00  0.00    -0.345 N 
HETATM    4  H           1     -26.187  -5.542 -17.787  0.00  0.00     0.163 HD
HETATM    5  O           1     -28.836  -6.971 -18.670  0.00  0.00    -0.271 OA
BRANCH   3   6
HETATM    6  C           1     -26.250  -6.876 -19.463  0.00  0.00     0.181 C 
HETATM    7  C           1     -26.463  -6.075 -20.740  0.00  0.00     0.043 C 
BRANCH   6   8
HETATM    8  C           1     -24.774  -7.105 -19.252  0.00  0.00     0.196 C 
HETATM    9  O           1     -24.100  -7.690 -20.127  0.00  0.00    -0.646 OA
HETATM   10  O           1     -24.224  -6.709 -18.201  0.00  0.00    -0.646 OA
ENDBRANCH   6   8
ENDBRANCH   3   6
ENDBRANCH   1   2
BRANCH   1  11
HETATM   11  C           1     -30.190  -5.662 -16.800  0.00  0.00     0.044 C 
BRANCH  11  12
HETATM   12  C           1     -30.860  -4.339 -17.149  0.00  0.00     0.030 C 
BRANCH  12  13
HETATM   13  C           1     -32.345  -4.419 -16.823  0.00  0.00     0.230 C 
BRANCH  13  14
HETATM   14  N           1     -33.060  -3.261 -17.453  0.00  0.00    -0.079 N 
HETATM   15  H           1     -33.729  -3.615 -18.172  0.00  0.00     0.274 HD
HETATM   16  H           1     -33.583  -2.734 -16.718  0.00  0.00     0.274 HD
HETATM   17  H           1     -32.363  -2.627 -17.906  0.00  0.00     0.274 HD
ENDBRANCH  13  14
ENDBRANCH  12  13
ENDBRANCH  11  12
ENDBRANCH   1  11
BRANCH   1  18
HETATM   18  N           1     -28.342  -4.037 -16.987  0.00  0.00    -0.067 N 
HETATM   19  H           1     -28.859  -3.641 -17.806  0.00  0.00     0.275 HD
HETATM   20  H           1     -27.314  -3.929 -17.139  0.00  0.00     0.275 HD
HETATM   21  H           1     -28.621  -3.526 -16.120  0.00  0.00     0.275 HD
ENDBRANCH   1  18
TORSDOF 8
ENDMDL
MODEL 8
REMARK VINA RESULT:      -4.9     10.630     13.058
REMARK  8 active torsions:
REMARK  status: ('A' for Active; 'I' for Inactive)
REMARK       I    between atoms: C_2  and  N_3 
REMARK    1  A    between atoms: C_2  and  C_12 
REMARK    2  A    between atoms: N_3  and  C_7 
REMARK    3  A    between atoms: C_5  and  C_14 
REMARK    4  A    between atoms: C_5  and  C_6 
REMARK    5  A    between atoms: C_6  and  N_20 
REMARK    6  A    between atoms: C_7  and  C_8 
REMARK    7  A    between atoms: C_12  and  C_14 
REMARK    8  A    between atoms: C_12  and  N_19 
ROOT
HETATM    1  C           1     -30.744  -4.362 -16.971  0.00  0.00     0.274 C 
ENDROOT
BRANCH   1   2
HETATM    2  C           1     -29.784  -5.490 -17.259  0.00  0.00     0.249 C 
HETATM    3  N           1     -28.444  -5.325 -17.027  0.00  0.00    -0.345 N 
HETATM    4  H           1     -28.099  -4.447 -16.661  0.00  0.00     0.163 HD
HETATM    5  O           1     -30.196  -6.538 -17.697  0.00  0.00    -0.271 OA
BRANCH   3   6
HETATM    6  C           1     -27.521  -6.408 -17.304  0.00  0.00     0.181 C 
HETATM    7  C           1     -26.850  -6.170 -18.650  0.00  0.00     0.043 C 
BRANCH   6   8
HETATM    8  C           1     -26.473  -6.464 -16.221  0.00  0.00     0.196 C 
HETATM    9  O           1     -25.580  -5.590 -16.168  0.00  0.00    -0.646 OA
HETATM   10  O           1     -26.497  -7.384 -15.374  0.00  0.00    -0.646 OA
ENDBRANCH   6   8
ENDBRANCH   3   6
ENDBRANCH   1   2
BRANCH   1  11
HETATM   11  C           1     -32.171  -4.895 -16.978  0.00  0.00     0.044 C 
BRANCH  11  12
HETATM   12  C           1     -33.148  -3.729 -16.894  0.00  0.00     0.030 C 
BRANCH  12  13
HETATM   13  C           1     -34.159  -3.992 -15.787  0.00  0.00     0.230 C 
BRANCH  13  14
HETATM   14  N           1     -34.588  -5.428 -15.829  0.00  0.00    -0.079 N 
HETATM   15  H           1     -35.611  -5.480 -16.028  0.00  0.00     0.274 HD
HETATM   16  H           1     -34.061  -5.926 -16.582  0.00  0.00     0.274 HD
HETATM   17  H           1     -34.386  -5.878 -14.908  0.00  0.00     0.274 HD
ENDBRANCH  13  14
ENDBRANCH  12  13
ENDBRANCH  11  12
ENDBRANCH   1  11
BRANCH   1  18
HETATM   18  N           1     -30.601  -3.303 -18.023  0.00  0.00    -0.067 N 
HETATM   19  H           1     -30.965  -3.665 -18.934  0.00  0.00     0.275 HD
HETATM   20  H           1     -29.593  -3.048 -18.126  0.00  0.00     0.275 HD
HETATM   21  H           1     -31.147  -2.457 -17.743  0.00  0.00     0.275 HD
ENDBRANCH   1  18
TORSDOF 8
ENDMDL
MODEL 9
REMARK VINA RESULT:      -4.9      1.727      2.106
REMARK  8 active torsions:
REMARK  status: ('A' for Active; 'I' for Inactive)
REMARK       I    between atoms: C_2  and  N_3 
REMARK    1  A    between atoms: C_2  and  C_12 
REMARK    2  A    between atoms: N_3  and  C_7 
REMARK    3  A    between atoms: C_5  and  C_14 
REMARK    4  A    between atoms: C_5  and  C_6 
REMARK    5  A    between atoms: C_6  and  N_20 
REMARK    6  A    between atoms: C_7  and  C_8 
REMARK    7  A    between atoms: C_12  and  C_14 
REMARK    8  A    between atoms: C_12  and  N_19 
ROOT
HETATM    1  C           1     -21.457  -5.264  -5.875  0.00  0.00     0.274 C 
ENDROOT
BRANCH   1   2
HETATM    2  C           1     -21.642  -4.363  -7.071  0.00  0.00     0.249 C 
HETATM    3  N           1     -22.665  -4.595  -7.951  0.00  0.00    -0.345 N 
HETATM    4  H           1     -23.297  -5.370  -7.799  0.00  0.00     0.163 HD
HETATM    5  O           1     -20.888  -3.437  -7.253  0.00  0.00    -0.271 OA
BRANCH   3   6
HETATM    6  C           1     -22.843  -3.729  -9.100  0.00  0.00     0.181 C 
HETATM    7  C           1     -21.923  -4.184 -10.226  0.00  0.00     0.043 C 
BRANCH   6   8
HETATM    8  C           1     -24.278  -3.798  -9.563  0.00  0.00     0.196 C 
HETATM    9  O           1     -24.983  -2.766  -9.571  0.00  0.00    -0.646 OA
HETATM   10  O           1     -24.761  -4.888  -9.939  0.00  0.00    -0.646 OA
ENDBRANCH   6   8
ENDBRANCH   3   6
ENDBRANCH   1   2
BRANCH   1  11
HETATM   11  C           1     -20.513  -6.402  -6.237  0.00  0.00     0.044 C 
BRANCH  11  12
HETATM   12  C           1     -21.038  -7.705  -5.648  0.00  0.00     0.030 C 
BRANCH  12  13
HETATM   13  C           1     -20.068  -8.212  -4.590  0.00  0.00     0.230 C 
BRANCH  13  14
HETATM   14  N           1     -19.055  -9.115  -5.230  0.00  0.00    -0.079 N 
HETATM   15  H           1     -19.481  -9.577  -6.064  0.00  0.00     0.274 HD
HETATM   16  H           1     -18.227  -8.552  -5.528  0.00  0.00     0.274 HD
HETATM   17  H           1     -18.754  -9.842  -4.543  0.00  0.00     0.274 HD
ENDBRANCH  13  14
ENDBRANCH  12  13
ENDBRANCH  11  12
ENDBRANCH   1  11
BRANCH   1  18
HETATM   18  N           1     -22.784  -5.828  -5.464  0.00  0.00    -0.067 N 
HETATM   19  H           1     -23.551  -5.234  -5.853  0.00  0.00     0.275 HD
HETATM   20  H           1     -22.849  -5.842  -4.421  0.00  0.00     0.275 HD
HETATM   21  H           1     -22.878  -6.802  -5.830  0.00  0.00     0.275 HD
ENDBRANCH   1  18
TORSDOF 8
ENDMDL
