MODEL 1
REMARK VINA RESULT:      -5.8      0.000      0.000
REMARK  6 active torsions:
REMARK  status: ('A' for Active; 'I' for Inactive)
REMARK    1  A    between atoms: C_4  and  C_13 
REMARK    2  A    between atoms: C_6  and  C_15 
REMARK    3  A    between atoms: N_12  and  C_13 
REMARK       I    between atoms: N_12  and  C_16 
REMARK    4  A    between atoms: N_14  and  C_17 
REMARK    5  A    between atoms: C_15  and  C_17 
REMARK    6  A    between atoms: C_16  and  C_17 
ROOT
HETATM    1  C           1     -29.078  -6.431 -16.129  0.00  0.00     0.278 C 
ENDROOT
BRANCH   1   2
HETATM    2  N           1     -29.774  -5.773 -14.975  0.00  0.00    -0.066 N 
HETATM    3  H           1     -30.602  -5.240 -15.326  0.00  0.00     0.275 HD
HETATM    4  H           1     -30.092  -6.505 -14.298  0.00  0.00     0.275 HD
HETATM    5  H           1     -29.116  -5.118 -14.497  0.00  0.00     0.275 HD
ENDBRANCH   1   2
BRANCH   1   6
HETATM    6  C           1     -29.742  -6.004 -17.432  0.00  0.00     0.021 C 
HETATM    7  C           1     -30.321  -7.226 -18.130  0.00  0.00     0.012 C 
BRANCH   6   8
HETATM    8  C           1     -30.860  -5.015 -17.129  0.00  0.00     0.002 C 
HETATM    9  C           1     -30.494  -3.647 -17.690  0.00  0.00     0.005 C 
ENDBRANCH   6   8
ENDBRANCH   1   6
BRANCH   1  10
HETATM   10  C           1     -27.627  -6.015 -16.143  0.00  0.00     0.249 C 
HETATM   11  O           1     -27.321  -4.904 -16.507  0.00  0.00    -0.271 OA
HETATM   12  N           1     -26.659  -6.896 -15.744  0.00  0.00    -0.349 N 
HETATM   13  H           1     -26.916  -7.826 -15.439  0.00  0.00     0.163 HD
BRANCH  12  14
HETATM   14  C           1     -25.265  -6.498 -15.757  0.00  0.00     0.235 C 
BRANCH  14  15
HETATM   15  C           1     -24.502  -7.362 -16.729  0.00  0.00     0.191 C 
HETATM   16  O           1     -24.035  -8.460 -16.356  0.00  0.00    -0.647 OA
HETATM   17  O           1     -24.337  -6.982 -17.908  0.00  0.00    -0.647 OA
ENDBRANCH  14  15
ENDBRANCH  12  14
ENDBRANCH   1  10
TORSDOF 6
ENDMDL
MODEL 2
REMARK VINA RESULT:      -5.5      2.861      3.303
REMARK  6 active torsions:
REMARK  status: ('A' for Active; 'I' for Inactive)
REMARK    1  A    between atoms: C_4  and  C_13 
REMARK    2  A    between atoms: C_6  and  C_15 
REMARK    3  A    between atoms: N_12  and  C_13 
REMARK       I    between atoms: N_12  and  C_16 
REMARK    4  A    between atoms: N_14  and  C_17 
REMARK    5  A    between atoms: C_15  and  C_17 
REMARK    6  A    between atoms: C_16  and  C_17 
ROOT
HETATM    1  C           1     -28.602  -6.136 -18.041  0.00  0.00     0.278 C 
ENDROOT
BRANCH   1   2
HETATM    2  N           1     -29.167  -7.476 -17.674  0.00  0.00    -0.066 N 
HETATM    3  H           1     -28.426  -8.206 -17.774  0.00  0.00     0.275 HD
HETATM    4  H           1     -29.503  -7.453 -16.684  0.00  0.00     0.275 HD
HETATM    5  H           1     -29.966  -7.704 -18.307  0.00  0.00     0.275 HD
ENDBRANCH   1   2
BRANCH   1   6
HETATM    6  C           1     -28.756  -5.181 -16.865  0.00  0.00     0.021 C 
HETATM    7  C           1     -28.834  -3.750 -17.379  0.00  0.00     0.012 C 
BRANCH   6   8
HETATM    8  C           1     -30.032  -5.517 -16.105  0.00  0.00     0.002 C 
HETATM    9  C           1     -31.199  -4.745 -16.706  0.00  0.00     0.005 C 
ENDBRANCH   6   8
ENDBRANCH   1   6
BRANCH   1  10
HETATM   10  C           1     -27.139  -6.284 -18.383  0.00  0.00     0.249 C 
HETATM   11  O           1     -26.298  -6.061 -17.545  0.00  0.00    -0.271 OA
HETATM   12  N           1     -26.766  -6.670 -19.642  0.00  0.00    -0.349 N 
HETATM   13  H           1     -27.471  -6.857 -20.343  0.00  0.00     0.163 HD
BRANCH  12  14
HETATM   14  C           1     -25.361  -6.813 -19.971  0.00  0.00     0.235 C 
BRANCH  14  15
HETATM   15  C           1     -25.197  -7.870 -21.034  0.00  0.00     0.191 C 
HETATM   16  O           1     -26.187  -8.529 -21.418  0.00  0.00    -0.647 OA
HETATM   17  O           1     -24.070  -8.087 -21.530  0.00  0.00    -0.647 OA
ENDBRANCH  14  15
ENDBRANCH  12  14
ENDBRANCH   1  10
TORSDOF 6
ENDMDL
MODEL 3
REMARK VINA RESULT:      -5.5      9.164     11.351
REMARK  6 active torsions:
REMARK  status: ('A' for Active; 'I' for Inactive)
REMARK    1  A    between atoms: C_4  and  C_13 
REMARK    2  A    between atoms: C_6  and  C_15 
REMARK    3  A    between atoms: N_12  and  C_13 
REMARK       I    between atoms: N_12  and  C_16 
REMARK    4  A    between atoms: N_14  and  C_17 
REMARK    5  A    between atoms: C_15  and  C_17 
REMARK    6  A    between atoms: C_16  and  C_17 
ROOT
HETATM    1  C           1     -22.395  -4.546  -6.674  0.00  0.00     0.278 C 
ENDROOT
BRANCH   1   2
HETATM    2  N           1     -23.793  -5.009  -6.393  0.00  0.00    -0.066 N 
HETATM    3  H           1     -23.970  -5.909  -6.895  0.00  0.00     0.275 HD
HETATM    4  H           1     -23.911  -5.155  -5.364  0.00  0.00     0.275 HD
HETATM    5  H           1     -24.473  -4.287  -6.722  0.00  0.00     0.275 HD
ENDBRANCH   1   2
BRANCH   1   6
HETATM    6  C           1     -21.404  -5.567  -6.130  0.00  0.00     0.021 C 
HETATM    7  C           1     -20.233  -4.842  -5.480  0.00  0.00     0.012 C 
BRANCH   6   8
HETATM    8  C           1     -22.096  -6.442  -5.094  0.00  0.00     0.002 C 
HETATM    9  C           1     -21.424  -6.254  -3.739  0.00  0.00     0.005 C 
ENDBRANCH   6   8
ENDBRANCH   1   6
BRANCH   1  10
HETATM   10  C           1     -22.203  -4.402  -8.164  0.00  0.00     0.249 C 
HETATM   11  O           1     -21.426  -5.123  -8.745  0.00  0.00    -0.271 OA
HETATM   12  N           1     -22.909  -3.456  -8.857  0.00  0.00    -0.349 N 
HETATM   13  H           1     -23.559  -2.853  -8.369  0.00  0.00     0.163 HD
BRANCH  12  14
HETATM   14  C           1     -22.725  -3.317 -10.288  0.00  0.00     0.235 C 
BRANCH  14  15
HETATM   15  C           1     -23.951  -3.823 -11.005  0.00  0.00     0.191 C 
HETATM   16  O           1     -23.857  -4.776 -11.809  0.00  0.00    -0.647 OA
HETATM   17  O           1     -25.063  -3.290 -10.796  0.00  0.00    -0.647 OA
ENDBRANCH  14  15
ENDBRANCH  12  14
ENDBRANCH   1  10
TORSDOF 6
ENDMDL
MODEL 4
REMARK VINA RESULT:      -5.3      1.410      2.136
REMARK  6 active torsions:
REMARK  status: ('A' for Active; 'I' for Inactive)
REMARK    1  A    between atoms: C_4  and  C_13 
REMARK    2  A    between atoms: C_6  and  C_15 
REMARK    3  A    between atoms: N_12  and  C_13 
REMARK       I    between atoms: N_12  and  C_16 
REMARK    4  A    between atoms: N_14  and  C_17 
REMARK    5  A    between atoms: C_15  and  C_17 
REMARK    6  A    between atoms: C_16  and  C_17 
ROOT
HETATM    1  C           1     -28.854  -5.290 -15.876  0.00  0.00     0.278 C 
ENDROOT
BRANCH   1   2
HETATM    2  N           1     -28.322  -4.154 -16.699  0.00  0.00    -0.066 N 
HETATM    3  H           1     -27.853  -3.460 -16.073  0.00  0.00     0.275 HD
HETATM    4  H           1     -27.632  -4.521 -17.392  0.00  0.00     0.275 HD
HETATM    5  H           1     -29.110  -3.690 -17.204  0.00  0.00     0.275 HD
ENDBRANCH   1   2
BRANCH   1   6
HETATM    6  C           1     -30.027  -5.936 -16.601  0.00  0.00     0.021 C 
HETATM    7  C           1     -31.188  -4.953 -16.665  0.00  0.00     0.012 C 
BRANCH   6   8
HETATM    8  C           1     -29.603  -6.311 -18.015  0.00  0.00     0.002 C 
HETATM    9  C           1     -30.108  -7.710 -18.342  0.00  0.00     0.005 C 
ENDBRANCH   6   8
ENDBRANCH   1   6
BRANCH   1  10
HETATM   10  C           1     -27.764  -6.313 -15.667  0.00  0.00     0.249 C 
HETATM   11  O           1     -27.996  -7.324 -15.047  0.00  0.00    -0.271 OA
HETATM   12  N           1     -26.514  -6.095 -16.179  0.00  0.00    -0.349 N 
HETATM   13  H           1     -26.320  -5.248 -16.698  0.00  0.00     0.163 HD
BRANCH  12  14
HETATM   14  C           1     -25.466  -7.077 -15.979  0.00  0.00     0.235 C 
BRANCH  14  15
HETATM   15  C           1     -24.592  -7.139 -17.206  0.00  0.00     0.191 C 
HETATM   16  O           1     -24.942  -6.553 -18.253  0.00  0.00    -0.647 OA
HETATM   17  O           1     -23.516  -7.775 -17.175  0.00  0.00    -0.647 OA
ENDBRANCH  14  15
ENDBRANCH  12  14
ENDBRANCH   1  10
TORSDOF 6
ENDMDL
MODEL 5
REMARK VINA RESULT:      -5.3      9.794     11.914
REMARK  6 active torsions:
REMARK  status: ('A' for Active; 'I' for Inactive)
REMARK    1  A    between atoms: C_4  and  C_13 
REMARK    2  A    between atoms: C_6  and  C_15 
REMARK    3  A    between atoms: N_12  and  C_13 
REMARK       I    between atoms: N_12  and  C_16 
REMARK    4  A    between atoms: N_14  and  C_17 
REMARK    5  A    between atoms: C_15  and  C_17 
REMARK    6  A    between atoms: C_16  and  C_17 
ROOT
HETATM    1  C           1     -21.393  -5.519  -6.706  0.00  0.00     0.278 C 
ENDROOT
BRANCH   1   2
HETATM    2  N           1     -20.319  -4.531  -6.358  0.00  0.00    -0.066 N 
HETATM    3  H           1     -20.662  -3.896  -5.602  0.00  0.00     0.275 HD
HETATM    4  H           1     -19.470  -5.043  -6.025  0.00  0.00     0.275 HD
HETATM    5  H           1     -20.077  -3.967  -7.203  0.00  0.00     0.275 HD
ENDBRANCH   1   2
BRANCH   1   6
HETATM    6  C           1     -21.744  -6.341  -5.473  0.00  0.00     0.021 C 
HETATM    7  C           1     -21.329  -7.789  -5.693  0.00  0.00     0.012 C 
BRANCH   6   8
HETATM    8  C           1     -21.007  -5.781  -4.264  0.00  0.00     0.002 C 
HETATM    9  C           1     -21.663  -6.290  -2.987  0.00  0.00     0.005 C 
ENDBRANCH   6   8
ENDBRANCH   1   6
BRANCH   1  10
HETATM   10  C           1     -22.619  -4.780  -7.186  0.00  0.00     0.249 C 
HETATM   11  O           1     -23.597  -4.711  -6.479  0.00  0.00    -0.271 OA
HETATM   12  N           1     -22.622  -4.190  -8.420  0.00  0.00    -0.349 N 
HETATM   13  H           1     -21.803  -4.248  -9.011  0.00  0.00     0.163 HD
BRANCH  12  14
HETATM   14  C           1     -23.799  -3.480  -8.882  0.00  0.00     0.235 C 
BRANCH  14  15
HETATM   15  C           1     -24.234  -4.037 -10.214  0.00  0.00     0.191 C 
HETATM   16  O           1     -24.948  -3.350 -10.976  0.00  0.00    -0.647 OA
HETATM   17  O           1     -23.880  -5.187 -10.557  0.00  0.00    -0.647 OA
ENDBRANCH  14  15
ENDBRANCH  12  14
ENDBRANCH   1  10
TORSDOF 6
ENDMDL
MODEL 6
REMARK VINA RESULT:      -5.3      9.981     11.706
REMARK  6 active torsions:
REMARK  status: ('A' for Active; 'I' for Inactive)
REMARK    1  A    between atoms: C_4  and  C_13 
REMARK    2  A    between atoms: C_6  and  C_15 
REMARK    3  A    between atoms: N_12  and  C_13 
REMARK       I    between atoms: N_12  and  C_16 
REMARK    4  A    between atoms: N_14  and  C_17 
REMARK    5  A    between atoms: C_15  and  C_17 
REMARK    6  A    between atoms: C_16  and  C_17 
ROOT
HETATM    1  C           1     -22.508  -4.636  -8.386  0.00  0.00     0.278 C 
ENDROOT
BRANCH   1   2
HETATM    2  N           1     -23.845  -3.972  -8.244  0.00  0.00    -0.066 N 
HETATM    3  H           1     -23.804  -3.013  -8.659  0.00  0.00     0.275 HD
HETATM    4  H           1     -24.569  -4.537  -8.745  0.00  0.00     0.275 HD
HETATM    5  H           1     -24.096  -3.903  -7.232  0.00  0.00     0.275 HD
ENDBRANCH   1   2
BRANCH   1   6
HETATM    6  C           1     -21.695  -3.916  -9.454  0.00  0.00     0.021 C 
HETATM    7  C           1     -20.370  -4.638  -9.656  0.00  0.00     0.012 C 
BRANCH   6   8
HETATM    8  C           1     -22.473  -3.910 -10.763  0.00  0.00     0.002 C 
HETATM    9  C           1     -21.501  -4.004 -11.932  0.00  0.00     0.005 C 
ENDBRANCH   6   8
ENDBRANCH   1   6
BRANCH   1  10
HETATM   10  C           1     -21.775  -4.575  -7.068  0.00  0.00     0.249 C 
HETATM   11  O           1     -21.301  -3.530  -6.689  0.00  0.00    -0.271 OA
HETATM   12  N           1     -21.647  -5.703  -6.304  0.00  0.00    -0.349 N 
HETATM   13  H           1     -22.044  -6.578  -6.622  0.00  0.00     0.163 HD
BRANCH  12  14
HETATM   14  C           1     -20.942  -5.645  -5.038  0.00  0.00     0.235 C 
BRANCH  14  15
HETATM   15  C           1     -21.658  -6.501  -4.023  0.00  0.00     0.191 C 
HETATM   16  O           1     -21.761  -7.734  -4.206  0.00  0.00    -0.647 OA
HETATM   17  O           1     -22.148  -5.979  -2.998  0.00  0.00    -0.647 OA
ENDBRANCH  14  15
ENDBRANCH  12  14
ENDBRANCH   1  10
TORSDOF 6
ENDMDL
MODEL 7
REMARK VINA RESULT:      -5.2      9.092     10.763
REMARK  6 active torsions:
REMARK  status: ('A' for Active; 'I' for Inactive)
REMARK    1  A    between atoms: C_4  and  C_13 
REMARK    2  A    between atoms: C_6  and  C_15 
REMARK    3  A    between atoms: N_12  and  C_13 
REMARK       I    between atoms: N_12  and  C_16 
REMARK    4  A    between atoms: N_14  and  C_17 
REMARK    5  A    between atoms: C_15  and  C_17 
REMARK    6  A    between atoms: C_16  and  C_17 
ROOT
HETATM    1  C           1     -23.078  -4.474  -8.977  0.00  0.00     0.278 C 
ENDROOT
BRANCH   1   2
HETATM    2  N           1     -23.844  -3.190  -8.857  0.00  0.00    -0.066 N 
HETATM    3  H           1     -23.681  -2.775  -7.912  0.00  0.00     0.275 HD
HETATM    4  H           1     -23.519  -2.522  -9.592  0.00  0.00     0.275 HD
HETATM    5  H           1     -24.864  -3.378  -8.983  0.00  0.00     0.275 HD
ENDBRANCH   1   2
BRANCH   1   6
HETATM    6  C           1     -22.548  -4.617 -10.398  0.00  0.00     0.021 C 
HETATM    7  C           1     -23.698  -4.947 -11.339  0.00  0.00     0.012 C 
BRANCH   6   8
HETATM    8  C           1     -21.899  -3.309 -10.830  0.00  0.00     0.002 C 
HETATM    9  C           1     -20.451  -3.566 -11.225  0.00  0.00     0.005 C 
ENDBRANCH   6   8
ENDBRANCH   1   6
BRANCH   1  10
HETATM   10  C           1     -21.923  -4.464  -8.006  0.00  0.00     0.249 C 
HETATM   11  O           1     -21.738  -3.501  -7.299  0.00  0.00    -0.271 OA
HETATM   12  N           1     -21.086  -5.544  -7.926  0.00  0.00    -0.349 N 
HETATM   13  H           1     -21.242  -6.349  -8.518  0.00  0.00     0.163 HD
BRANCH  12  14
HETATM   14  C           1     -19.977  -5.534  -6.993  0.00  0.00     0.235 C 
BRANCH  14  15
HETATM   15  C           1     -20.311  -6.398  -5.802  0.00  0.00     0.191 C 
HETATM   16  O           1     -20.826  -5.886  -4.785  0.00  0.00    -0.647 OA
HETATM   17  O           1     -20.073  -7.625  -5.833  0.00  0.00    -0.647 OA
ENDBRANCH  14  15
ENDBRANCH  12  14
ENDBRANCH   1  10
TORSDOF 6
ENDMDL
MODEL 8
REMARK VINA RESULT:      -5.2     10.588     12.342
REMARK  6 active torsions:
REMARK  status: ('A' for Active; 'I' for Inactive)
REMARK    1  A    between atoms: C_4  and  C_13 
REMARK    2  A    between atoms: C_6  and  C_15 
REMARK    3  A    between atoms: N_12  and  C_13 
REMARK       I    between atoms: N_12  and  C_16 
REMARK    4  A    between atoms: N_14  and  C_17 
REMARK    5  A    between atoms: C_15  and  C_17 
REMARK    6  A    between atoms: C_16  and  C_17 
ROOT
HETATM    1  C           1     -22.282  -4.499  -7.364  0.00  0.00     0.278 C 
ENDROOT
BRANCH   1   2
HETATM    2  N           1     -21.458  -3.293  -7.027  0.00  0.00    -0.066 N 
HETATM    3  H           1     -21.007  -2.925  -7.895  0.00  0.00     0.275 HD
HETATM    4  H           1     -22.073  -2.555  -6.614  0.00  0.00     0.275 HD
HETATM    5  H           1     -20.719  -3.556  -6.337  0.00  0.00     0.275 HD
ENDBRANCH   1   2
BRANCH   1   6
HETATM    6  C           1     -22.177  -4.784  -8.856  0.00  0.00     0.021 C 
HETATM    7  C           1     -23.440  -4.302  -9.556  0.00  0.00     0.012 C 
BRANCH   6   8
HETATM    8  C           1     -20.970  -4.052  -9.428  0.00  0.00     0.002 C 
HETATM    9  C           1     -21.163  -3.845 -10.925  0.00  0.00     0.005 C 
ENDBRANCH   6   8
ENDBRANCH   1   6
BRANCH   1  10
HETATM   10  C           1     -21.774  -5.689  -6.586  0.00  0.00     0.249 C 
HETATM   11  O           1     -20.944  -6.419  -7.074  0.00  0.00    -0.271 OA
HETATM   12  N           1     -22.254  -5.940  -5.329  0.00  0.00    -0.349 N 
HETATM   13  H           1     -22.949  -5.328  -4.922  0.00  0.00     0.163 HD
BRANCH  12  14
HETATM   14  C           1     -21.766  -7.082  -4.581  0.00  0.00     0.235 C 
BRANCH  14  15
HETATM   15  C           1     -21.692  -6.732  -3.117  0.00  0.00     0.191 C 
HETATM   16  O           1     -20.829  -7.268  -2.389  0.00  0.00    -0.647 OA
HETATM   17  O           1     -22.493  -5.904  -2.630  0.00  0.00    -0.647 OA
ENDBRANCH  14  15
ENDBRANCH  12  14
ENDBRANCH   1  10
TORSDOF 6
ENDMDL
MODEL 9
REMARK VINA RESULT:      -5.0     12.603     14.419
REMARK  6 active torsions:
REMARK  status: ('A' for Active; 'I' for Inactive)
REMARK    1  A    between atoms: C_4  and  C_13 
REMARK    2  A    between atoms: C_6  and  C_15 
REMARK    3  A    between atoms: N_12  and  C_13 
REMARK       I    between atoms: N_12  and  C_16 
REMARK    4  A    between atoms: N_14  and  C_17 
REMARK    5  A    between atoms: C_15  and  C_17 
REMARK    6  A    between atoms: C_16  and  C_17 
ROOT
HETATM    1  C           1     -20.635  -6.371  -5.445  0.00  0.00     0.278 C 
ENDROOT
BRANCH   1   2
HETATM    2  N           1     -20.973  -7.538  -6.326  0.00  0.00    -0.066 N 
HETATM    3  H           1     -21.404  -8.295  -5.749  0.00  0.00     0.275 HD
HETATM    4  H           1     -21.649  -7.233  -7.063  0.00  0.00     0.275 HD
HETATM    5  H           1     -20.103  -7.897  -6.778  0.00  0.00     0.275 HD
ENDBRANCH   1   2
BRANCH   1   6
HETATM    6  C           1     -20.652  -5.091  -6.271  0.00  0.00     0.021 C 
HETATM    7  C           1     -19.223  -4.679  -6.599  0.00  0.00     0.012 C 
BRANCH   6   8
HETATM    8  C           1     -21.418  -5.334  -7.564  0.00  0.00     0.002 C 
HETATM    9  C           1     -22.310  -4.134  -7.859  0.00  0.00     0.005 C 
ENDBRANCH   6   8
ENDBRANCH   1   6
BRANCH   1  10
HETATM   10  C           1     -21.652  -6.268  -4.335  0.00  0.00     0.249 C 
HETATM   11  O           1     -22.829  -6.200  -4.599  0.00  0.00    -0.271 OA
HETATM   12  N           1     -21.241  -6.252  -3.030  0.00  0.00    -0.349 N 
HETATM   13  H           1     -20.255  -6.309  -2.809  0.00  0.00     0.163 HD
BRANCH  12  14
HETATM   14  C           1     -22.217  -6.153  -1.962  0.00  0.00     0.235 C 
BRANCH  14  15
HETATM   15  C           1     -22.013  -7.284  -0.986  0.00  0.00     0.191 C 
HETATM   16  O           1     -20.972  -7.974  -1.037  0.00  0.00    -0.647 OA
HETATM   17  O           1     -22.886  -7.532  -0.125  0.00  0.00    -0.647 OA
ENDBRANCH  14  15
ENDBRANCH  12  14
ENDBRANCH   1  10
TORSDOF 6
ENDMDL
