MODEL 1
REMARK VINA RESULT:      -7.3      0.000      0.000
REMARK  9 active torsions:
REMARK  status: ('A' for Active; 'I' for Inactive)
REMARK    1  A    between atoms: N_3  and  C_11 
REMARK       I    between atoms: N_3  and  C_23 
REMARK    2  A    between atoms: C_6  and  C_18 
REMARK    3  A    between atoms: C_6  and  C_26 
REMARK    4  A    between atoms: C_11  and  C_12 
REMARK    5  A    between atoms: C_11  and  C_15 
REMARK    6  A    between atoms: C_12  and  C_13 
REMARK    7  A    between atoms: C_13  and  C_22 
REMARK       I    between atoms: N_17  and  C_22 
REMARK    8  A    between atoms: C_18  and  C_23 
REMARK    9  A    between atoms: C_18  and  N_19 
ROOT
HETATM    1  N           1     -34.977  -1.663 -13.131  0.00  0.00    -0.345 N 
HETATM    2  H           1     -35.359  -2.027 -13.995  0.00  0.00     0.163 HD
HETATM    3  C           1     -34.318  -2.497 -12.270  0.00  0.00     0.249 C 
HETATM    4  O           1     -33.861  -2.064 -11.239  0.00  0.00    -0.271 OA
ENDROOT
BRANCH   3   5
HETATM    5  C           1     -34.159  -3.960 -12.607  0.00  0.00     0.280 C 
BRANCH   5   6
HETATM    6  C           1     -33.129  -4.588 -11.678  0.00  0.00     0.101 C 
BRANCH   6   7
HETATM    7  C           1     -33.741  -5.755 -10.969  0.00  0.00     0.028 A 
HETATM    8  N           1     -33.215  -7.022 -10.956  0.00  0.00    -0.355 N 
HETATM    9  C           1     -34.048  -7.734 -10.231  0.00  0.00     0.180 A 
ATOM     10  HN          1     -32.360  -7.342 -11.411  1.00  0.00     0.166 HD
HETATM   11  N           1     -35.090  -6.977  -9.777  0.00  0.00    -0.360 N 
HETATM   12  H           1     -35.886  -7.311  -9.179  0.00  0.00     0.166 HD
HETATM   13  C           1     -34.906  -5.705 -10.242  0.00  0.00     0.114 A 
ENDBRANCH   6   7
ENDBRANCH   5   6
BRANCH   5  14
HETATM   14  N           1     -33.701  -4.098 -14.028  0.00  0.00    -0.066 N 
HETATM   15  H           1     -33.609  -5.111 -14.268  0.00  0.00     0.275 HD
HETATM   16  H           1     -32.774  -3.627 -14.142  0.00  0.00     0.275 HD
HETATM   17  H           1     -34.398  -3.650 -14.665  0.00  0.00     0.275 HD
ENDBRANCH   5  14
ENDBRANCH   3   5
BRANCH   1  18
HETATM   18  C           1     -35.128  -0.258 -12.807  0.00  0.00     0.186 C 
BRANCH  18  19
HETATM   19  C           1     -35.294   0.545 -14.089  0.00  0.00     0.045 C 
BRANCH  19  20
HETATM   20  C           1     -35.491  -0.407 -15.263  0.00  0.00     0.105 C 
BRANCH  20  21
HETATM   21  C           1     -36.872  -0.216 -15.840  0.00  0.00     0.215 C 
HETATM   22  O           1     -37.464  -1.157 -16.316  0.00  0.00    -0.274 OA
HETATM   23  N           1     -37.456   1.022 -15.823  0.00  0.00    -0.370 N 
HETATM   24  H           1     -36.962   1.809 -15.424  0.00  0.00     0.159 HD
HETATM   25  H           1     -38.383   1.150 -16.211  0.00  0.00     0.159 HD
ENDBRANCH  20  21
ENDBRANCH  19  20
ENDBRANCH  18  19
BRANCH  18  26
HETATM   26  C           1     -36.346  -0.072 -11.936  0.00  0.00     0.196 C 
HETATM   27  O           1     -37.478  -0.373 -12.372  0.00  0.00    -0.646 OA
HETATM   28  O           1     -36.222   0.383 -10.778  0.00  0.00    -0.646 OA
ENDBRANCH  18  26
ENDBRANCH   1  18
TORSDOF 9
ENDMDL
MODEL 2
REMARK VINA RESULT:      -7.0     10.985     12.688
REMARK  9 active torsions:
REMARK  status: ('A' for Active; 'I' for Inactive)
REMARK    1  A    between atoms: N_3  and  C_11 
REMARK       I    between atoms: N_3  and  C_23 
REMARK    2  A    between atoms: C_6  and  C_18 
REMARK    3  A    between atoms: C_6  and  C_26 
REMARK    4  A    between atoms: C_11  and  C_12 
REMARK    5  A    between atoms: C_11  and  C_15 
REMARK    6  A    between atoms: C_12  and  C_13 
REMARK    7  A    between atoms: C_13  and  C_22 
REMARK       I    between atoms: N_17  and  C_22 
REMARK    8  A    between atoms: C_18  and  C_23 
REMARK    9  A    between atoms: C_18  and  N_19 
ROOT
HETATM    1  N           1     -26.834  -6.678 -18.171  0.00  0.00    -0.345 N 
HETATM    2  H           1     -27.719  -7.034 -18.508  0.00  0.00     0.163 HD
HETATM    3  C           1     -25.696  -6.870 -18.907  0.00  0.00     0.249 C 
HETATM    4  O           1     -24.638  -6.446 -18.507  0.00  0.00    -0.271 OA
ENDROOT
BRANCH   3   5
HETATM    5  C           1     -25.762  -7.612 -20.220  0.00  0.00     0.280 C 
BRANCH   5   6
HETATM    6  C           1     -24.914  -6.886 -21.257  0.00  0.00     0.101 C 
BRANCH   6   7
HETATM    7  C           1     -23.732  -7.732 -21.617  0.00  0.00     0.028 A 
HETATM    8  N           1     -22.841  -8.251 -20.712  0.00  0.00    -0.355 N 
HETATM    9  C           1     -21.969  -8.920 -21.431  0.00  0.00     0.180 A 
ATOM     10  HN          1     -22.854  -8.140 -19.698  1.00  0.00     0.166 HD
HETATM   11  N           1     -22.262  -8.853 -22.763  0.00  0.00    -0.360 N 
HETATM   12  H           1     -21.719  -9.303 -23.542  0.00  0.00     0.166 HD
HETATM   13  C           1     -23.391  -8.094 -22.898  0.00  0.00     0.114 A 
ENDBRANCH   6   7
ENDBRANCH   5   6
BRANCH   5  14
HETATM   14  N           1     -27.184  -7.669 -20.691  0.00  0.00    -0.066 N 
HETATM   15  H           1     -27.568  -6.699 -20.759  0.00  0.00     0.275 HD
HETATM   16  H           1     -27.754  -8.222 -20.010  0.00  0.00     0.275 HD
HETATM   17  H           1     -27.224  -8.126 -21.629  0.00  0.00     0.275 HD
ENDBRANCH   5  14
ENDBRANCH   3   5
BRANCH   1  18
HETATM   18  C           1     -26.770  -5.965 -16.910  0.00  0.00     0.186 C 
BRANCH  18  19
HETATM   19  C           1     -28.039  -5.146 -16.725  0.00  0.00     0.045 C 
BRANCH  19  20
HETATM   20  C           1     -28.964  -5.365 -17.916  0.00  0.00     0.105 C 
BRANCH  20  21
HETATM   21  C           1     -30.036  -6.359 -17.546  0.00  0.00     0.215 C 
HETATM   22  O           1     -29.896  -7.529 -17.819  0.00  0.00    -0.274 OA
HETATM   23  N           1     -31.167  -5.939 -16.901  0.00  0.00    -0.370 N 
HETATM   24  H           1     -31.285  -4.960 -16.671  0.00  0.00     0.159 HD
HETATM   25  H           1     -31.886  -6.606 -16.652  0.00  0.00     0.159 HD
ENDBRANCH  20  21
ENDBRANCH  19  20
ENDBRANCH  18  19
BRANCH  18  26
HETATM   26  C           1     -26.642  -6.956 -15.779  0.00  0.00     0.196 C 
HETATM   27  O           1     -25.511  -7.331 -15.401  0.00  0.00    -0.646 OA
HETATM   28  O           1     -27.668  -7.401 -15.220  0.00  0.00    -0.646 OA
ENDBRANCH  18  26
ENDBRANCH   1  18
TORSDOF 9
ENDMDL
MODEL 3
REMARK VINA RESULT:      -6.9      9.350     11.694
REMARK  9 active torsions:
REMARK  status: ('A' for Active; 'I' for Inactive)
REMARK    1  A    between atoms: N_3  and  C_11 
REMARK       I    between atoms: N_3  and  C_23 
REMARK    2  A    between atoms: C_6  and  C_18 
REMARK    3  A    between atoms: C_6  and  C_26 
REMARK    4  A    between atoms: C_11  and  C_12 
REMARK    5  A    between atoms: C_11  and  C_15 
REMARK    6  A    between atoms: C_12  and  C_13 
REMARK    7  A    between atoms: C_13  and  C_22 
REMARK       I    between atoms: N_17  and  C_22 
REMARK    8  A    between atoms: C_18  and  C_23 
REMARK    9  A    between atoms: C_18  and  N_19 
ROOT
HETATM    1  N           1     -27.484  -7.238 -19.131  0.00  0.00    -0.345 N 
HETATM    2  H           1     -27.600  -8.197 -18.828  0.00  0.00     0.163 HD
HETATM    3  C           1     -28.441  -6.307 -18.832  0.00  0.00     0.249 C 
HETATM    4  O           1     -28.305  -5.163 -19.192  0.00  0.00    -0.271 OA
ENDROOT
BRANCH   3   5
HETATM    5  C           1     -29.669  -6.709 -18.050  0.00  0.00     0.280 C 
BRANCH   5   6
HETATM    6  C           1     -29.788  -5.838 -16.806  0.00  0.00     0.101 C 
BRANCH   6   7
HETATM    7  C           1     -30.950  -4.906 -16.958  0.00  0.00     0.028 A 
HETATM    8  N           1     -32.224  -5.173 -16.526  0.00  0.00    -0.355 N 
HETATM    9  C           1     -32.927  -4.112 -16.849  0.00  0.00     0.180 A 
ATOM     10  HN          1     -32.554  -6.015 -16.054  1.00  0.00     0.166 HD
HETATM   11  N           1     -32.158  -3.172 -17.473  0.00  0.00    -0.360 N 
HETATM   12  H           1     -32.483  -2.239 -17.827  0.00  0.00     0.166 HD
HETATM   13  C           1     -30.886  -3.667 -17.549  0.00  0.00     0.114 A 
ENDBRANCH   6   7
ENDBRANCH   5   6
BRANCH   5  14
HETATM   14  N           1     -29.552  -8.148 -17.643  0.00  0.00    -0.066 N 
HETATM   15  H           1     -29.808  -8.246 -16.634  0.00  0.00     0.275 HD
HETATM   16  H           1     -28.568  -8.471 -17.786  0.00  0.00     0.275 HD
HETATM   17  H           1     -30.197  -8.729 -18.225  0.00  0.00     0.275 HD
ENDBRANCH   5  14
ENDBRANCH   3   5
BRANCH   1  18
HETATM   18  C           1     -26.306  -6.852 -19.881  0.00  0.00     0.186 C 
BRANCH  18  19
HETATM   19  C           1     -25.103  -6.804 -18.949  0.00  0.00     0.045 C 
BRANCH  19  20
HETATM   20  C           1     -25.568  -6.483 -17.535  0.00  0.00     0.105 C 
BRANCH  20  21
HETATM   21  C           1     -24.767  -7.291 -16.545  0.00  0.00     0.215 C 
HETATM   22  O           1     -25.195  -7.479 -15.430  0.00  0.00    -0.274 OA
HETATM   23  N           1     -23.555  -7.812 -16.908  0.00  0.00    -0.370 N 
HETATM   24  H           1     -23.196  -7.656 -17.842  0.00  0.00     0.159 HD
HETATM   25  H           1     -23.017  -8.355 -16.244  0.00  0.00     0.159 HD
ENDBRANCH  20  21
ENDBRANCH  19  20
ENDBRANCH  18  19
BRANCH  18  26
HETATM   26  C           1     -26.054  -7.860 -20.976  0.00  0.00     0.196 C 
HETATM   27  O           1     -24.919  -7.952 -21.491  0.00  0.00    -0.646 OA
HETATM   28  O           1     -26.981  -8.602 -21.365  0.00  0.00    -0.646 OA
ENDBRANCH  18  26
ENDBRANCH   1  18
TORSDOF 9
ENDMDL
MODEL 4
REMARK VINA RESULT:      -6.8     10.757     12.208
REMARK  9 active torsions:
REMARK  status: ('A' for Active; 'I' for Inactive)
REMARK    1  A    between atoms: N_3  and  C_11 
REMARK       I    between atoms: N_3  and  C_23 
REMARK    2  A    between atoms: C_6  and  C_18 
REMARK    3  A    between atoms: C_6  and  C_26 
REMARK    4  A    between atoms: C_11  and  C_12 
REMARK    5  A    between atoms: C_11  and  C_15 
REMARK    6  A    between atoms: C_12  and  C_13 
REMARK    7  A    between atoms: C_13  and  C_22 
REMARK       I    between atoms: N_17  and  C_22 
REMARK    8  A    between atoms: C_18  and  C_23 
REMARK    9  A    between atoms: C_18  and  N_19 
ROOT
HETATM    1  N           1     -27.803  -6.777 -19.447  0.00  0.00    -0.345 N 
HETATM    2  H           1     -28.161  -7.078 -20.345  0.00  0.00     0.163 HD
HETATM    3  C           1     -26.454  -6.645 -19.260  0.00  0.00     0.249 C 
HETATM    4  O           1     -26.024  -6.286 -18.189  0.00  0.00    -0.271 OA
ENDROOT
BRANCH   3   5
HETATM    5  C           1     -25.501  -6.946 -20.391  0.00  0.00     0.280 C 
BRANCH   5   6
HETATM    6  C           1     -24.179  -7.447 -19.823  0.00  0.00     0.101 C 
BRANCH   6   7
HETATM    7  C           1     -23.389  -8.112 -20.907  0.00  0.00     0.028 A 
HETATM    8  N           1     -22.136  -8.644 -20.743  0.00  0.00    -0.355 N 
HETATM    9  C           1     -21.807  -9.122 -21.921  0.00  0.00     0.180 A 
ATOM     10  HN          1     -21.578  -8.663 -19.889  1.00  0.00     0.166 HD
HETATM   11  N           1     -22.798  -8.920 -22.839  0.00  0.00    -0.360 N 
HETATM   12  H           1     -22.779  -9.209 -23.848  0.00  0.00     0.166 HD
HETATM   13  C           1     -23.820  -8.272 -22.202  0.00  0.00     0.114 A 
ENDBRANCH   6   7
ENDBRANCH   5   6
BRANCH   5  14
HETATM   14  N           1     -25.261  -5.698 -21.188  0.00  0.00    -0.066 N 
HETATM   15  H           1     -26.094  -5.505 -21.790  0.00  0.00     0.275 HD
HETATM   16  H           1     -24.417  -5.827 -21.791  0.00  0.00     0.275 HD
HETATM   17  H           1     -25.105  -4.894 -20.539  0.00  0.00     0.275 HD
ENDBRANCH   5  14
ENDBRANCH   3   5
BRANCH   1  18
HETATM   18  C           1     -28.718  -6.487 -18.360  0.00  0.00     0.186 C 
BRANCH  18  19
HETATM   19  C           1     -29.368  -5.131 -18.592  0.00  0.00     0.045 C 
BRANCH  19  20
HETATM   20  C           1     -29.589  -4.438 -17.254  0.00  0.00     0.105 C 
BRANCH  20  21
HETATM   21  C           1     -31.048  -4.082 -17.105  0.00  0.00     0.215 C 
HETATM   22  O           1     -31.463  -3.034 -17.544  0.00  0.00    -0.274 OA
HETATM   23  N           1     -31.902  -4.945 -16.475  0.00  0.00    -0.370 N 
HETATM   24  H           1     -31.556  -5.823 -16.108  0.00  0.00     0.159 HD
HETATM   25  H           1     -32.881  -4.707 -16.375  0.00  0.00     0.159 HD
ENDBRANCH  20  21
ENDBRANCH  19  20
ENDBRANCH  18  19
BRANCH  18  26
HETATM   26  C           1     -29.785  -7.553 -18.304  0.00  0.00     0.196 C 
HETATM   27  O           1     -30.631  -7.543 -17.384  0.00  0.00    -0.646 OA
HETATM   28  O           1     -29.822  -8.445 -19.179  0.00  0.00    -0.646 OA
ENDBRANCH  18  26
ENDBRANCH   1  18
TORSDOF 9
ENDMDL
MODEL 5
REMARK VINA RESULT:      -6.7      2.188      6.899
REMARK  9 active torsions:
REMARK  status: ('A' for Active; 'I' for Inactive)
REMARK    1  A    between atoms: N_3  and  C_11 
REMARK       I    between atoms: N_3  and  C_23 
REMARK    2  A    between atoms: C_6  and  C_18 
REMARK    3  A    between atoms: C_6  and  C_26 
REMARK    4  A    between atoms: C_11  and  C_12 
REMARK    5  A    between atoms: C_11  and  C_15 
REMARK    6  A    between atoms: C_12  and  C_13 
REMARK    7  A    between atoms: C_13  and  C_22 
REMARK       I    between atoms: N_17  and  C_22 
REMARK    8  A    between atoms: C_18  and  C_23 
REMARK    9  A    between atoms: C_18  and  N_19 
ROOT
HETATM    1  N           1     -35.269  -2.750 -11.965  0.00  0.00    -0.345 N 
HETATM    2  H           1     -36.115  -3.028 -12.447  0.00  0.00     0.163 HD
HETATM    3  C           1     -35.012  -1.424 -11.746  0.00  0.00     0.249 C 
HETATM    4  O           1     -34.002  -1.092 -11.171  0.00  0.00    -0.271 OA
ENDROOT
BRANCH   3   5
HETATM    5  C           1     -35.989  -0.376 -12.220  0.00  0.00     0.280 C 
BRANCH   5   6
HETATM    6  C           1     -35.342   0.465 -13.313  0.00  0.00     0.101 C 
BRANCH   6   7
HETATM    7  C           1     -35.779  -0.035 -14.654  0.00  0.00     0.028 A 
HETATM    8  N           1     -35.042  -0.873 -15.451  0.00  0.00    -0.355 N 
HETATM    9  C           1     -35.776  -1.063 -16.524  0.00  0.00     0.180 A 
ATOM     10  HN          1     -34.121  -1.264 -15.253  1.00  0.00     0.166 HD
HETATM   11  N           1     -36.957  -0.381 -16.450  0.00  0.00    -0.360 N 
HETATM   12  H           1     -37.714  -0.370 -17.178  0.00  0.00     0.166 HD
HETATM   13  C           1     -36.973   0.284 -15.256  0.00  0.00     0.114 A 
ENDBRANCH   6   7
ENDBRANCH   5   6
BRANCH   5  14
HETATM   14  N           1     -36.372   0.507 -11.070  0.00  0.00    -0.066 N 
HETATM   15  H           1     -36.240  -0.013 -10.174  0.00  0.00     0.275 HD
HETATM   16  H           1     -37.374   0.788 -11.166  0.00  0.00     0.275 HD
HETATM   17  H           1     -35.770   1.361 -11.071  0.00  0.00     0.275 HD
ENDBRANCH   5  14
ENDBRANCH   3   5
BRANCH   1  18
HETATM   18  C           1     -34.330  -3.757 -11.509  0.00  0.00     0.186 C 
BRANCH  18  19
HETATM   19  C           1     -35.085  -5.027 -11.145  0.00  0.00     0.045 C 
BRANCH  19  20
HETATM   20  C           1     -34.312  -5.789 -10.076  0.00  0.00     0.105 C 
BRANCH  20  21
HETATM   21  C           1     -34.665  -7.254 -10.146  0.00  0.00     0.215 C 
HETATM   22  O           1     -34.580  -7.945  -9.158  0.00  0.00    -0.274 OA
HETATM   23  N           1     -35.083  -7.802 -11.329  0.00  0.00    -0.370 N 
HETATM   24  H           1     -35.156  -7.224 -12.157  0.00  0.00     0.159 HD
HETATM   25  H           1     -35.320  -8.785 -11.376  0.00  0.00     0.159 HD
ENDBRANCH  20  21
ENDBRANCH  19  20
ENDBRANCH  18  19
BRANCH  18  26
HETATM   26  C           1     -33.341  -4.057 -12.609  0.00  0.00     0.196 C 
HETATM   27  O           1     -33.676  -3.919 -13.805  0.00  0.00    -0.646 OA
HETATM   28  O           1     -32.187  -4.442 -12.322  0.00  0.00    -0.646 OA
ENDBRANCH  18  26
ENDBRANCH   1  18
TORSDOF 9
ENDMDL
MODEL 6
REMARK VINA RESULT:      -6.6      9.502     11.661
REMARK  9 active torsions:
REMARK  status: ('A' for Active; 'I' for Inactive)
REMARK    1  A    between atoms: N_3  and  C_11 
REMARK       I    between atoms: N_3  and  C_23 
REMARK    2  A    between atoms: C_6  and  C_18 
REMARK    3  A    between atoms: C_6  and  C_26 
REMARK    4  A    between atoms: C_11  and  C_12 
REMARK    5  A    between atoms: C_11  and  C_15 
REMARK    6  A    between atoms: C_12  and  C_13 
REMARK    7  A    between atoms: C_13  and  C_22 
REMARK       I    between atoms: N_17  and  C_22 
REMARK    8  A    between atoms: C_18  and  C_23 
REMARK    9  A    between atoms: C_18  and  N_19 
ROOT
HETATM    1  N           1     -27.510  -6.928 -19.028  0.00  0.00    -0.345 N 
HETATM    2  H           1     -27.181  -7.487 -18.251  0.00  0.00     0.163 HD
HETATM    3  C           1     -28.200  -5.770 -18.792  0.00  0.00     0.249 C 
HETATM    4  O           1     -28.594  -5.102 -19.718  0.00  0.00    -0.271 OA
ENDROOT
BRANCH   3   5
HETATM    5  C           1     -28.470  -5.326 -17.375  0.00  0.00     0.280 C 
BRANCH   5   6
HETATM    6  C           1     -29.061  -3.922 -17.385  0.00  0.00     0.101 C 
BRANCH   6   7
HETATM    7  C           1     -30.551  -4.005 -17.274  0.00  0.00     0.028 A 
HETATM    8  N           1     -31.423  -3.071 -17.772  0.00  0.00    -0.355 N 
HETATM    9  C           1     -32.620  -3.517 -17.465  0.00  0.00     0.180 A 
ATOM     10  HN          1     -31.191  -2.214 -18.274  1.00  0.00     0.166 HD
HETATM   11  N           1     -32.554  -4.702 -16.788  0.00  0.00    -0.360 N 
HETATM   12  H           1     -33.369  -5.260 -16.433  0.00  0.00     0.166 HD
HETATM   13  C           1     -31.233  -5.028 -16.658  0.00  0.00     0.114 A 
ENDBRANCH   6   7
ENDBRANCH   5   6
BRANCH   5  14
HETATM   14  N           1     -27.187  -5.322 -16.600  0.00  0.00    -0.066 N 
HETATM   15  H           1     -26.512  -5.987 -17.042  0.00  0.00     0.275 HD
HETATM   16  H           1     -27.374  -5.619 -15.615  0.00  0.00     0.275 HD
HETATM   17  H           1     -26.780  -4.360 -16.602  0.00  0.00     0.275 HD
ENDBRANCH   5  14
ENDBRANCH   3   5
BRANCH   1  18
HETATM   18  C           1     -27.251  -7.353 -20.389  0.00  0.00     0.186 C 
BRANCH  18  19
HETATM   19  C           1     -25.781  -7.722 -20.535  0.00  0.00     0.045 C 
BRANCH  19  20
HETATM   20  C           1     -24.916  -6.553 -20.082  0.00  0.00     0.105 C 
BRANCH  20  21
HETATM   21  C           1     -24.236  -6.904 -18.782  0.00  0.00     0.215 C 
HETATM   22  O           1     -24.839  -6.810 -17.739  0.00  0.00    -0.274 OA
HETATM   23  N           1     -22.935  -7.330 -18.783  0.00  0.00    -0.370 N 
HETATM   24  H           1     -22.429  -7.410 -19.657  0.00  0.00     0.159 HD
HETATM   25  H           1     -22.478  -7.565 -17.911  0.00  0.00     0.159 HD
ENDBRANCH  20  21
ENDBRANCH  19  20
ENDBRANCH  18  19
BRANCH  18  26
HETATM   26  C           1     -28.105  -8.555 -20.711  0.00  0.00     0.196 C 
HETATM   27  O           1     -29.165  -8.757 -20.078  0.00  0.00    -0.646 OA
HETATM   28  O           1     -27.753  -9.348 -21.611  0.00  0.00    -0.646 OA
ENDBRANCH  18  26
ENDBRANCH   1  18
TORSDOF 9
ENDMDL
MODEL 7
REMARK VINA RESULT:      -6.5     13.464     16.707
REMARK  9 active torsions:
REMARK  status: ('A' for Active; 'I' for Inactive)
REMARK    1  A    between atoms: N_3  and  C_11 
REMARK       I    between atoms: N_3  and  C_23 
REMARK    2  A    between atoms: C_6  and  C_18 
REMARK    3  A    between atoms: C_6  and  C_26 
REMARK    4  A    between atoms: C_11  and  C_12 
REMARK    5  A    between atoms: C_11  and  C_15 
REMARK    6  A    between atoms: C_12  and  C_13 
REMARK    7  A    between atoms: C_13  and  C_22 
REMARK       I    between atoms: N_17  and  C_22 
REMARK    8  A    between atoms: C_18  and  C_23 
REMARK    9  A    between atoms: C_18  and  N_19 
ROOT
HETATM    1  N           1     -21.457  -5.876  -5.783  0.00  0.00    -0.345 N 
HETATM    2  H           1     -22.278  -6.194  -6.283  0.00  0.00     0.163 HD
HETATM    3  C           1     -20.709  -4.846  -6.284  0.00  0.00     0.249 C 
HETATM    4  O           1     -19.729  -4.465  -5.690  0.00  0.00    -0.271 OA
ENDROOT
BRANCH   3   5
HETATM    5  C           1     -21.109  -4.183  -7.581  0.00  0.00     0.280 C 
BRANCH   5   6
HETATM    6  C           1     -21.832  -5.190  -8.465  0.00  0.00     0.101 C 
BRANCH   6   7
HETATM    7  C           1     -22.987  -4.522  -9.143  0.00  0.00     0.028 A 
HETATM    8  N           1     -23.899  -3.715  -8.513  0.00  0.00    -0.355 N 
HETATM    9  C           1     -24.736  -3.339  -9.453  0.00  0.00     0.180 A 
ATOM     10  HN          1     -23.922  -3.461  -7.525  1.00  0.00     0.166 HD
HETATM   11  N           1     -24.400  -3.873 -10.665  0.00  0.00    -0.360 N 
HETATM   12  H           1     -24.909  -3.725 -11.571  0.00  0.00     0.166 HD
HETATM   13  C           1     -23.279  -4.634 -10.482  0.00  0.00     0.114 A 
ENDBRANCH   6   7
ENDBRANCH   5   6
BRANCH   5  14
HETATM   14  N           1     -19.882  -3.688  -8.287  0.00  0.00    -0.066 N 
HETATM   15  H           1     -19.478  -4.459  -8.865  0.00  0.00     0.275 HD
HETATM   16  H           1     -19.177  -3.375  -7.582  0.00  0.00     0.275 HD
HETATM   17  H           1     -20.135  -2.884  -8.905  0.00  0.00     0.275 HD
ENDBRANCH   5  14
ENDBRANCH   3   5
BRANCH   1  18
HETATM   18  C           1     -21.073  -6.512  -4.538  0.00  0.00     0.186 C 
BRANCH  18  19
HETATM   19  C           1     -22.283  -6.602  -3.619  0.00  0.00     0.045 C 
BRANCH  19  20
HETATM   20  C           1     -21.914  -6.073  -2.239  0.00  0.00     0.105 C 
BRANCH  20  21
HETATM   21  C           1     -22.042  -7.181  -1.224  0.00  0.00     0.215 C 
HETATM   22  O           1     -22.909  -7.134  -0.382  0.00  0.00    -0.274 OA
HETATM   23  N           1     -21.177  -8.241  -1.255  0.00  0.00    -0.370 N 
HETATM   24  H           1     -20.452  -8.282  -1.960  0.00  0.00     0.159 HD
HETATM   25  H           1     -21.263  -8.986  -0.574  0.00  0.00     0.159 HD
ENDBRANCH  20  21
ENDBRANCH  19  20
ENDBRANCH  18  19
BRANCH  18  26
HETATM   26  C           1     -20.554  -7.901  -4.822  0.00  0.00     0.196 C 
HETATM   27  O           1     -19.770  -8.451  -4.019  0.00  0.00    -0.646 OA
HETATM   28  O           1     -20.909  -8.499  -5.860  0.00  0.00    -0.646 OA
ENDBRANCH  18  26
ENDBRANCH   1  18
TORSDOF 9
ENDMDL
MODEL 8
REMARK VINA RESULT:      -6.5      4.015      6.539
REMARK  9 active torsions:
REMARK  status: ('A' for Active; 'I' for Inactive)
REMARK    1  A    between atoms: N_3  and  C_11 
REMARK       I    between atoms: N_3  and  C_23 
REMARK    2  A    between atoms: C_6  and  C_18 
REMARK    3  A    between atoms: C_6  and  C_26 
REMARK    4  A    between atoms: C_11  and  C_12 
REMARK    5  A    between atoms: C_11  and  C_15 
REMARK    6  A    between atoms: C_12  and  C_13 
REMARK    7  A    between atoms: C_13  and  C_22 
REMARK       I    between atoms: N_17  and  C_22 
REMARK    8  A    between atoms: C_18  and  C_23 
REMARK    9  A    between atoms: C_18  and  N_19 
ROOT
HETATM    1  N           1     -33.327  -4.029 -14.193  0.00  0.00    -0.345 N 
HETATM    2  H           1     -32.368  -3.710 -14.135  0.00  0.00     0.163 HD
HETATM    3  C           1     -33.832  -4.458 -15.390  0.00  0.00     0.249 C 
HETATM    4  O           1     -34.977  -4.839 -15.462  0.00  0.00    -0.271 OA
ENDROOT
BRANCH   3   5
HETATM    5  C           1     -32.960  -4.457 -16.622  0.00  0.00     0.280 C 
BRANCH   5   6
HETATM    6  C           1     -31.497  -4.552 -16.210  0.00  0.00     0.101 C 
BRANCH   6   7
HETATM    7  C           1     -30.809  -5.589 -17.042  0.00  0.00     0.028 A 
HETATM    8  N           1     -31.303  -6.845 -17.287  0.00  0.00    -0.355 N 
HETATM    9  C           1     -30.405  -7.427 -18.048  0.00  0.00     0.180 A 
ATOM     10  HN          1     -32.180  -7.241 -16.950  1.00  0.00     0.166 HD
HETATM   11  N           1     -29.351  -6.597 -18.304  0.00  0.00    -0.360 N 
HETATM   12  H           1     -28.506  -6.825 -18.885  0.00  0.00     0.166 HD
HETATM   13  C           1     -29.596  -5.413 -17.665  0.00  0.00     0.114 A 
ENDBRANCH   6   7
ENDBRANCH   5   6
BRANCH   5  14
HETATM   14  N           1     -33.182  -3.189 -17.390  0.00  0.00    -0.066 N 
HETATM   15  H           1     -32.598  -2.426 -16.978  0.00  0.00     0.275 HD
HETATM   16  H           1     -34.191  -2.921 -17.337  0.00  0.00     0.275 HD
HETATM   17  H           1     -32.913  -3.333 -18.389  0.00  0.00     0.275 HD
ENDBRANCH   5  14
ENDBRANCH   3   5
BRANCH   1  18
HETATM   18  C           1     -34.165  -4.031 -13.010  0.00  0.00     0.186 C 
BRANCH  18  19
HETATM   19  C           1     -33.390  -4.621 -11.840  0.00  0.00     0.045 C 
BRANCH  19  20
HETATM   20  C           1     -34.357  -4.973 -10.716  0.00  0.00     0.105 C 
BRANCH  20  21
HETATM   21  C           1     -34.264  -6.449 -10.417  0.00  0.00     0.215 C 
HETATM   22  O           1     -35.146  -6.997  -9.796  0.00  0.00    -0.274 OA
HETATM   23  N           1     -33.183  -7.169 -10.847  0.00  0.00    -0.370 N 
HETATM   24  H           1     -32.444  -6.711 -11.367  0.00  0.00     0.159 HD
HETATM   25  H           1     -33.121  -8.159 -10.646  0.00  0.00     0.159 HD
ENDBRANCH  20  21
ENDBRANCH  19  20
ENDBRANCH  18  19
BRANCH  18  26
HETATM   26  C           1     -34.571  -2.615 -12.680  0.00  0.00     0.196 C 
HETATM   27  O           1     -33.961  -1.980 -11.793  0.00  0.00    -0.646 OA
HETATM   28  O           1     -35.517  -2.078 -13.295  0.00  0.00    -0.646 OA
ENDBRANCH  18  26
ENDBRANCH   1  18
TORSDOF 9
ENDMDL
MODEL 9
REMARK VINA RESULT:      -6.4      3.406      6.722
REMARK  9 active torsions:
REMARK  status: ('A' for Active; 'I' for Inactive)
REMARK    1  A    between atoms: N_3  and  C_11 
REMARK       I    between atoms: N_3  and  C_23 
REMARK    2  A    between atoms: C_6  and  C_18 
REMARK    3  A    between atoms: C_6  and  C_26 
REMARK    4  A    between atoms: C_11  and  C_12 
REMARK    5  A    between atoms: C_11  and  C_15 
REMARK    6  A    between atoms: C_12  and  C_13 
REMARK    7  A    between atoms: C_13  and  C_22 
REMARK       I    between atoms: N_17  and  C_22 
REMARK    8  A    between atoms: C_18  and  C_23 
REMARK    9  A    between atoms: C_18  and  N_19 
ROOT
HETATM    1  N           1     -34.128  -4.686 -12.968  0.00  0.00    -0.345 N 
HETATM    2  H           1     -33.747  -5.622 -12.908  0.00  0.00     0.163 HD
HETATM    3  C           1     -34.229  -4.066 -14.184  0.00  0.00     0.249 C 
HETATM    4  O           1     -34.683  -2.950 -14.258  0.00  0.00    -0.271 OA
ENDROOT
BRANCH   3   5
HETATM    5  C           1     -33.773  -4.778 -15.435  0.00  0.00     0.280 C 
BRANCH   5   6
HETATM    6  C           1     -33.452  -3.753 -16.516  0.00  0.00     0.101 C 
BRANCH   6   7
HETATM    7  C           1     -32.062  -3.980 -17.023  0.00  0.00     0.028 A 
HETATM    8  N           1     -31.319  -3.049 -17.702  0.00  0.00    -0.355 N 
HETATM    9  C           1     -30.176  -3.641 -17.962  0.00  0.00     0.180 A 
ATOM     10  HN          1     -31.596  -2.099 -17.953  1.00  0.00     0.166 HD
HETATM   11  N           1     -30.152  -4.918 -17.477  0.00  0.00    -0.360 N 
HETATM   12  H           1     -29.355  -5.597 -17.555  0.00  0.00     0.166 HD
HETATM   13  C           1     -31.356  -5.149 -16.871  0.00  0.00     0.114 A 
ENDBRANCH   6   7
ENDBRANCH   5   6
BRANCH   5  14
HETATM   14  N           1     -34.863  -5.688 -15.918  0.00  0.00    -0.066 N 
HETATM   15  H           1     -34.502  -6.667 -15.966  0.00  0.00     0.275 HD
HETATM   16  H           1     -35.175  -5.383 -16.868  0.00  0.00     0.275 HD
HETATM   17  H           1     -35.671  -5.645 -15.257  0.00  0.00     0.275 HD
ENDBRANCH   5  14
ENDBRANCH   3   5
BRANCH   1  18
HETATM   18  C           1     -34.566  -4.002 -11.767  0.00  0.00     0.186 C 
BRANCH  18  19
HETATM   19  C           1     -34.721  -5.010 -10.637  0.00  0.00     0.045 C 
BRANCH  19  20
HETATM   20  C           1     -33.836  -6.219 -10.909  0.00  0.00     0.105 C 
BRANCH  20  21
HETATM   21  C           1     -34.381  -7.418 -10.173  0.00  0.00     0.215 C 
HETATM   22  O           1     -35.402  -7.322  -9.532  0.00  0.00    -0.274 OA
HETATM   23  N           1     -33.721  -8.615 -10.231  0.00  0.00    -0.370 N 
HETATM   24  H           1     -32.867  -8.697 -10.768  0.00  0.00     0.159 HD
HETATM   25  H           1     -34.086  -9.420  -9.737  0.00  0.00     0.159 HD
ENDBRANCH  20  21
ENDBRANCH  19  20
ENDBRANCH  18  19
BRANCH  18  26
HETATM   26  C           1     -33.542  -2.964 -11.378  0.00  0.00     0.196 C 
HETATM   27  O           1     -32.323  -3.224 -11.468  0.00  0.00    -0.646 OA
HETATM   28  O           1     -33.915  -1.844 -10.968  0.00  0.00    -0.646 OA
ENDBRANCH  18  26
ENDBRANCH   1  18
TORSDOF 9
ENDMDL
