MODEL 1
REMARK VINA RESULT:      -5.3      0.000      0.000
REMARK  8 active torsions:
REMARK  status: ('A' for Active; 'I' for Inactive)
REMARK    1  A    between atoms: O_4  and  C_5 
REMARK    2  A    between atoms: C_5  and  C_6 
REMARK    3  A    between atoms: C_6  and  C_12 
REMARK    4  A    between atoms: C_6  and  N_10 
REMARK    5  A    between atoms: C_9  and  C_19 
REMARK    6  A    between atoms: N_11  and  C_19 
REMARK       I    between atoms: N_11  and  C_12 
REMARK    7  A    between atoms: S_15  and  C_16 
REMARK    8  A    between atoms: C_16  and  C_19 
ROOT
HETATM    1  O           1     -26.010  -6.189 -17.800  0.00  0.00    -0.271 OA
HETATM    2  N           1     -27.716  -6.672 -19.158  0.00  0.00    -0.344 N 
HETATM    3  C           1     -26.379  -6.575 -18.884  0.00  0.00     0.251 C 
HETATM    4  H           1     -28.024  -6.996 -20.064  0.00  0.00     0.163 HD
ENDROOT
BRANCH   3   5
HETATM    5  C           1     -25.364  -6.950 -19.935  0.00  0.00     0.297 C 
BRANCH   5   6
HETATM    6  C           1     -26.007  -7.883 -20.953  0.00  0.00     0.206 C 
BRANCH   6   7
HETATM    7  O           1     -25.007  -8.524 -21.698  0.00  0.00    -0.398 OA
HETATM    8  H           1     -25.035  -8.158 -22.565  0.00  0.00     0.209 HD
ENDBRANCH   6   7
ENDBRANCH   5   6
BRANCH   5   9
HETATM    9  N           1     -24.204  -7.644 -19.285  0.00  0.00    -0.064 N 
HETATM   10  H           1     -23.376  -7.612 -19.922  0.00  0.00     0.275 HD
HETATM   11  H           1     -23.970  -7.164 -18.387  0.00  0.00     0.275 HD
HETATM   12  H           1     -24.457  -8.639 -19.092  0.00  0.00     0.275 HD
ENDBRANCH   5   9
ENDBRANCH   3   5
BRANCH   2  13
HETATM   13  C           1     -28.691  -6.311 -18.146  0.00  0.00     0.194 C 
BRANCH  13  14
HETATM   14  C           1     -29.819  -7.314 -18.154  0.00  0.00     0.197 C 
HETATM   15  O           1     -29.752  -8.326 -18.884  0.00  0.00    -0.646 OA
HETATM   16  O           1     -30.822  -7.131 -17.430  0.00  0.00    -0.646 OA
ENDBRANCH  13  14
BRANCH  13  17
HETATM   17  C           1     -29.242  -4.923 -18.446  0.00  0.00     0.106 C 
BRANCH  17  18
HETATM   18  S           1     -28.730  -3.772 -17.139  0.00  0.00    -0.180 SA
HETATM   19  H           1     -29.680  -2.852 -17.383  0.00  0.00     0.101 HD
ENDBRANCH  17  18
ENDBRANCH  13  17
ENDBRANCH   2  13
TORSDOF 8
ENDMDL
MODEL 2
REMARK VINA RESULT:      -5.3     11.480     12.545
REMARK  8 active torsions:
REMARK  status: ('A' for Active; 'I' for Inactive)
REMARK    1  A    between atoms: O_4  and  C_5 
REMARK    2  A    between atoms: C_5  and  C_6 
REMARK    3  A    between atoms: C_6  and  C_12 
REMARK    4  A    between atoms: C_6  and  N_10 
REMARK    5  A    between atoms: C_9  and  C_19 
REMARK    6  A    between atoms: N_11  and  C_19 
REMARK       I    between atoms: N_11  and  C_12 
REMARK    7  A    between atoms: S_15  and  C_16 
REMARK    8  A    between atoms: C_16  and  C_19 
ROOT
HETATM    1  O           1     -35.097   1.008 -13.751  0.00  0.00    -0.271 OA
HETATM    2  N           1     -36.805  -0.263 -13.077  0.00  0.00    -0.344 N 
HETATM    3  C           1     -36.110   0.417 -14.040  0.00  0.00     0.251 C 
HETATM    4  H           1     -37.653  -0.758 -13.319  0.00  0.00     0.163 HD
ENDROOT
BRANCH   3   5
HETATM    5  C           1     -36.609   0.427 -15.464  0.00  0.00     0.297 C 
BRANCH   5   6
HETATM    6  C           1     -35.930  -0.687 -16.249  0.00  0.00     0.206 C 
BRANCH   6   7
HETATM    7  O           1     -35.280  -1.556 -15.362  0.00  0.00    -0.398 OA
HETATM    8  H           1     -34.886  -1.022 -14.695  0.00  0.00     0.209 HD
ENDBRANCH   6   7
ENDBRANCH   5   6
BRANCH   5   9
HETATM    9  N           1     -36.289   1.750 -16.096  0.00  0.00    -0.064 N 
HETATM   10  H           1     -35.252   1.865 -16.159  0.00  0.00     0.275 HD
HETATM   11  H           1     -36.702   1.785 -17.056  0.00  0.00     0.275 HD
HETATM   12  H           1     -36.691   2.520 -15.516  0.00  0.00     0.275 HD
ENDBRANCH   5   9
ENDBRANCH   3   5
BRANCH   2  13
HETATM   13  C           1     -36.325  -0.272 -11.708  0.00  0.00     0.194 C 
BRANCH  13  14
HETATM   14  C           1     -35.485  -1.505 -11.478  0.00  0.00     0.197 C 
HETATM   15  O           1     -35.549  -2.463 -12.278  0.00  0.00    -0.646 OA
HETATM   16  O           1     -34.726  -1.567 -10.487  0.00  0.00    -0.646 OA
ENDBRANCH  13  14
BRANCH  13  17
HETATM   17  C           1     -37.513  -0.282 -10.754  0.00  0.00     0.106 C 
BRANCH  17  18
HETATM   18  S           1     -37.224   0.908  -9.414  0.00  0.00    -0.180 SA
HETATM   19  H           1     -36.156   0.278  -8.896  0.00  0.00     0.101 HD
ENDBRANCH  17  18
ENDBRANCH  13  17
ENDBRANCH   2  13
TORSDOF 8
ENDMDL
MODEL 3
REMARK VINA RESULT:      -5.2      2.197      2.499
REMARK  8 active torsions:
REMARK  status: ('A' for Active; 'I' for Inactive)
REMARK    1  A    between atoms: O_4  and  C_5 
REMARK    2  A    between atoms: C_5  and  C_6 
REMARK    3  A    between atoms: C_6  and  C_12 
REMARK    4  A    between atoms: C_6  and  N_10 
REMARK    5  A    between atoms: C_9  and  C_19 
REMARK    6  A    between atoms: N_11  and  C_19 
REMARK       I    between atoms: N_11  and  C_12 
REMARK    7  A    between atoms: S_15  and  C_16 
REMARK    8  A    between atoms: C_16  and  C_19 
ROOT
HETATM    1  O           1     -24.458  -6.447 -18.524  0.00  0.00    -0.271 OA
HETATM    2  N           1     -26.686  -6.469 -18.357  0.00  0.00    -0.344 N 
HETATM    3  C           1     -25.521  -6.704 -19.038  0.00  0.00     0.251 C 
HETATM    4  H           1     -27.575  -6.685 -18.787  0.00  0.00     0.163 HD
ENDROOT
BRANCH   3   5
HETATM    5  C           1     -25.565  -7.285 -20.429  0.00  0.00     0.297 C 
BRANCH   5   6
HETATM    6  C           1     -26.970  -7.795 -20.724  0.00  0.00     0.206 C 
BRANCH   6   7
HETATM    7  O           1     -26.899  -8.873 -21.617  0.00  0.00    -0.398 OA
HETATM    8  H           1     -27.780  -9.174 -21.753  0.00  0.00     0.209 HD
ENDBRANCH   6   7
ENDBRANCH   5   6
BRANCH   5   9
HETATM    9  N           1     -24.592  -8.422 -20.527  0.00  0.00    -0.064 N 
HETATM   10  H           1     -23.624  -8.044 -20.642  0.00  0.00     0.275 HD
HETATM   11  H           1     -24.640  -8.997 -19.655  0.00  0.00     0.275 HD
HETATM   12  H           1     -24.834  -9.018 -21.350  0.00  0.00     0.275 HD
ENDBRANCH   5   9
ENDBRANCH   3   5
BRANCH   2  13
HETATM   13  C           1     -26.642  -5.910 -17.020  0.00  0.00     0.194 C 
BRANCH  13  14
HETATM   14  C           1     -26.726  -7.025 -16.006  0.00  0.00     0.197 C 
HETATM   15  O           1     -25.682  -7.492 -15.503  0.00  0.00    -0.646 OA
HETATM   16  O           1     -27.840  -7.481 -15.670  0.00  0.00    -0.646 OA
ENDBRANCH  13  14
BRANCH  13  17
HETATM   17  C           1     -27.818  -4.961 -16.829  0.00  0.00     0.106 C 
BRANCH  17  18
HETATM   18  S           1     -28.902  -5.037 -18.282  0.00  0.00    -0.180 SA
HETATM   19  H           1     -28.064  -4.398 -19.116  0.00  0.00     0.101 HD
ENDBRANCH  17  18
ENDBRANCH  13  17
ENDBRANCH   2  13
TORSDOF 8
ENDMDL
MODEL 4
REMARK VINA RESULT:      -5.1     10.893     11.806
REMARK  8 active torsions:
REMARK  status: ('A' for Active; 'I' for Inactive)
REMARK    1  A    between atoms: O_4  and  C_5 
REMARK    2  A    between atoms: C_5  and  C_6 
REMARK    3  A    between atoms: C_6  and  C_12 
REMARK    4  A    between atoms: C_6  and  N_10 
REMARK    5  A    between atoms: C_9  and  C_19 
REMARK    6  A    between atoms: N_11  and  C_19 
REMARK       I    between atoms: N_11  and  C_12 
REMARK    7  A    between atoms: S_15  and  C_16 
REMARK    8  A    between atoms: C_16  and  C_19 
ROOT
HETATM    1  O           1     -34.476  -3.038 -13.547  0.00  0.00    -0.271 OA
HETATM    2  N           1     -35.133  -1.233 -12.408  0.00  0.00    -0.344 N 
HETATM    3  C           1     -34.467  -2.425 -12.506  0.00  0.00     0.251 C 
HETATM    4  H           1     -35.124  -0.719 -11.538  0.00  0.00     0.163 HD
ENDROOT
BRANCH   3   5
HETATM    5  C           1     -33.722  -2.972 -11.314  0.00  0.00     0.297 C 
BRANCH   5   6
HETATM    6  C           1     -34.515  -4.118 -10.700  0.00  0.00     0.206 C 
BRANCH   6   7
HETATM    7  O           1     -35.883  -3.916 -10.928  0.00  0.00    -0.398 OA
HETATM    8  H           1     -36.346  -4.413 -10.276  0.00  0.00     0.209 HD
ENDBRANCH   6   7
ENDBRANCH   5   6
BRANCH   5   9
HETATM    9  N           1     -33.544  -1.887 -10.294  0.00  0.00    -0.064 N 
HETATM   10  H           1     -32.556  -1.547 -10.315  0.00  0.00     0.275 HD
HETATM   11  H           1     -34.189  -1.094 -10.514  0.00  0.00     0.275 HD
HETATM   12  H           1     -33.764  -2.262  -9.344  0.00  0.00     0.275 HD
ENDBRANCH   5   9
ENDBRANCH   3   5
BRANCH   2  13
HETATM   13  C           1     -35.849  -0.707 -13.554  0.00  0.00     0.194 C 
BRANCH  13  14
HETATM   14  C           1     -35.011   0.352 -14.229  0.00  0.00     0.197 C 
HETATM   15  O           1     -34.612   0.181 -15.400  0.00  0.00    -0.646 OA
HETATM   16  O           1     -34.717   1.401 -13.614  0.00  0.00    -0.646 OA
ENDBRANCH  13  14
BRANCH  13  17
HETATM   17  C           1     -37.166  -0.096 -13.093  0.00  0.00     0.106 C 
BRANCH  17  18
HETATM   18  S           1     -37.289  -0.216 -11.286  0.00  0.00    -0.180 SA
HETATM   19  H           1     -36.006   0.098 -11.037  0.00  0.00     0.101 HD
ENDBRANCH  17  18
ENDBRANCH  13  17
ENDBRANCH   2  13
TORSDOF 8
ENDMDL
MODEL 5
REMARK VINA RESULT:      -5.1     11.146     12.261
REMARK  8 active torsions:
REMARK  status: ('A' for Active; 'I' for Inactive)
REMARK    1  A    between atoms: O_4  and  C_5 
REMARK    2  A    between atoms: C_5  and  C_6 
REMARK    3  A    between atoms: C_6  and  C_12 
REMARK    4  A    between atoms: C_6  and  N_10 
REMARK    5  A    between atoms: C_9  and  C_19 
REMARK    6  A    between atoms: N_11  and  C_19 
REMARK       I    between atoms: N_11  and  C_12 
REMARK    7  A    between atoms: S_15  and  C_16 
REMARK    8  A    between atoms: C_16  and  C_19 
ROOT
HETATM    1  O           1     -21.812  -3.656  -7.218  0.00  0.00    -0.271 OA
HETATM    2  N           1     -22.324  -4.819  -9.055  0.00  0.00    -0.344 N 
HETATM    3  C           1     -21.811  -4.721  -7.790  0.00  0.00     0.251 C 
HETATM    4  H           1     -22.324  -5.710  -9.533  0.00  0.00     0.163 HD
ENDROOT
BRANCH   3   5
HETATM    5  C           1     -21.243  -5.942  -7.109  0.00  0.00     0.297 C 
BRANCH   5   6
HETATM    6  C           1     -21.426  -5.816  -5.602  0.00  0.00     0.206 C 
BRANCH   6   7
HETATM    7  O           1     -22.790  -5.899  -5.288  0.00  0.00    -0.398 OA
HETATM    8  H           1     -23.107  -6.705  -5.656  0.00  0.00     0.209 HD
ENDBRANCH   6   7
ENDBRANCH   5   6
BRANCH   5   9
HETATM    9  N           1     -19.781  -6.056  -7.426  0.00  0.00    -0.064 N 
HETATM   10  H           1     -19.336  -6.743  -6.776  0.00  0.00     0.275 HD
HETATM   11  H           1     -19.664  -6.383  -8.412  0.00  0.00     0.275 HD
HETATM   12  H           1     -19.326  -5.123  -7.311  0.00  0.00     0.275 HD
ENDBRANCH   5   9
ENDBRANCH   3   5
BRANCH   2  13
HETATM   13  C           1     -22.869  -3.645  -9.708  0.00  0.00     0.194 C 
BRANCH  13  14
HETATM   14  C           1     -24.287  -3.926 -10.146  0.00  0.00     0.197 C 
HETATM   15  O           1     -24.853  -4.983  -9.793  0.00  0.00    -0.646 OA
HETATM   16  O           1     -24.894  -3.099 -10.861  0.00  0.00    -0.646 OA
ENDBRANCH  13  14
BRANCH  13  17
HETATM   17  C           1     -22.021  -3.303 -10.926  0.00  0.00     0.106 C 
BRANCH  17  18
HETATM   18  S           1     -20.495  -4.285 -10.897  0.00  0.00    -0.180 SA
HETATM   19  H           1     -20.979  -5.316 -11.612  0.00  0.00     0.101 HD
ENDBRANCH  17  18
ENDBRANCH  13  17
ENDBRANCH   2  13
TORSDOF 8
ENDMDL
MODEL 6
REMARK VINA RESULT:      -5.0     10.228     11.514
REMARK  8 active torsions:
REMARK  status: ('A' for Active; 'I' for Inactive)
REMARK    1  A    between atoms: O_4  and  C_5 
REMARK    2  A    between atoms: C_5  and  C_6 
REMARK    3  A    between atoms: C_6  and  C_12 
REMARK    4  A    between atoms: C_6  and  N_10 
REMARK    5  A    between atoms: C_9  and  C_19 
REMARK    6  A    between atoms: N_11  and  C_19 
REMARK       I    between atoms: N_11  and  C_12 
REMARK    7  A    between atoms: S_15  and  C_16 
REMARK    8  A    between atoms: C_16  and  C_19 
ROOT
HETATM    1  O           1     -33.601  -2.180 -11.155  0.00  0.00    -0.271 OA
HETATM    2  N           1     -34.848  -1.698 -12.944  0.00  0.00    -0.344 N 
HETATM    3  C           1     -34.117  -2.565 -12.178  0.00  0.00     0.251 C 
HETATM    4  H           1     -35.281  -2.021 -13.799  0.00  0.00     0.163 HD
ENDROOT
BRANCH   3   5
HETATM    5  C           1     -33.955  -4.002 -12.609  0.00  0.00     0.297 C 
BRANCH   5   6
HETATM    6  C           1     -34.931  -4.879 -11.836  0.00  0.00     0.206 C 
BRANCH   6   7
HETATM    7  O           1     -35.803  -4.068 -11.096  0.00  0.00    -0.398 OA
HETATM    8  H           1     -36.555  -4.595 -10.888  0.00  0.00     0.209 HD
ENDBRANCH   6   7
ENDBRANCH   5   6
BRANCH   5   9
HETATM    9  N           1     -32.551  -4.452 -12.331  0.00  0.00    -0.064 N 
HETATM   10  H           1     -32.135  -4.855 -13.200  0.00  0.00     0.275 HD
HETATM   11  H           1     -31.980  -3.635 -12.017  0.00  0.00     0.275 HD
HETATM   12  H           1     -32.561  -5.178 -11.580  0.00  0.00     0.275 HD
ENDBRANCH   5   9
ENDBRANCH   3   5
BRANCH   2  13
HETATM   13  C           1     -35.003  -0.318 -12.528  0.00  0.00     0.194 C 
BRANCH  13  14
HETATM   14  C           1     -36.258  -0.179 -11.701  0.00  0.00     0.197 C 
HETATM   15  O           1     -37.319  -0.720 -12.079  0.00  0.00    -0.646 OA
HETATM   16  O           1     -36.236   0.477 -10.637  0.00  0.00    -0.646 OA
ENDBRANCH  13  14
BRANCH  13  17
HETATM   17  C           1     -35.106   0.574 -13.759  0.00  0.00     0.106 C 
BRANCH  17  18
HETATM   18  S           1     -35.635  -0.418 -15.184  0.00  0.00    -0.180 SA
HETATM   19  H           1     -34.499  -0.272 -15.887  0.00  0.00     0.101 HD
ENDBRANCH  17  18
ENDBRANCH  13  17
ENDBRANCH   2  13
TORSDOF 8
ENDMDL
MODEL 7
REMARK VINA RESULT:      -5.0      2.123      2.386
REMARK  8 active torsions:
REMARK  status: ('A' for Active; 'I' for Inactive)
REMARK    1  A    between atoms: O_4  and  C_5 
REMARK    2  A    between atoms: C_5  and  C_6 
REMARK    3  A    between atoms: C_6  and  C_12 
REMARK    4  A    between atoms: C_6  and  N_10 
REMARK    5  A    between atoms: C_9  and  C_19 
REMARK    6  A    between atoms: N_11  and  C_19 
REMARK       I    between atoms: N_11  and  C_12 
REMARK    7  A    between atoms: S_15  and  C_16 
REMARK    8  A    between atoms: C_16  and  C_19 
ROOT
HETATM    1  O           1     -26.236  -7.460 -15.166  0.00  0.00    -0.271 OA
HETATM    2  N           1     -27.172  -6.595 -17.000  0.00  0.00    -0.344 N 
HETATM    3  C           1     -26.086  -7.011 -16.277  0.00  0.00     0.251 C 
HETATM    4  H           1     -27.046  -6.220 -17.931  0.00  0.00     0.163 HD
ENDROOT
BRANCH   3   5
HETATM    5  C           1     -24.702  -6.908 -16.868  0.00  0.00     0.297 C 
BRANCH   5   6
HETATM    6  C           1     -24.796  -6.906 -18.388  0.00  0.00     0.206 C 
BRANCH   6   7
HETATM    7  O           1     -23.522  -6.705 -18.936  0.00  0.00    -0.398 OA
HETATM    8  H           1     -23.012  -7.470 -18.733  0.00  0.00     0.209 HD
ENDBRANCH   6   7
ENDBRANCH   5   6
BRANCH   5   9
HETATM    9  N           1     -23.879  -8.080 -16.421  0.00  0.00    -0.064 N 
HETATM   10  H           1     -24.136  -8.922 -16.985  0.00  0.00     0.275 HD
HETATM   11  H           1     -22.865  -7.865 -16.557  0.00  0.00     0.275 HD
HETATM   12  H           1     -24.063  -8.268 -15.410  0.00  0.00     0.275 HD
ENDBRANCH   5   9
ENDBRANCH   3   5
BRANCH   2  13
HETATM   13  C           1     -28.502  -6.694 -16.431  0.00  0.00     0.194 C 
BRANCH  13  14
HETATM   14  C           1     -29.491  -7.030 -17.520  0.00  0.00     0.197 C 
HETATM   15  O           1     -29.090  -7.257 -18.682  0.00  0.00    -0.646 OA
HETATM   16  O           1     -30.713  -7.082 -17.260  0.00  0.00    -0.646 OA
ENDBRANCH  13  14
BRANCH  13  17
HETATM   17  C           1     -28.881  -5.363 -15.794  0.00  0.00     0.106 C 
BRANCH  17  18
HETATM   18  S           1     -28.463  -4.008 -16.926  0.00  0.00    -0.180 SA
HETATM   19  H           1     -27.858  -4.777 -17.848  0.00  0.00     0.101 HD
ENDBRANCH  17  18
ENDBRANCH  13  17
ENDBRANCH   2  13
TORSDOF 8
ENDMDL
MODEL 8
REMARK VINA RESULT:      -4.9      3.274      5.655
REMARK  8 active torsions:
REMARK  status: ('A' for Active; 'I' for Inactive)
REMARK    1  A    between atoms: O_4  and  C_5 
REMARK    2  A    between atoms: C_5  and  C_6 
REMARK    3  A    between atoms: C_6  and  C_12 
REMARK    4  A    between atoms: C_6  and  N_10 
REMARK    5  A    between atoms: C_9  and  C_19 
REMARK    6  A    between atoms: N_11  and  C_19 
REMARK       I    between atoms: N_11  and  C_12 
REMARK    7  A    between atoms: S_15  and  C_16 
REMARK    8  A    between atoms: C_16  and  C_19 
ROOT
HETATM    1  O           1     -30.471  -6.386 -17.637  0.00  0.00    -0.271 OA
HETATM    2  N           1     -28.659  -5.414 -16.767  0.00  0.00    -0.344 N 
HETATM    3  C           1     -29.980  -5.409 -17.124  0.00  0.00     0.251 C 
HETATM    4  H           1     -28.248  -4.597 -16.337  0.00  0.00     0.163 HD
ENDROOT
BRANCH   3   5
HETATM    5  C           1     -30.824  -4.183 -16.875  0.00  0.00     0.297 C 
BRANCH   5   6
HETATM    6  C           1     -32.293  -4.581 -16.813  0.00  0.00     0.206 C 
BRANCH   6   7
HETATM    7  O           1     -33.081  -3.544 -17.333  0.00  0.00    -0.398 OA
HETATM    8  H           1     -32.725  -2.738 -17.003  0.00  0.00     0.209 HD
ENDBRANCH   6   7
ENDBRANCH   5   6
BRANCH   5   9
HETATM    9  N           1     -30.620  -3.201 -17.990  0.00  0.00    -0.064 N 
HETATM   10  H           1     -31.481  -2.620 -18.106  0.00  0.00     0.275 HD
HETATM   11  H           1     -29.809  -2.581 -17.764  0.00  0.00     0.275 HD
HETATM   12  H           1     -30.426  -3.718 -18.878  0.00  0.00     0.275 HD
ENDBRANCH   5   9
ENDBRANCH   3   5
BRANCH   2  13
HETATM   13  C           1     -27.848  -6.593 -17.007  0.00  0.00     0.194 C 
BRANCH  13  14
HETATM   14  C           1     -27.347  -7.134 -15.691  0.00  0.00     0.197 C 
HETATM   15  O           1     -28.158  -7.533 -14.828  0.00  0.00    -0.646 OA
HETATM   16  O           1     -26.118  -7.184 -15.464  0.00  0.00    -0.646 OA
ENDBRANCH  13  14
BRANCH  13  17
HETATM   17  C           1     -26.663  -6.222 -17.889  0.00  0.00     0.106 C 
BRANCH  17  18
HETATM   18  S           1     -27.133  -6.380 -19.635  0.00  0.00    -0.180 SA
HETATM   19  H           1     -26.274  -5.453 -20.095  0.00  0.00     0.101 HD
ENDBRANCH  17  18
ENDBRANCH  13  17
ENDBRANCH   2  13
TORSDOF 8
ENDMDL
MODEL 9
REMARK VINA RESULT:      -4.5     11.222     12.571
REMARK  8 active torsions:
REMARK  status: ('A' for Active; 'I' for Inactive)
REMARK    1  A    between atoms: O_4  and  C_5 
REMARK    2  A    between atoms: C_5  and  C_6 
REMARK    3  A    between atoms: C_6  and  C_12 
REMARK    4  A    between atoms: C_6  and  N_10 
REMARK    5  A    between atoms: C_9  and  C_19 
REMARK    6  A    between atoms: N_11  and  C_19 
REMARK       I    between atoms: N_11  and  C_12 
REMARK    7  A    between atoms: S_15  and  C_16 
REMARK    8  A    between atoms: C_16  and  C_19 
ROOT
HETATM    1  O           1     -22.845  -2.887  -9.104  0.00  0.00    -0.271 OA
HETATM    2  N           1     -22.177  -4.843  -8.259  0.00  0.00    -0.344 N 
HETATM    3  C           1     -23.010  -4.082  -9.033  0.00  0.00     0.251 C 
HETATM    4  H           1     -22.314  -5.843  -8.200  0.00  0.00     0.163 HD
ENDROOT
BRANCH   3   5
HETATM    5  C           1     -24.134  -4.735  -9.800  0.00  0.00     0.297 C 
BRANCH   5   6
HETATM    6  C           1     -23.705  -4.952 -11.245  0.00  0.00     0.206 C 
BRANCH   6   7
HETATM    7  O           1     -22.336  -4.680 -11.373  0.00  0.00    -0.398 OA
HETATM    8  H           1     -22.145  -3.960 -10.798  0.00  0.00     0.209 HD
ENDBRANCH   6   7
ENDBRANCH   5   6
BRANCH   5   9
HETATM    9  N           1     -25.343  -3.849  -9.765  0.00  0.00    -0.064 N 
HETATM   10  H           1     -26.207  -4.436  -9.764  0.00  0.00     0.275 HD
HETATM   11  H           1     -25.320  -3.262  -8.901  0.00  0.00     0.275 HD
HETATM   12  H           1     -25.344  -3.229 -10.607  0.00  0.00     0.275 HD
ENDBRANCH   5   9
ENDBRANCH   3   5
BRANCH   2  13
HETATM   13  C           1     -21.097  -4.215  -7.523  0.00  0.00     0.194 C 
BRANCH  13  14
HETATM   14  C           1     -19.791  -4.457  -8.239  0.00  0.00     0.197 C 
HETATM   15  O           1     -19.792  -4.803  -9.440  0.00  0.00    -0.646 OA
HETATM   16  O           1     -18.709  -4.311  -7.631  0.00  0.00    -0.646 OA
ENDBRANCH  13  14
BRANCH  13  17
HETATM   17  C           1     -21.025  -4.809  -6.122  0.00  0.00     0.106 C 
BRANCH  17  18
HETATM   18  S           1     -21.106  -6.619  -6.226  0.00  0.00    -0.180 SA
HETATM   19  H           1     -20.080  -6.854  -5.390  0.00  0.00     0.101 HD
ENDBRANCH  17  18
ENDBRANCH  13  17
ENDBRANCH   2  13
TORSDOF 8
ENDMDL
