MODEL 1
REMARK VINA RESULT:      -7.6      0.000      0.000
REMARK  9 active torsions:
REMARK  status: ('A' for Active; 'I' for Inactive)
REMARK    1  A    between atoms: N_1  and  C_17 
REMARK    2  A    between atoms: O_4  and  C_12 
REMARK    3  A    between atoms: C_8  and  C_13 
REMARK    4  A    between atoms: C_13  and  C_17 
REMARK    5  A    between atoms: N_15  and  C_21 
REMARK       I    between atoms: N_15  and  C_16 
REMARK    6  A    between atoms: C_16  and  C_17 
REMARK    7  A    between atoms: C_20  and  C_26 
REMARK    8  A    between atoms: C_20  and  C_21 
REMARK    9  A    between atoms: C_21  and  C_22 
ROOT
HETATM    1  O           1     -20.472  -7.586  -5.987  0.00  0.00    -0.271 OA
HETATM    2  H           1     -22.315  -5.169  -5.212  0.00  0.00     0.163 HD
HETATM    3  N           1     -21.640  -5.697  -5.749  0.00  0.00    -0.344 N 
HETATM    4  C           1     -21.279  -6.955  -5.347  0.00  0.00     0.249 C 
ENDROOT
BRANCH   3   5
HETATM    5  C           1     -21.053  -5.122  -6.944  0.00  0.00     0.189 C 
BRANCH   5   6
HETATM    6  C           1     -21.902  -3.947  -7.410  0.00  0.00     0.074 C 
BRANCH   6   7
HETATM    7  C           1     -22.356  -4.186  -8.817  0.00  0.00    -0.056 A 
HETATM    8  C           1     -23.712  -4.363  -9.091  0.00  0.00     0.010 A 
HETATM    9  C           1     -24.136  -4.585 -10.401  0.00  0.00     0.037 A 
HETATM   10  C           1     -23.203  -4.629 -11.438  0.00  0.00     0.065 A 
HETATM   11  C           1     -21.847  -4.450 -11.164  0.00  0.00     0.037 A 
HETATM   12  C           1     -21.423  -4.228  -9.853  0.00  0.00     0.010 A 
BRANCH  10  13
HETATM   13  O           1     -23.614  -4.844 -12.711  0.00  0.00    -0.361 OA
HETATM   14  H           1     -23.339  -4.082 -13.248  0.00  0.00     0.217 HD
ENDBRANCH  10  13
ENDBRANCH   6   7
ENDBRANCH   5   6
BRANCH   5  15
HETATM   15  C           1     -19.655  -4.644  -6.638  0.00  0.00     0.197 C 
HETATM   16  O           1     -19.340  -4.345  -5.466  0.00  0.00    -0.646 OA
HETATM   17  O           1     -18.812  -4.549  -7.556  0.00  0.00    -0.646 OA
ENDBRANCH   5  15
ENDBRANCH   3   5
BRANCH   4  18
HETATM   18  C           1     -21.889  -7.553  -4.103  0.00  0.00     0.278 C 
BRANCH  18  19
HETATM   19  N           1     -21.704  -9.041  -4.121  0.00  0.00    -0.066 N 
HETATM   20  H           1     -22.001  -9.442  -3.203  0.00  0.00     0.275 HD
HETATM   21  H           1     -22.283  -9.455  -4.886  0.00  0.00     0.275 HD
HETATM   22  H           1     -20.696  -9.265  -4.288  0.00  0.00     0.275 HD
ENDBRANCH  18  19
BRANCH  18  23
HETATM   23  C           1     -21.205  -6.973  -2.871  0.00  0.00     0.021 C 
HETATM   24  C           1     -22.211  -6.161  -2.066  0.00  0.00     0.012 C 
BRANCH  23  25
HETATM   25  C           1     -20.664  -8.107  -2.010  0.00  0.00     0.002 C 
HETATM   26  C           1     -21.296  -8.040  -0.626  0.00  0.00     0.005 C 
ENDBRANCH  23  25
ENDBRANCH  18  23
ENDBRANCH   4  18
TORSDOF 9
ENDMDL
MODEL 2
REMARK VINA RESULT:      -6.9      1.672      2.694
REMARK  9 active torsions:
REMARK  status: ('A' for Active; 'I' for Inactive)
REMARK    1  A    between atoms: N_1  and  C_17 
REMARK    2  A    between atoms: O_4  and  C_12 
REMARK    3  A    between atoms: C_8  and  C_13 
REMARK    4  A    between atoms: C_13  and  C_17 
REMARK    5  A    between atoms: N_15  and  C_21 
REMARK       I    between atoms: N_15  and  C_16 
REMARK    6  A    between atoms: C_16  and  C_17 
REMARK    7  A    between atoms: C_20  and  C_26 
REMARK    8  A    between atoms: C_20  and  C_21 
REMARK    9  A    between atoms: C_21  and  C_22 
ROOT
HETATM    1  O           1     -22.702  -6.917  -3.913  0.00  0.00    -0.271 OA
HETATM    2  H           1     -20.001  -5.321  -3.921  0.00  0.00     0.163 HD
HETATM    3  N           1     -20.830  -5.760  -4.298  0.00  0.00    -0.344 N 
HETATM    4  C           1     -21.711  -6.392  -3.462  0.00  0.00     0.249 C 
ENDROOT
BRANCH   3   5
HETATM    5  C           1     -21.087  -5.721  -5.725  0.00  0.00     0.189 C 
BRANCH   5   6
HETATM    6  C           1     -20.373  -4.521  -6.335  0.00  0.00     0.074 C 
BRANCH   6   7
HETATM    7  C           1     -20.945  -4.235  -7.689  0.00  0.00    -0.056 A 
HETATM    8  C           1     -20.112  -4.211  -8.807  0.00  0.00     0.010 A 
HETATM    9  C           1     -20.644  -3.945 -10.068  0.00  0.00     0.037 A 
HETATM   10  C           1     -22.010  -3.703 -10.212  0.00  0.00     0.065 A 
HETATM   11  C           1     -22.845  -3.728  -9.094  0.00  0.00     0.037 A 
HETATM   12  C           1     -22.312  -3.995  -7.832  0.00  0.00     0.010 A 
BRANCH  10  13
HETATM   13  O           1     -22.528  -3.445 -11.437  0.00  0.00    -0.361 OA
HETATM   14  H           1     -22.634  -2.483 -11.521  0.00  0.00     0.217 HD
ENDBRANCH  10  13
ENDBRANCH   6   7
ENDBRANCH   5   6
BRANCH   5  15
HETATM   15  C           1     -20.577  -6.989  -6.363  0.00  0.00     0.197 C 
HETATM   16  O           1     -21.308  -8.002  -6.412  0.00  0.00    -0.646 OA
HETATM   17  O           1     -19.424  -7.027  -6.844  0.00  0.00    -0.646 OA
ENDBRANCH   5  15
ENDBRANCH   3   5
BRANCH   4  18
HETATM   18  C           1     -21.444  -6.434  -1.978  0.00  0.00     0.278 C 
BRANCH  18  19
HETATM   19  N           1     -22.265  -5.382  -1.293  0.00  0.00    -0.066 N 
HETATM   20  H           1     -22.882  -4.910  -1.992  0.00  0.00     0.275 HD
HETATM   21  H           1     -22.854  -5.826  -0.553  0.00  0.00     0.275 HD
HETATM   22  H           1     -21.631  -4.674  -0.856  0.00  0.00     0.275 HD
ENDBRANCH  18  19
BRANCH  18  23
HETATM   23  C           1     -21.820  -7.805  -1.431  0.00  0.00     0.021 C 
HETATM   24  C           1     -20.576  -8.680  -1.355  0.00  0.00     0.012 C 
BRANCH  23  25
HETATM   25  C           1     -22.416  -7.649  -0.038  0.00  0.00     0.002 C 
HETATM   26  C           1     -21.558  -8.404   0.969  0.00  0.00     0.005 C 
ENDBRANCH  23  25
ENDBRANCH  18  23
ENDBRANCH   4  18
TORSDOF 9
ENDMDL
MODEL 3
REMARK VINA RESULT:      -6.9     11.420     14.330
REMARK  9 active torsions:
REMARK  status: ('A' for Active; 'I' for Inactive)
REMARK    1  A    between atoms: N_1  and  C_17 
REMARK    2  A    between atoms: O_4  and  C_12 
REMARK    3  A    between atoms: C_8  and  C_13 
REMARK    4  A    between atoms: C_13  and  C_17 
REMARK    5  A    between atoms: N_15  and  C_21 
REMARK       I    between atoms: N_15  and  C_16 
REMARK    6  A    between atoms: C_16  and  C_17 
REMARK    7  A    between atoms: C_20  and  C_26 
REMARK    8  A    between atoms: C_20  and  C_21 
REMARK    9  A    between atoms: C_21  and  C_22 
ROOT
HETATM    1  O           1     -26.790  -5.927 -19.794  0.00  0.00    -0.271 OA
HETATM    2  H           1     -25.240  -7.187 -17.375  0.00  0.00     0.163 HD
HETATM    3  N           1     -25.995  -6.725 -17.865  0.00  0.00    -0.344 N 
HETATM    4  C           1     -25.889  -6.479 -19.208  0.00  0.00     0.249 C 
ENDROOT
BRANCH   3   5
HETATM    5  C           1     -27.189  -6.323 -17.147  0.00  0.00     0.189 C 
BRANCH   5   6
HETATM    6  C           1     -28.420  -6.808 -17.901  0.00  0.00     0.074 C 
BRANCH   6   7
HETATM    7  C           1     -29.532  -5.820 -17.731  0.00  0.00    -0.056 A 
HETATM    8  C           1     -29.318  -4.473 -18.026  0.00  0.00     0.010 A 
HETATM    9  C           1     -30.354  -3.552 -17.868  0.00  0.00     0.037 A 
HETATM   10  C           1     -31.603  -3.978 -17.415  0.00  0.00     0.065 A 
HETATM   11  C           1     -31.817  -5.324 -17.121  0.00  0.00     0.037 A 
HETATM   12  C           1     -30.781  -6.246 -17.279  0.00  0.00     0.010 A 
BRANCH  10  13
HETATM   13  O           1     -32.609  -3.083 -17.261  0.00  0.00    -0.361 OA
HETATM   14  H           1     -32.581  -2.753 -16.348  0.00  0.00     0.217 HD
ENDBRANCH  10  13
ENDBRANCH   6   7
ENDBRANCH   5   6
BRANCH   5  15
HETATM   15  C           1     -27.173  -6.929 -15.766  0.00  0.00     0.197 C 
HETATM   16  O           1     -26.115  -7.415 -15.309  0.00  0.00    -0.646 OA
HETATM   17  O           1     -28.216  -6.945 -15.077  0.00  0.00    -0.646 OA
ENDBRANCH   5  15
ENDBRANCH   3   5
BRANCH   4  18
HETATM   18  C           1     -24.646  -6.896 -19.955  0.00  0.00     0.278 C 
BRANCH  18  19
HETATM   19  N           1     -23.615  -7.379 -18.979  0.00  0.00    -0.066 N 
HETATM   20  H           1     -23.963  -8.240 -18.500  0.00  0.00     0.275 HD
HETATM   21  H           1     -22.729  -7.598 -19.489  0.00  0.00     0.275 HD
HETATM   22  H           1     -23.433  -6.634 -18.268  0.00  0.00     0.275 HD
ENDBRANCH  18  19
BRANCH  18  23
HETATM   23  C           1     -24.990  -8.019 -20.926  0.00  0.00     0.021 C 
HETATM   24  C           1     -26.501  -8.096 -21.101  0.00  0.00     0.012 C 
BRANCH  23  25
HETATM   25  C           1     -24.337  -7.741 -22.274  0.00  0.00     0.002 C 
HETATM   26  C           1     -23.013  -8.489 -22.362  0.00  0.00     0.005 C 
ENDBRANCH  23  25
ENDBRANCH  18  23
ENDBRANCH   4  18
TORSDOF 9
ENDMDL
MODEL 4
REMARK VINA RESULT:      -6.8      2.461      7.404
REMARK  9 active torsions:
REMARK  status: ('A' for Active; 'I' for Inactive)
REMARK    1  A    between atoms: N_1  and  C_17 
REMARK    2  A    between atoms: O_4  and  C_12 
REMARK    3  A    between atoms: C_8  and  C_13 
REMARK    4  A    between atoms: C_13  and  C_17 
REMARK    5  A    between atoms: N_15  and  C_21 
REMARK       I    between atoms: N_15  and  C_16 
REMARK    6  A    between atoms: C_16  and  C_17 
REMARK    7  A    between atoms: C_20  and  C_26 
REMARK    8  A    between atoms: C_20  and  C_21 
REMARK    9  A    between atoms: C_21  and  C_22 
ROOT
HETATM    1  O           1     -20.253  -4.774  -4.883  0.00  0.00    -0.271 OA
HETATM    2  H           1     -20.238  -7.057  -7.034  0.00  0.00     0.163 HD
HETATM    3  N           1     -20.212  -6.637  -6.114  0.00  0.00    -0.344 N 
HETATM    4  C           1     -20.283  -5.276  -5.981  0.00  0.00     0.249 C 
ENDROOT
BRANCH   3   5
HETATM    5  C           1     -20.099  -7.475  -4.936  0.00  0.00     0.189 C 
BRANCH   5   6
HETATM    6  C           1     -21.458  -8.083  -4.615  0.00  0.00     0.074 C 
BRANCH   6   7
HETATM    7  C           1     -21.709  -7.997  -3.141  0.00  0.00    -0.056 A 
HETATM    8  C           1     -21.966  -6.761  -2.549  0.00  0.00     0.010 A 
HETATM    9  C           1     -22.201  -6.680  -1.176  0.00  0.00     0.037 A 
HETATM   10  C           1     -22.177  -7.836  -0.396  0.00  0.00     0.065 A 
HETATM   11  C           1     -21.920  -9.073  -0.988  0.00  0.00     0.037 A 
HETATM   12  C           1     -21.686  -9.153  -2.362  0.00  0.00     0.010 A 
BRANCH  10  13
HETATM   13  O           1     -22.404  -7.758   0.938  0.00  0.00    -0.361 OA
HETATM   14  H           1     -22.682  -8.637   1.247  0.00  0.00     0.217 HD
ENDBRANCH  10  13
ENDBRANCH   6   7
ENDBRANCH   5   6
BRANCH   5  15
HETATM   15  C           1     -19.103  -8.578  -5.196  0.00  0.00     0.197 C 
HETATM   16  O           1     -18.796  -9.372  -4.281  0.00  0.00    -0.646 OA
HETATM   17  O           1     -18.584  -8.697  -6.327  0.00  0.00    -0.646 OA
ENDBRANCH   5  15
ENDBRANCH   3   5
BRANCH   4  18
HETATM   18  C           1     -20.400  -4.404  -7.207  0.00  0.00     0.278 C 
BRANCH  18  19
HETATM   19  N           1     -19.108  -4.434  -7.966  0.00  0.00    -0.066 N 
HETATM   20  H           1     -18.869  -3.469  -8.288  0.00  0.00     0.275 HD
HETATM   21  H           1     -18.347  -4.791  -7.345  0.00  0.00     0.275 HD
HETATM   22  H           1     -19.205  -5.063  -8.796  0.00  0.00     0.275 HD
ENDBRANCH  18  19
BRANCH  18  23
HETATM   23  C           1     -21.522  -4.924  -8.096  0.00  0.00     0.021 C 
HETATM   24  C           1     -22.860  -4.407  -7.582  0.00  0.00     0.012 C 
BRANCH  23  25
HETATM   25  C           1     -21.305  -4.437  -9.523  0.00  0.00     0.002 C 
HETATM   26  C           1     -22.540  -3.682  -9.996  0.00  0.00     0.005 C 
ENDBRANCH  23  25
ENDBRANCH  18  23
ENDBRANCH   4  18
TORSDOF 9
ENDMDL
MODEL 5
REMARK VINA RESULT:      -6.6     13.103     16.096
REMARK  9 active torsions:
REMARK  status: ('A' for Active; 'I' for Inactive)
REMARK    1  A    between atoms: N_1  and  C_17 
REMARK    2  A    between atoms: O_4  and  C_12 
REMARK    3  A    between atoms: C_8  and  C_13 
REMARK    4  A    between atoms: C_13  and  C_17 
REMARK    5  A    between atoms: N_15  and  C_21 
REMARK       I    between atoms: N_15  and  C_16 
REMARK    6  A    between atoms: C_16  and  C_17 
REMARK    7  A    between atoms: C_20  and  C_26 
REMARK    8  A    between atoms: C_20  and  C_21 
REMARK    9  A    between atoms: C_21  and  C_22 
ROOT
HETATM    1  O           1     -33.770  -1.411 -10.515  0.00  0.00    -0.271 OA
HETATM    2  H           1     -36.663  -2.583 -10.832  0.00  0.00     0.163 HD
HETATM    3  N           1     -35.946  -1.881 -10.701  0.00  0.00    -0.344 N 
HETATM    4  C           1     -34.627  -2.248 -10.670  0.00  0.00     0.249 C 
ENDROOT
BRANCH   3   5
HETATM    5  C           1     -36.314  -0.487 -10.547  0.00  0.00     0.189 C 
BRANCH   5   6
HETATM    6  C           1     -37.533  -0.186 -11.409  0.00  0.00     0.074 C 
BRANCH   6   7
HETATM    7  C           1     -37.121  -0.102 -12.845  0.00  0.00    -0.056 A 
HETATM    8  C           1     -38.075  -0.240 -13.853  0.00  0.00     0.010 A 
HETATM    9  C           1     -37.692  -0.161 -15.192  0.00  0.00     0.037 A 
HETATM   10  C           1     -36.354   0.057 -15.523  0.00  0.00     0.065 A 
HETATM   11  C           1     -35.400   0.196 -14.515  0.00  0.00     0.037 A 
HETATM   12  C           1     -35.783   0.116 -13.175  0.00  0.00     0.010 A 
BRANCH  10  13
HETATM   13  O           1     -35.981   0.134 -16.824  0.00  0.00    -0.361 OA
HETATM   14  H           1     -35.243  -0.483 -16.961  0.00  0.00     0.217 HD
ENDBRANCH  10  13
ENDBRANCH   6   7
ENDBRANCH   5   6
BRANCH   5  15
HETATM   15  C           1     -36.638  -0.210  -9.100  0.00  0.00     0.197 C 
HETATM   16  O           1     -37.806  -0.364  -8.681  0.00  0.00    -0.646 OA
HETATM   17  O           1     -35.740   0.174  -8.320  0.00  0.00    -0.646 OA
ENDBRANCH   5  15
ENDBRANCH   3   5
BRANCH   4  18
HETATM   18  C           1     -34.245  -3.699 -10.831  0.00  0.00     0.278 C 
BRANCH  18  19
HETATM   19  N           1     -35.484  -4.543 -10.851  0.00  0.00    -0.066 N 
HETATM   20  H           1     -36.198  -4.130 -10.210  0.00  0.00     0.275 HD
HETATM   21  H           1     -35.866  -4.577 -11.823  0.00  0.00     0.275 HD
HETATM   22  H           1     -35.251  -5.512 -10.534  0.00  0.00     0.275 HD
ENDBRANCH  18  19
BRANCH  18  23
HETATM   23  C           1     -33.484  -3.883 -12.138  0.00  0.00     0.021 C 
HETATM   24  C           1     -32.265  -4.764 -11.897  0.00  0.00     0.012 C 
BRANCH  23  25
HETATM   25  C           1     -34.394  -4.547 -13.163  0.00  0.00     0.002 C 
HETATM   26  C           1     -34.277  -3.818 -14.495  0.00  0.00     0.005 C 
ENDBRANCH  23  25
ENDBRANCH  18  23
ENDBRANCH   4  18
TORSDOF 9
ENDMDL
MODEL 6
REMARK VINA RESULT:      -6.5      2.459      4.091
REMARK  9 active torsions:
REMARK  status: ('A' for Active; 'I' for Inactive)
REMARK    1  A    between atoms: N_1  and  C_17 
REMARK    2  A    between atoms: O_4  and  C_12 
REMARK    3  A    between atoms: C_8  and  C_13 
REMARK    4  A    between atoms: C_13  and  C_17 
REMARK    5  A    between atoms: N_15  and  C_21 
REMARK       I    between atoms: N_15  and  C_16 
REMARK    6  A    between atoms: C_16  and  C_17 
REMARK    7  A    between atoms: C_20  and  C_26 
REMARK    8  A    between atoms: C_20  and  C_21 
REMARK    9  A    between atoms: C_21  and  C_22 
ROOT
HETATM    1  O           1     -22.710  -6.177  -1.966  0.00  0.00    -0.271 OA
HETATM    2  H           1     -20.875  -8.674  -2.462  0.00  0.00     0.163 HD
HETATM    3  N           1     -21.396  -7.836  -2.684  0.00  0.00    -0.344 N 
HETATM    4  C           1     -22.087  -7.178  -1.702  0.00  0.00     0.249 C 
ENDROOT
BRANCH   3   5
HETATM    5  C           1     -21.411  -7.329  -4.043  0.00  0.00     0.189 C 
BRANCH   5   6
HETATM    6  C           1     -20.808  -5.931  -4.069  0.00  0.00     0.074 C 
BRANCH   6   7
HETATM    7  C           1     -20.871  -5.386  -5.462  0.00  0.00    -0.056 A 
HETATM    8  C           1     -22.088  -5.352  -6.142  0.00  0.00     0.010 A 
HETATM    9  C           1     -22.148  -4.843  -7.440  0.00  0.00     0.037 A 
HETATM   10  C           1     -20.991  -4.368  -8.056  0.00  0.00     0.065 A 
HETATM   11  C           1     -19.773  -4.401  -7.376  0.00  0.00     0.037 A 
HETATM   12  C           1     -19.714  -4.910  -6.077  0.00  0.00     0.010 A 
BRANCH  10  13
HETATM   13  O           1     -21.048  -3.873  -9.317  0.00  0.00    -0.361 OA
HETATM   14  H           1     -21.493  -4.531  -9.877  0.00  0.00     0.217 HD
ENDBRANCH  10  13
ENDBRANCH   6   7
ENDBRANCH   5   6
BRANCH   5  15
HETATM   15  C           1     -20.604  -8.244  -4.930  0.00  0.00     0.197 C 
HETATM   16  O           1     -19.402  -8.468  -4.667  0.00  0.00    -0.646 OA
HETATM   17  O           1     -21.136  -8.779  -5.926  0.00  0.00    -0.646 OA
ENDBRANCH   5  15
ENDBRANCH   3   5
BRANCH   4  18
HETATM   18  C           1     -22.071  -7.705  -0.287  0.00  0.00     0.278 C 
BRANCH  18  19
HETATM   19  N           1     -23.412  -7.479   0.345  0.00  0.00    -0.066 N 
HETATM   20  H           1     -23.331  -7.579   1.382  0.00  0.00     0.275 HD
HETATM   21  H           1     -23.748  -6.517   0.113  0.00  0.00     0.275 HD
HETATM   22  H           1     -24.093  -8.184  -0.020  0.00  0.00     0.275 HD
ENDBRANCH  18  19
BRANCH  18  23
HETATM   23  C           1     -21.764  -9.197  -0.304  0.00  0.00     0.021 C 
HETATM   24  C           1     -20.939  -9.560   0.923  0.00  0.00     0.012 C 
BRANCH  23  25
HETATM   25  C           1     -23.069  -9.983  -0.287  0.00  0.00     0.002 C 
HETATM   26  C           1     -23.139 -10.880  -1.516  0.00  0.00     0.005 C 
ENDBRANCH  23  25
ENDBRANCH  18  23
ENDBRANCH   4  18
TORSDOF 9
ENDMDL
MODEL 7
REMARK VINA RESULT:      -6.4      5.585      8.452
REMARK  9 active torsions:
REMARK  status: ('A' for Active; 'I' for Inactive)
REMARK    1  A    between atoms: N_1  and  C_17 
REMARK    2  A    between atoms: O_4  and  C_12 
REMARK    3  A    between atoms: C_8  and  C_13 
REMARK    4  A    between atoms: C_13  and  C_17 
REMARK    5  A    between atoms: N_15  and  C_21 
REMARK       I    between atoms: N_15  and  C_16 
REMARK    6  A    between atoms: C_16  and  C_17 
REMARK    7  A    between atoms: C_20  and  C_26 
REMARK    8  A    between atoms: C_20  and  C_21 
REMARK    9  A    between atoms: C_21  and  C_22 
ROOT
HETATM    1  O           1     -21.816  -9.738  -4.009  0.00  0.00    -0.271 OA
HETATM    2  H           1     -19.794  -8.061  -2.295  0.00  0.00     0.163 HD
HETATM    3  N           1     -20.690  -8.396  -2.624  0.00  0.00    -0.344 N 
HETATM    4  C           1     -20.747  -9.338  -3.615  0.00  0.00     0.249 C 
ENDROOT
BRANCH   3   5
HETATM    5  C           1     -21.916  -7.877  -2.047  0.00  0.00     0.189 C 
BRANCH   5   6
HETATM    6  C           1     -21.865  -8.029  -0.532  0.00  0.00     0.074 C 
BRANCH   6   7
HETATM    7  C           1     -22.104  -9.460  -0.165  0.00  0.00    -0.056 A 
HETATM    8  C           1     -23.356 -10.035  -0.380  0.00  0.00     0.010 A 
HETATM    9  C           1     -23.579 -11.369  -0.039  0.00  0.00     0.037 A 
HETATM   10  C           1     -22.549 -12.128   0.518  0.00  0.00     0.065 A 
HETATM   11  C           1     -21.296 -11.553   0.732  0.00  0.00     0.037 A 
HETATM   12  C           1     -21.073 -10.218   0.390  0.00  0.00     0.010 A 
BRANCH  10  13
HETATM   13  O           1     -22.765 -13.424   0.849  0.00  0.00    -0.361 OA
HETATM   14  H           1     -23.325 -13.442   1.643  0.00  0.00     0.217 HD
ENDBRANCH  10  13
ENDBRANCH   6   7
ENDBRANCH   5   6
BRANCH   5  15
HETATM   15  C           1     -22.062  -6.419  -2.403  0.00  0.00     0.197 C 
HETATM   16  O           1     -22.333  -5.583  -1.514  0.00  0.00    -0.646 OA
HETATM   17  O           1     -21.911  -6.046  -3.587  0.00  0.00    -0.646 OA
ENDBRANCH   5  15
ENDBRANCH   3   5
BRANCH   4  18
HETATM   18  C           1     -19.472  -9.877  -4.217  0.00  0.00     0.278 C 
BRANCH  18  19
HETATM   19  N           1     -19.103  -9.062  -5.420  0.00  0.00    -0.066 N 
HETATM   20  H           1     -19.656  -9.388  -6.245  0.00  0.00     0.275 HD
HETATM   21  H           1     -19.313  -8.055  -5.236  0.00  0.00     0.275 HD
HETATM   22  H           1     -18.083  -9.175  -5.618  0.00  0.00     0.275 HD
ENDBRANCH  18  19
BRANCH  18  23
HETATM   23  C           1     -18.351  -9.798  -3.188  0.00  0.00     0.021 C 
HETATM   24  C           1     -18.381 -11.040  -2.307  0.00  0.00     0.012 C 
BRANCH  23  25
HETATM   25  C           1     -17.010  -9.718  -3.906  0.00  0.00     0.002 C 
HETATM   26  C           1     -15.897  -9.532  -2.883  0.00  0.00     0.005 C 
ENDBRANCH  23  25
ENDBRANCH  18  23
ENDBRANCH   4  18
TORSDOF 9
ENDMDL
MODEL 8
REMARK VINA RESULT:      -6.4     13.586     15.944
REMARK  9 active torsions:
REMARK  status: ('A' for Active; 'I' for Inactive)
REMARK    1  A    between atoms: N_1  and  C_17 
REMARK    2  A    between atoms: O_4  and  C_12 
REMARK    3  A    between atoms: C_8  and  C_13 
REMARK    4  A    between atoms: C_13  and  C_17 
REMARK    5  A    between atoms: N_15  and  C_21 
REMARK       I    between atoms: N_15  and  C_16 
REMARK    6  A    between atoms: C_16  and  C_17 
REMARK    7  A    between atoms: C_20  and  C_26 
REMARK    8  A    between atoms: C_20  and  C_21 
REMARK    9  A    between atoms: C_21  and  C_22 
ROOT
HETATM    1  O           1     -33.832  -1.973 -10.354  0.00  0.00    -0.271 OA
HETATM    2  H           1     -35.840  -1.844 -12.762  0.00  0.00     0.163 HD
HETATM    3  N           1     -35.378  -1.551 -11.911  0.00  0.00    -0.344 N 
HETATM    4  C           1     -34.385  -2.322 -11.370  0.00  0.00     0.249 C 
ENDROOT
BRANCH   3   5
HETATM    5  C           1     -35.766  -0.312 -11.264  0.00  0.00     0.189 C 
BRANCH   5   6
HETATM    6  C           1     -35.550   0.850 -12.224  0.00  0.00     0.074 C 
BRANCH   6   7
HETATM    7  C           1     -35.835   0.402 -13.624  0.00  0.00    -0.056 A 
HETATM    8  C           1     -37.131   0.037 -13.988  0.00  0.00     0.010 A 
HETATM    9  C           1     -37.398  -0.381 -15.292  0.00  0.00     0.037 A 
HETATM   10  C           1     -36.368  -0.433 -16.232  0.00  0.00     0.065 A 
HETATM   11  C           1     -35.072  -0.067 -15.868  0.00  0.00     0.037 A 
HETATM   12  C           1     -34.806   0.351 -14.563  0.00  0.00     0.010 A 
BRANCH  10  13
HETATM   13  O           1     -36.626  -0.838 -17.499  0.00  0.00    -0.361 OA
HETATM   14  H           1     -36.587  -1.809 -17.517  0.00  0.00     0.217 HD
ENDBRANCH  10  13
ENDBRANCH   6   7
ENDBRANCH   5   6
BRANCH   5  15
HETATM   15  C           1     -37.223  -0.382 -10.877  0.00  0.00     0.197 C 
HETATM   16  O           1     -37.807  -1.487 -10.840  0.00  0.00    -0.646 OA
HETATM   17  O           1     -37.845   0.664 -10.592  0.00  0.00    -0.646 OA
ENDBRANCH   5  15
ENDBRANCH   3   5
BRANCH   4  18
HETATM   18  C           1     -33.981  -3.611 -12.043  0.00  0.00     0.278 C 
BRANCH  18  19
HETATM   19  N           1     -32.534  -3.890 -11.762  0.00  0.00    -0.066 N 
HETATM   20  H           1     -32.021  -2.987 -11.647  0.00  0.00     0.275 HD
HETATM   21  H           1     -32.452  -4.451 -10.885  0.00  0.00     0.275 HD
HETATM   22  H           1     -32.121  -4.426 -12.559  0.00  0.00     0.275 HD
ENDBRANCH  18  19
BRANCH  18  23
HETATM   23  C           1     -34.831  -4.755 -11.504  0.00  0.00     0.021 C 
HETATM   24  C           1     -35.059  -5.781 -12.606  0.00  0.00     0.012 C 
BRANCH  23  25
HETATM   25  C           1     -34.109  -5.416 -10.338  0.00  0.00     0.002 C 
HETATM   26  C           1     -34.676  -6.812 -10.114  0.00  0.00     0.005 C 
ENDBRANCH  23  25
ENDBRANCH  18  23
ENDBRANCH   4  18
TORSDOF 9
ENDMDL
MODEL 9
REMARK VINA RESULT:      -6.2     12.218     14.985
REMARK  9 active torsions:
REMARK  status: ('A' for Active; 'I' for Inactive)
REMARK    1  A    between atoms: N_1  and  C_17 
REMARK    2  A    between atoms: O_4  and  C_12 
REMARK    3  A    between atoms: C_8  and  C_13 
REMARK    4  A    between atoms: C_13  and  C_17 
REMARK    5  A    between atoms: N_15  and  C_21 
REMARK       I    between atoms: N_15  and  C_16 
REMARK    6  A    between atoms: C_16  and  C_17 
REMARK    7  A    between atoms: C_20  and  C_26 
REMARK    8  A    between atoms: C_20  and  C_21 
REMARK    9  A    between atoms: C_21  and  C_22 
ROOT
HETATM    1  O           1     -24.669  -7.372 -18.519  0.00  0.00    -0.271 OA
HETATM    2  H           1     -25.658  -7.597 -21.487  0.00  0.00     0.163 HD
HETATM    3  N           1     -25.725  -7.551 -20.479  0.00  0.00    -0.344 N 
HETATM    4  C           1     -24.590  -7.428 -19.723  0.00  0.00     0.249 C 
ENDROOT
BRANCH   3   5
HETATM    5  C           1     -27.022  -7.613 -19.834  0.00  0.00     0.189 C 
BRANCH   5   6
HETATM    6  C           1     -27.609  -6.211 -19.739  0.00  0.00     0.074 C 
BRANCH   6   7
HETATM    7  C           1     -28.234  -6.021 -18.392  0.00  0.00    -0.056 A 
HETATM    8  C           1     -27.432  -5.746 -17.285  0.00  0.00     0.010 A 
HETATM    9  C           1     -28.013  -5.568 -16.029  0.00  0.00     0.037 A 
HETATM   10  C           1     -29.397  -5.665 -15.882  0.00  0.00     0.065 A 
HETATM   11  C           1     -30.200  -5.939 -16.990  0.00  0.00     0.037 A 
HETATM   12  C           1     -29.617  -6.117 -18.246  0.00  0.00     0.010 A 
BRANCH  10  13
HETATM   13  O           1     -29.963  -5.492 -14.663  0.00  0.00    -0.361 OA
HETATM   14  H           1     -30.900  -5.271 -14.795  0.00  0.00     0.217 HD
ENDBRANCH  10  13
ENDBRANCH   6   7
ENDBRANCH   5   6
BRANCH   5  15
HETATM   15  C           1     -27.944  -8.492 -20.643  0.00  0.00     0.197 C 
HETATM   16  O           1     -29.065  -8.808 -20.188  0.00  0.00    -0.646 OA
HETATM   17  O           1     -27.588  -8.903 -21.769  0.00  0.00    -0.646 OA
ENDBRANCH   5  15
ENDBRANCH   3   5
BRANCH   4  18
HETATM   18  C           1     -23.240  -7.363 -20.394  0.00  0.00     0.278 C 
BRANCH  18  19
HETATM   19  N           1     -22.163  -7.570 -19.371  0.00  0.00    -0.066 N 
HETATM   20  H           1     -22.126  -6.745 -18.731  0.00  0.00     0.275 HD
HETATM   21  H           1     -22.371  -8.431 -18.816  0.00  0.00     0.275 HD
HETATM   22  H           1     -21.241  -7.679 -19.852  0.00  0.00     0.275 HD
ENDBRANCH  18  19
BRANCH  18  23
HETATM   23  C           1     -23.147  -8.451 -21.455  0.00  0.00     0.021 C 
HETATM   24  C           1     -23.495  -7.865 -22.817  0.00  0.00     0.012 C 
BRANCH  23  25
HETATM   25  C           1     -21.728  -9.004 -21.490  0.00  0.00     0.002 C 
HETATM   26  C           1     -21.406  -9.490 -22.897  0.00  0.00     0.005 C 
ENDBRANCH  23  25
ENDBRANCH  18  23
ENDBRANCH   4  18
TORSDOF 9
ENDMDL
