MODEL 1
REMARK VINA RESULT:      -5.6      0.000      0.000
REMARK  10 active torsions:
REMARK  status: ('A' for Active; 'I' for Inactive)
REMARK    1  A    between atoms: C_1  and  C_2 
REMARK    2  A    between atoms: C_1  and  S_20 
REMARK    3  A    between atoms: C_2  and  C_3 
REMARK    4  A    between atoms: C_2  and  N_19 
REMARK       I    between atoms: C_3  and  N_22 
REMARK    5  A    between atoms: C_8  and  C_9 
REMARK    6  A    between atoms: C_8  and  C_11 
REMARK    7  A    between atoms: C_8  and  N_22 
REMARK    8  A    between atoms: C_9  and  C_13 
REMARK    9  A    between atoms: C_13  and  C_14 
REMARK   10  A    between atoms: C_14  and  N_15 
ROOT
HETATM    1  C           1     -34.228  -2.605 -12.188  0.00  0.00     0.249 C 
HETATM    2  O           1     -33.700  -2.291 -11.148  0.00  0.00    -0.271 OA
HETATM    3  N           1     -34.902  -1.668 -12.924  0.00  0.00    -0.345 N 
HETATM    4  H           1     -35.345  -1.931 -13.794  0.00  0.00     0.163 HD
ENDROOT
BRANCH   3   5
HETATM    5  C           1     -34.981  -0.298 -12.455  0.00  0.00     0.185 C 
BRANCH   5   6
HETATM    6  C           1     -34.930   0.649 -13.646  0.00  0.00     0.038 C 
BRANCH   6   7
HETATM    7  C           1     -35.325  -0.102 -14.911  0.00  0.00     0.030 C 
BRANCH   7   8
HETATM    8  C           1     -36.643   0.449 -15.439  0.00  0.00     0.230 C 
BRANCH   8   9
HETATM    9  N           1     -36.411   1.795 -16.059  0.00  0.00    -0.079 N 
HETATM   10  H           1     -37.201   2.433 -15.812  0.00  0.00     0.274 HD
HETATM   11  H           1     -36.356   1.695 -17.099  0.00  0.00     0.274 HD
HETATM   12  H           1     -35.514   2.194 -15.701  0.00  0.00     0.274 HD
ENDBRANCH   8   9
ENDBRANCH   7   8
ENDBRANCH   6   7
ENDBRANCH   5   6
BRANCH   5  13
HETATM   13  C           1     -36.277  -0.097 -11.708  0.00  0.00     0.196 C 
HETATM   14  O           1     -36.293   0.573 -10.653  0.00  0.00    -0.646 OA
HETATM   15  O           1     -37.335  -0.602 -12.143  0.00  0.00    -0.646 OA
ENDBRANCH   5  13
ENDBRANCH   3   5
BRANCH   1  16
HETATM   16  C           1     -34.145  -4.030 -12.675  0.00  0.00     0.283 C 
BRANCH  16  17
HETATM   17  C           1     -33.203  -4.821 -11.777  0.00  0.00     0.113 C 
BRANCH  17  18
HETATM   18  S           1     -34.158  -6.023 -10.807  0.00  0.00    -0.180 SA
HETATM   19  H           1     -34.598  -5.144  -9.888  0.00  0.00     0.101 HD
ENDBRANCH  17  18
ENDBRANCH  16  17
BRANCH  16  20
HETATM   20  N           1     -33.625  -4.047 -14.082  0.00  0.00    -0.066 N 
HETATM   21  H           1     -34.424  -3.973 -14.750  0.00  0.00     0.275 HD
HETATM   22  H           1     -33.110  -4.941 -14.252  0.00  0.00     0.275 HD
HETATM   23  H           1     -32.975  -3.240 -14.224  0.00  0.00     0.275 HD
ENDBRANCH  16  20
ENDBRANCH   1  16
TORSDOF 10
ENDMDL
MODEL 2
REMARK VINA RESULT:      -5.4      2.618      5.467
REMARK  10 active torsions:
REMARK  status: ('A' for Active; 'I' for Inactive)
REMARK    1  A    between atoms: C_1  and  C_2 
REMARK    2  A    between atoms: C_1  and  S_20 
REMARK    3  A    between atoms: C_2  and  C_3 
REMARK    4  A    between atoms: C_2  and  N_19 
REMARK       I    between atoms: C_3  and  N_22 
REMARK    5  A    between atoms: C_8  and  C_9 
REMARK    6  A    between atoms: C_8  and  C_11 
REMARK    7  A    between atoms: C_8  and  N_22 
REMARK    8  A    between atoms: C_9  and  C_13 
REMARK    9  A    between atoms: C_13  and  C_14 
REMARK   10  A    between atoms: C_14  and  N_15 
ROOT
HETATM    1  C           1     -35.984  -0.650 -13.460  0.00  0.00     0.249 C 
HETATM    2  O           1     -37.039  -0.915 -12.934  0.00  0.00    -0.271 OA
HETATM    3  N           1     -34.854  -1.340 -13.113  0.00  0.00    -0.345 N 
HETATM    4  H           1     -33.971  -1.117 -13.554  0.00  0.00     0.163 HD
ENDROOT
BRANCH   3   5
HETATM    5  C           1     -34.922  -2.388 -12.114  0.00  0.00     0.185 C 
BRANCH   5   6
HETATM    6  C           1     -34.034  -3.550 -12.536  0.00  0.00     0.038 C 
BRANCH   6   7
HETATM    7  C           1     -34.672  -4.863 -12.099  0.00  0.00     0.030 C 
BRANCH   7   8
HETATM    8  C           1     -33.831  -5.494 -10.997  0.00  0.00     0.230 C 
BRANCH   8   9
HETATM    9  N           1     -34.193  -6.943 -10.857  0.00  0.00    -0.079 N 
HETATM   10  H           1     -33.617  -7.373 -10.098  0.00  0.00     0.274 HD
HETATM   11  H           1     -34.005  -7.438 -11.759  0.00  0.00     0.274 HD
HETATM   12  H           1     -35.206  -7.027 -10.618  0.00  0.00     0.274 HD
ENDBRANCH   8   9
ENDBRANCH   7   8
ENDBRANCH   6   7
ENDBRANCH   5   6
BRANCH   5  13
HETATM   13  C           1     -34.448  -1.848 -10.786  0.00  0.00     0.196 C 
HETATM   14  O           1     -35.269  -1.357  -9.982  0.00  0.00    -0.646 OA
HETATM   15  O           1     -33.234  -1.891 -10.491  0.00  0.00    -0.646 OA
ENDBRANCH   5  13
ENDBRANCH   3   5
BRANCH   1  16
HETATM   16  C           1     -35.914   0.441 -14.500  0.00  0.00     0.283 C 
BRANCH  16  17
HETATM   17  C           1     -36.772   0.058 -15.698  0.00  0.00     0.113 C 
BRANCH  17  18
HETATM   18  S           1     -35.885  -1.156 -16.716  0.00  0.00    -0.180 SA
HETATM   19  H           1     -36.736  -1.116 -17.757  0.00  0.00     0.101 HD
ENDBRANCH  17  18
ENDBRANCH  16  17
BRANCH  16  20
HETATM   20  N           1     -34.491   0.618 -14.942  0.00  0.00    -0.066 N 
HETATM   21  H           1     -33.850   0.395 -14.148  0.00  0.00     0.275 HD
HETATM   22  H           1     -34.341   1.608 -15.245  0.00  0.00     0.275 HD
HETATM   23  H           1     -34.291  -0.024 -15.742  0.00  0.00     0.275 HD
ENDBRANCH  16  20
ENDBRANCH   1  16
TORSDOF 10
ENDMDL
MODEL 3
REMARK VINA RESULT:      -5.4      3.150      6.405
REMARK  10 active torsions:
REMARK  status: ('A' for Active; 'I' for Inactive)
REMARK    1  A    between atoms: C_1  and  C_2 
REMARK    2  A    between atoms: C_1  and  S_20 
REMARK    3  A    between atoms: C_2  and  C_3 
REMARK    4  A    between atoms: C_2  and  N_19 
REMARK       I    between atoms: C_3  and  N_22 
REMARK    5  A    between atoms: C_8  and  C_9 
REMARK    6  A    between atoms: C_8  and  C_11 
REMARK    7  A    between atoms: C_8  and  N_22 
REMARK    8  A    between atoms: C_9  and  C_13 
REMARK    9  A    between atoms: C_13  and  C_14 
REMARK   10  A    between atoms: C_14  and  N_15 
ROOT
HETATM    1  C           1     -35.397  -1.820 -10.855  0.00  0.00     0.249 C 
HETATM    2  O           1     -34.492  -1.549 -10.102  0.00  0.00    -0.271 OA
HETATM    3  N           1     -35.441  -3.047 -11.460  0.00  0.00    -0.345 N 
HETATM    4  H           1     -36.199  -3.273 -12.091  0.00  0.00     0.163 HD
ENDROOT
BRANCH   3   5
HETATM    5  C           1     -34.400  -4.022 -11.199  0.00  0.00     0.185 C 
BRANCH   5   6
HETATM    6  C           1     -35.021  -5.405 -11.069  0.00  0.00     0.038 C 
BRANCH   6   7
HETATM    7  C           1     -33.977  -6.386 -10.548  0.00  0.00     0.030 C 
BRANCH   7   8
HETATM    8  C           1     -34.652  -7.702 -10.188  0.00  0.00     0.230 C 
BRANCH   8   9
HETATM    9  N           1     -33.643  -8.811 -10.232  0.00  0.00    -0.079 N 
HETATM   10  H           1     -32.719  -8.429 -10.537  0.00  0.00     0.274 HD
HETATM   11  H           1     -33.958  -9.543 -10.910  0.00  0.00     0.274 HD
HETATM   12  H           1     -33.549  -9.235  -9.282  0.00  0.00     0.274 HD
ENDBRANCH   8   9
ENDBRANCH   7   8
ENDBRANCH   6   7
ENDBRANCH   5   6
BRANCH   5  13
HETATM   13  C           1     -33.411  -4.019 -12.339  0.00  0.00     0.196 C 
HETATM   14  O           1     -33.807  -3.825 -13.509  0.00  0.00    -0.646 OA
HETATM   15  O           1     -32.196  -4.212 -12.115  0.00  0.00    -0.646 OA
ENDBRANCH   5  13
ENDBRANCH   3   5
BRANCH   1  16
HETATM   16  C           1     -36.481  -0.806 -11.127  0.00  0.00     0.283 C 
BRANCH  16  17
HETATM   17  C           1     -36.532  -0.503 -12.618  0.00  0.00     0.113 C 
BRANCH  17  18
HETATM   18  S           1     -35.022   0.377 -13.110  0.00  0.00    -0.180 SA
HETATM   19  H           1     -34.902   1.093 -11.978  0.00  0.00     0.101 HD
ENDBRANCH  17  18
ENDBRANCH  16  17
BRANCH  16  20
HETATM   20  N           1     -36.183   0.456 -10.371  0.00  0.00    -0.066 N 
HETATM   21  H           1     -36.215   0.264  -9.346  0.00  0.00     0.275 HD
HETATM   22  H           1     -36.895   1.183 -10.613  0.00  0.00     0.275 HD
HETATM   23  H           1     -35.231   0.803 -10.631  0.00  0.00     0.275 HD
ENDBRANCH  16  20
ENDBRANCH   1  16
TORSDOF 10
ENDMDL
MODEL 4
REMARK VINA RESULT:      -5.2      3.568      5.704
REMARK  10 active torsions:
REMARK  status: ('A' for Active; 'I' for Inactive)
REMARK    1  A    between atoms: C_1  and  C_2 
REMARK    2  A    between atoms: C_1  and  S_20 
REMARK    3  A    between atoms: C_2  and  C_3 
REMARK    4  A    between atoms: C_2  and  N_19 
REMARK       I    between atoms: C_3  and  N_22 
REMARK    5  A    between atoms: C_8  and  C_9 
REMARK    6  A    between atoms: C_8  and  C_11 
REMARK    7  A    between atoms: C_8  and  N_22 
REMARK    8  A    between atoms: C_9  and  C_13 
REMARK    9  A    between atoms: C_13  and  C_14 
REMARK   10  A    between atoms: C_14  and  N_15 
ROOT
HETATM    1  C           1     -35.784  -0.899 -10.842  0.00  0.00     0.249 C 
HETATM    2  O           1     -35.352   0.075 -11.413  0.00  0.00    -0.271 OA
HETATM    3  N           1     -35.233  -2.130 -11.076  0.00  0.00    -0.345 N 
HETATM    4  H           1     -35.595  -2.945 -10.599  0.00  0.00     0.163 HD
ENDROOT
BRANCH   3   5
HETATM    5  C           1     -34.131  -2.266 -12.009  0.00  0.00     0.185 C 
BRANCH   5   6
HETATM    6  C           1     -33.237  -3.419 -11.573  0.00  0.00     0.038 C 
BRANCH   6   7
HETATM    7  C           1     -33.923  -4.202 -10.461  0.00  0.00     0.030 C 
BRANCH   7   8
HETATM    8  C           1     -33.911  -5.686 -10.804  0.00  0.00     0.230 C 
BRANCH   8   9
HETATM    9  N           1     -34.635  -5.908 -12.098  0.00  0.00    -0.079 N 
HETATM   10  H           1     -35.297  -6.710 -11.994  0.00  0.00     0.274 HD
HETATM   11  H           1     -33.944  -6.123 -12.853  0.00  0.00     0.274 HD
HETATM   12  H           1     -35.168  -5.046 -12.351  0.00  0.00     0.274 HD
ENDBRANCH   8   9
ENDBRANCH   7   8
ENDBRANCH   6   7
ENDBRANCH   5   6
BRANCH   5  13
HETATM   13  C           1     -34.673  -2.543 -13.390  0.00  0.00     0.196 C 
HETATM   14  O           1     -34.466  -3.650 -13.932  0.00  0.00    -0.646 OA
HETATM   15  O           1     -35.329  -1.665 -13.992  0.00  0.00    -0.646 OA
ENDBRANCH   5  13
ENDBRANCH   3   5
BRANCH   1  16
HETATM   16  C           1     -36.930  -0.757  -9.871  0.00  0.00     0.283 C 
BRANCH  16  17
HETATM   17  C           1     -37.878   0.330 -10.358  0.00  0.00     0.113 C 
BRANCH  17  18
HETATM   18  S           1     -38.075   1.587  -9.063  0.00  0.00    -0.180 SA
HETATM   19  H           1     -37.887   0.751  -8.026  0.00  0.00     0.101 HD
ENDBRANCH  17  18
ENDBRANCH  16  17
BRANCH  16  20
HETATM   20  N           1     -36.396  -0.385  -8.519  0.00  0.00    -0.066 N 
HETATM   21  H           1     -35.493   0.126  -8.630  0.00  0.00     0.275 HD
HETATM   22  H           1     -36.240  -1.253  -7.957  0.00  0.00     0.275 HD
HETATM   23  H           1     -37.086   0.228  -8.028  0.00  0.00     0.275 HD
ENDBRANCH  16  20
ENDBRANCH   1  16
TORSDOF 10
ENDMDL
MODEL 5
REMARK VINA RESULT:      -5.1     11.803     13.534
REMARK  10 active torsions:
REMARK  status: ('A' for Active; 'I' for Inactive)
REMARK    1  A    between atoms: C_1  and  C_2 
REMARK    2  A    between atoms: C_1  and  S_20 
REMARK    3  A    between atoms: C_2  and  C_3 
REMARK    4  A    between atoms: C_2  and  N_19 
REMARK       I    between atoms: C_3  and  N_22 
REMARK    5  A    between atoms: C_8  and  C_9 
REMARK    6  A    between atoms: C_8  and  C_11 
REMARK    7  A    between atoms: C_8  and  N_22 
REMARK    8  A    between atoms: C_9  and  C_13 
REMARK    9  A    between atoms: C_13  and  C_14 
REMARK   10  A    between atoms: C_14  and  N_15 
ROOT
HETATM    1  C           1     -22.156  -4.317  -7.903  0.00  0.00     0.249 C 
HETATM    2  O           1     -21.178  -3.800  -8.391  0.00  0.00    -0.271 OA
HETATM    3  N           1     -23.326  -4.371  -8.611  0.00  0.00    -0.345 N 
HETATM    4  H           1     -24.145  -4.803  -8.202  0.00  0.00     0.163 HD
ENDROOT
BRANCH   3   5
HETATM    5  C           1     -23.393  -3.809  -9.946  0.00  0.00     0.185 C 
BRANCH   5   6
HETATM    6  C           1     -23.127  -4.903 -10.971  0.00  0.00     0.038 C 
BRANCH   6   7
HETATM    7  C           1     -21.966  -4.489 -11.867  0.00  0.00     0.030 C 
BRANCH   7   8
HETATM    8  C           1     -21.589  -3.043 -11.574  0.00  0.00     0.230 C 
BRANCH   8   9
HETATM    9  N           1     -20.121  -2.959 -11.275  0.00  0.00    -0.079 N 
HETATM   10  H           1     -19.668  -2.295 -11.943  0.00  0.00     0.274 HD
HETATM   11  H           1     -19.689  -3.905 -11.378  0.00  0.00     0.274 HD
HETATM   12  H           1     -19.984  -2.618 -10.297  0.00  0.00     0.274 HD
ENDBRANCH   8   9
ENDBRANCH   7   8
ENDBRANCH   6   7
ENDBRANCH   5   6
BRANCH   5  13
HETATM   13  C           1     -24.766  -3.225 -10.177  0.00  0.00     0.196 C 
HETATM   14  O           1     -25.300  -3.310 -11.304  0.00  0.00    -0.646 OA
HETATM   15  O           1     -25.369  -2.657  -9.241  0.00  0.00    -0.646 OA
ENDBRANCH   5  13
ENDBRANCH   3   5
BRANCH   1  16
HETATM   16  C           1     -22.085  -4.901  -6.514  0.00  0.00     0.283 C 
BRANCH  16  17
HETATM   17  C           1     -21.193  -6.135  -6.526  0.00  0.00     0.113 C 
BRANCH  17  18
HETATM   18  S           1     -21.690  -7.255  -5.185  0.00  0.00    -0.180 SA
HETATM   19  H           1     -22.906  -6.713  -4.993  0.00  0.00     0.101 HD
ENDBRANCH  17  18
ENDBRANCH  16  17
BRANCH  16  20
HETATM   20  N           1     -23.464  -5.287  -6.065  0.00  0.00    -0.066 N 
HETATM   21  H           1     -23.396  -5.981  -5.288  0.00  0.00     0.275 HD
HETATM   22  H           1     -23.986  -5.710  -6.866  0.00  0.00     0.275 HD
HETATM   23  H           1     -23.972  -4.437  -5.729  0.00  0.00     0.275 HD
ENDBRANCH  16  20
ENDBRANCH   1  16
TORSDOF 10
ENDMDL
MODEL 6
REMARK VINA RESULT:      -5.0      1.832      2.080
REMARK  10 active torsions:
REMARK  status: ('A' for Active; 'I' for Inactive)
REMARK    1  A    between atoms: C_1  and  C_2 
REMARK    2  A    between atoms: C_1  and  S_20 
REMARK    3  A    between atoms: C_2  and  C_3 
REMARK    4  A    between atoms: C_2  and  N_19 
REMARK       I    between atoms: C_3  and  N_22 
REMARK    5  A    between atoms: C_8  and  C_9 
REMARK    6  A    between atoms: C_8  and  C_11 
REMARK    7  A    between atoms: C_8  and  N_22 
REMARK    8  A    between atoms: C_9  and  C_13 
REMARK    9  A    between atoms: C_13  and  C_14 
REMARK   10  A    between atoms: C_14  and  N_15 
ROOT
HETATM    1  C           1     -33.944  -4.034 -11.416  0.00  0.00     0.249 C 
HETATM    2  O           1     -32.873  -3.475 -11.435  0.00  0.00    -0.271 OA
HETATM    3  N           1     -35.099  -3.300 -11.425  0.00  0.00    -0.345 N 
HETATM    4  H           1     -35.996  -3.769 -11.409  0.00  0.00     0.163 HD
ENDROOT
BRANCH   3   5
HETATM    5  C           1     -35.038  -1.852 -11.457  0.00  0.00     0.185 C 
BRANCH   5   6
HETATM    6  C           1     -35.065  -1.375 -12.903  0.00  0.00     0.038 C 
BRANCH   6   7
HETATM    7  C           1     -34.916   0.141 -12.941  0.00  0.00     0.030 C 
BRANCH   7   8
HETATM    8  C           1     -35.690   0.697 -14.128  0.00  0.00     0.230 C 
BRANCH   8   9
HETATM    9  N           1     -37.139   0.331 -13.998  0.00  0.00    -0.079 N 
HETATM   10  H           1     -37.728   1.180 -14.152  0.00  0.00     0.274 HD
HETATM   11  H           1     -37.319  -0.047 -13.039  0.00  0.00     0.274 HD
HETATM   12  H           1     -37.380  -0.395 -14.709  0.00  0.00     0.274 HD
ENDBRANCH   8   9
ENDBRANCH   7   8
ENDBRANCH   6   7
ENDBRANCH   5   6
BRANCH   5  13
HETATM   13  C           1     -36.224  -1.283 -10.717  0.00  0.00     0.196 C 
HETATM   14  O           1     -36.053  -0.666  -9.643  0.00  0.00    -0.646 OA
HETATM   15  O           1     -37.377  -1.428 -11.177  0.00  0.00    -0.646 OA
ENDBRANCH   5  13
ENDBRANCH   3   5
BRANCH   1  16
HETATM   16  C           1     -34.007  -5.541 -11.383  0.00  0.00     0.283 C 
BRANCH  16  17
HETATM   17  C           1     -34.678  -5.994 -10.094  0.00  0.00     0.113 C 
BRANCH  17  18
HETATM   18  S           1     -34.715  -7.809 -10.035  0.00  0.00    -0.180 SA
HETATM   19  H           1     -35.922  -7.906  -9.449  0.00  0.00     0.101 HD
ENDBRANCH  17  18
ENDBRANCH  16  17
BRANCH  16  20
HETATM   20  N           1     -32.615  -6.100 -11.444  0.00  0.00    -0.066 N 
HETATM   21  H           1     -32.659  -7.143 -11.444  0.00  0.00     0.275 HD
HETATM   22  H           1     -32.072  -5.773 -10.612  0.00  0.00     0.275 HD
HETATM   23  H           1     -32.145  -5.771 -12.318  0.00  0.00     0.275 HD
ENDBRANCH  16  20
ENDBRANCH   1  16
TORSDOF 10
ENDMDL
MODEL 7
REMARK VINA RESULT:      -4.8     13.804     15.997
REMARK  10 active torsions:
REMARK  status: ('A' for Active; 'I' for Inactive)
REMARK    1  A    between atoms: C_1  and  C_2 
REMARK    2  A    between atoms: C_1  and  S_20 
REMARK    3  A    between atoms: C_2  and  C_3 
REMARK    4  A    between atoms: C_2  and  N_19 
REMARK       I    between atoms: C_3  and  N_22 
REMARK    5  A    between atoms: C_8  and  C_9 
REMARK    6  A    between atoms: C_8  and  C_11 
REMARK    7  A    between atoms: C_8  and  N_22 
REMARK    8  A    between atoms: C_9  and  C_13 
REMARK    9  A    between atoms: C_13  and  C_14 
REMARK   10  A    between atoms: C_14  and  N_15 
ROOT
HETATM    1  C           1     -21.608  -6.362  -4.512  0.00  0.00     0.249 C 
HETATM    2  O           1     -22.308  -7.245  -4.946  0.00  0.00    -0.271 OA
HETATM    3  N           1     -21.115  -5.403  -5.355  0.00  0.00    -0.345 N 
HETATM    4  H           1     -20.527  -4.663  -4.991  0.00  0.00     0.163 HD
ENDROOT
BRANCH   3   5
HETATM    5  C           1     -21.432  -5.447  -6.769  0.00  0.00     0.185 C 
BRANCH   5   6
HETATM    6  C           1     -22.004  -4.105  -7.203  0.00  0.00     0.038 C 
BRANCH   6   7
HETATM    7  C           1     -23.434  -4.295  -7.691  0.00  0.00     0.030 C 
BRANCH   7   8
HETATM    8  C           1     -23.502  -4.016  -9.186  0.00  0.00     0.230 C 
BRANCH   8   9
HETATM    9  N           1     -24.903  -4.238  -9.675  0.00  0.00    -0.079 N 
HETATM   10  H           1     -24.878  -4.774 -10.572  0.00  0.00     0.274 HD
HETATM   11  H           1     -25.367  -3.314  -9.834  0.00  0.00     0.274 HD
HETATM   12  H           1     -25.439  -4.778  -8.960  0.00  0.00     0.274 HD
ENDBRANCH   8   9
ENDBRANCH   7   8
ENDBRANCH   6   7
ENDBRANCH   5   6
BRANCH   5  13
HETATM   13  C           1     -20.177  -5.738  -7.556  0.00  0.00     0.196 C 
HETATM   14  O           1     -19.414  -6.661  -7.197  0.00  0.00    -0.646 OA
HETATM   15  O           1     -19.901  -5.056  -8.567  0.00  0.00    -0.646 OA
ENDBRANCH   5  13
ENDBRANCH   3   5
BRANCH   1  16
HETATM   16  C           1     -21.278  -6.316  -3.040  0.00  0.00     0.283 C 
BRANCH  16  17
HETATM   17  C           1     -20.880  -7.706  -2.564  0.00  0.00     0.113 C 
BRANCH  17  18
HETATM   18  S           1     -21.683  -8.055  -0.974  0.00  0.00    -0.180 SA
HETATM   19  H           1     -20.609  -7.781  -0.211  0.00  0.00     0.101 HD
ENDBRANCH  17  18
ENDBRANCH  16  17
BRANCH  16  20
HETATM   20  N           1     -22.482  -5.852  -2.274  0.00  0.00    -0.066 N 
HETATM   21  H           1     -22.884  -5.006  -2.736  0.00  0.00     0.275 HD
HETATM   22  H           1     -22.200  -5.614  -1.295  0.00  0.00     0.275 HD
HETATM   23  H           1     -23.198  -6.613  -2.254  0.00  0.00     0.275 HD
ENDBRANCH  16  20
ENDBRANCH   1  16
TORSDOF 10
ENDMDL
MODEL 8
REMARK VINA RESULT:      -4.7     13.231     15.935
REMARK  10 active torsions:
REMARK  status: ('A' for Active; 'I' for Inactive)
REMARK    1  A    between atoms: C_1  and  C_2 
REMARK    2  A    between atoms: C_1  and  S_20 
REMARK    3  A    between atoms: C_2  and  C_3 
REMARK    4  A    between atoms: C_2  and  N_19 
REMARK       I    between atoms: C_3  and  N_22 
REMARK    5  A    between atoms: C_8  and  C_9 
REMARK    6  A    between atoms: C_8  and  C_11 
REMARK    7  A    between atoms: C_8  and  N_22 
REMARK    8  A    between atoms: C_9  and  C_13 
REMARK    9  A    between atoms: C_13  and  C_14 
REMARK   10  A    between atoms: C_14  and  N_15 
ROOT
HETATM    1  C           1     -22.588  -4.413  -8.552  0.00  0.00     0.249 C 
HETATM    2  O           1     -22.467  -3.296  -8.109  0.00  0.00    -0.271 OA
HETATM    3  N           1     -22.014  -5.473  -7.903  0.00  0.00    -0.345 N 
HETATM    4  H           1     -22.115  -6.409  -8.276  0.00  0.00     0.163 HD
ENDROOT
BRANCH   3   5
HETATM    5  C           1     -21.261  -5.255  -6.684  0.00  0.00     0.185 C 
BRANCH   5   6
HETATM    6  C           1     -21.821  -6.138  -5.577  0.00  0.00     0.038 C 
BRANCH   6   7
HETATM    7  C           1     -21.113  -5.820  -4.266  0.00  0.00     0.030 C 
BRANCH   7   8
HETATM    8  C           1     -21.664  -6.712  -3.162  0.00  0.00     0.230 C 
BRANCH   8   9
HETATM    9  N           1     -22.338  -5.866  -2.123  0.00  0.00    -0.079 N 
HETATM   10  H           1     -22.726  -5.006  -2.572  0.00  0.00     0.274 HD
HETATM   11  H           1     -21.642  -5.592  -1.391  0.00  0.00     0.274 HD
HETATM   12  H           1     -23.112  -6.409  -1.680  0.00  0.00     0.274 HD
ENDBRANCH   8   9
ENDBRANCH   7   8
ENDBRANCH   6   7
ENDBRANCH   5   6
BRANCH   5  13
HETATM   13  C           1     -19.811  -5.602  -6.920  0.00  0.00     0.196 C 
HETATM   14  O           1     -19.457  -6.799  -6.986  0.00  0.00    -0.646 OA
HETATM   15  O           1     -18.963  -4.692  -7.048  0.00  0.00    -0.646 OA
ENDBRANCH   5  13
ENDBRANCH   3   5
BRANCH   1  16
HETATM   16  C           1     -23.372  -4.640  -9.821  0.00  0.00     0.283 C 
BRANCH  16  17
HETATM   17  C           1     -22.863  -3.704 -10.908  0.00  0.00     0.113 C 
BRANCH  17  18
HETATM   18  S           1     -21.146  -4.128 -11.319  0.00  0.00    -0.180 SA
HETATM   19  H           1     -20.581  -3.381 -10.353  0.00  0.00     0.101 HD
ENDBRANCH  17  18
ENDBRANCH  16  17
BRANCH  16  20
HETATM   20  N           1     -24.825  -4.365  -9.566  0.00  0.00    -0.066 N 
HETATM   21  H           1     -24.979  -3.335  -9.503  0.00  0.00     0.275 HD
HETATM   22  H           1     -25.112  -4.817  -8.668  0.00  0.00     0.275 HD
HETATM   23  H           1     -25.397  -4.756 -10.349  0.00  0.00     0.275 HD
ENDBRANCH  16  20
ENDBRANCH   1  16
TORSDOF 10
ENDMDL
MODEL 9
REMARK VINA RESULT:      -4.6     15.206     17.340
REMARK  10 active torsions:
REMARK  status: ('A' for Active; 'I' for Inactive)
REMARK    1  A    between atoms: C_1  and  C_2 
REMARK    2  A    between atoms: C_1  and  S_20 
REMARK    3  A    between atoms: C_2  and  C_3 
REMARK    4  A    between atoms: C_2  and  N_19 
REMARK       I    between atoms: C_3  and  N_22 
REMARK    5  A    between atoms: C_8  and  C_9 
REMARK    6  A    between atoms: C_8  and  C_11 
REMARK    7  A    between atoms: C_8  and  N_22 
REMARK    8  A    between atoms: C_9  and  C_13 
REMARK    9  A    between atoms: C_13  and  C_14 
REMARK   10  A    between atoms: C_14  and  N_15 
ROOT
HETATM    1  C           1     -20.991  -5.142  -6.764  0.00  0.00     0.249 C 
HETATM    2  O           1     -20.366  -4.357  -6.091  0.00  0.00    -0.271 OA
HETATM    3  N           1     -21.271  -6.390  -6.277  0.00  0.00    -0.345 N 
HETATM    4  H           1     -21.794  -7.048  -6.841  0.00  0.00     0.163 HD
ENDROOT
BRANCH   3   5
HETATM    5  C           1     -20.817  -6.771  -4.953  0.00  0.00     0.185 C 
BRANCH   5   6
HETATM    6  C           1     -21.981  -6.690  -3.975  0.00  0.00     0.038 C 
BRANCH   6   7
HETATM    7  C           1     -21.509  -6.050  -2.676  0.00  0.00     0.030 C 
BRANCH   7   8
HETATM    8  C           1     -22.180  -6.742  -1.497  0.00  0.00     0.230 C 
BRANCH   8   9
HETATM    9  N           1     -21.823  -8.198  -1.500  0.00  0.00    -0.079 N 
HETATM   10  H           1     -21.569  -8.492  -2.471  0.00  0.00     0.274 HD
HETATM   11  H           1     -22.641  -8.759  -1.170  0.00  0.00     0.274 HD
HETATM   12  H           1     -21.011  -8.359  -0.863  0.00  0.00     0.274 HD
ENDBRANCH   8   9
ENDBRANCH   7   8
ENDBRANCH   6   7
ENDBRANCH   5   6
BRANCH   5  13
HETATM   13  C           1     -20.287  -8.184  -4.991  0.00  0.00     0.196 C 
HETATM   14  O           1     -19.329  -8.473  -5.740  0.00  0.00    -0.646 OA
HETATM   15  O           1     -20.808  -9.066  -4.275  0.00  0.00    -0.646 OA
ENDBRANCH   5  13
ENDBRANCH   3   5
BRANCH   1  16
HETATM   16  C           1     -21.463  -4.745  -8.141  0.00  0.00     0.283 C 
BRANCH  16  17
HETATM   17  C           1     -20.262  -4.400  -9.011  0.00  0.00     0.113 C 
BRANCH  17  18
HETATM   18  S           1     -20.816  -4.092 -10.713  0.00  0.00    -0.180 SA
HETATM   19  H           1     -20.933  -5.386 -11.059  0.00  0.00     0.101 HD
ENDBRANCH  17  18
ENDBRANCH  16  17
BRANCH  16  20
HETATM   20  N           1     -22.363  -3.549  -8.034  0.00  0.00    -0.066 N 
HETATM   21  H           1     -22.524  -3.323  -7.028  0.00  0.00     0.275 HD
HETATM   22  H           1     -23.277  -3.759  -8.497  0.00  0.00     0.275 HD
HETATM   23  H           1     -21.914  -2.732  -8.507  0.00  0.00     0.275 HD
ENDBRANCH  16  20
ENDBRANCH   1  16
TORSDOF 10
ENDMDL
