MODEL 1
REMARK VINA RESULT:      -7.7      0.000      0.000
REMARK  8 active torsions:
REMARK  status: ('A' for Active; 'I' for Inactive)
REMARK    1  A    between atoms: C_1  and  C_20 
REMARK    2  A    between atoms: C_5  and  C_6 
REMARK    3  A    between atoms: C_5  and  C_16 
REMARK    4  A    between atoms: C_6  and  C_7 
REMARK    5  A    between atoms: C_6  and  N_13 
REMARK       I    between atoms: C_7  and  N_8 
REMARK    6  A    between atoms: N_8  and  C_20 
REMARK    7  A    between atoms: C_20  and  C_21 
REMARK    8  A    between atoms: C_21  and  C_22 
ROOT
HETATM    1  H           1     -34.267  -1.574 -14.046  0.00  0.00     0.163 HD
HETATM    2  C           1     -35.161   0.291 -13.947  0.00  0.00     0.249 C 
HETATM    3  N           1     -34.876  -0.974 -13.504  0.00  0.00    -0.344 N 
HETATM    4  O           1     -34.458   1.218 -13.619  0.00  0.00    -0.271 OA
ENDROOT
BRANCH   3   5
HETATM    5  C           1     -35.448  -1.452 -12.260  0.00  0.00     0.189 C 
BRANCH   5   6
HETATM    6  C           1     -36.385  -0.407 -11.706  0.00  0.00     0.197 C 
HETATM    7  O           1     -37.596  -0.424 -12.019  0.00  0.00    -0.646 OA
HETATM    8  O           1     -35.952   0.475 -10.933  0.00  0.00    -0.646 OA
ENDBRANCH   5   6
BRANCH   5   9
HETATM    9  C           1     -34.332  -1.716 -11.258  0.00  0.00     0.074 C 
BRANCH   9  10
HETATM   10  C           1     -34.048  -3.185 -11.204  0.00  0.00    -0.056 A 
HETATM   11  C           1     -35.001  -4.061 -10.685  0.00  0.00     0.007 A 
HETATM   12  C           1     -34.735  -5.430 -10.635  0.00  0.00     0.001 A 
HETATM   13  C           1     -33.517  -5.922 -11.102  0.00  0.00     0.000 A 
HETATM   14  C           1     -32.563  -5.046 -11.620  0.00  0.00     0.001 A 
HETATM   15  C           1     -32.828  -3.677 -11.671  0.00  0.00     0.007 A 
ENDBRANCH   9  10
ENDBRANCH   5   9
ENDBRANCH   3   5
BRANCH   2  16
HETATM   16  C           1     -36.352   0.527 -14.842  0.00  0.00     0.278 C 
BRANCH  16  17
HETATM   17  C           1     -36.637  -0.731 -15.652  0.00  0.00     0.021 C 
HETATM   18  C           1     -38.075  -0.697 -16.153  0.00  0.00     0.012 C 
BRANCH  17  19
HETATM   19  C           1     -35.687  -0.793 -16.841  0.00  0.00     0.002 C 
HETATM   20  C           1     -35.019  -2.162 -16.886  0.00  0.00     0.005 C 
ENDBRANCH  17  19
ENDBRANCH  16  17
BRANCH  16  21
HETATM   21  N           1     -36.059   1.665 -15.773  0.00  0.00    -0.066 N 
HETATM   22  H           1     -36.906   1.872 -16.349  0.00  0.00     0.275 HD
HETATM   23  H           1     -35.801   2.513 -15.218  0.00  0.00     0.275 HD
HETATM   24  H           1     -35.265   1.406 -16.402  0.00  0.00     0.275 HD
ENDBRANCH  16  21
ENDBRANCH   2  16
TORSDOF 8
ENDMDL
MODEL 2
REMARK VINA RESULT:      -7.1     17.657     19.741
REMARK  8 active torsions:
REMARK  status: ('A' for Active; 'I' for Inactive)
REMARK    1  A    between atoms: C_1  and  C_20 
REMARK    2  A    between atoms: C_5  and  C_6 
REMARK    3  A    between atoms: C_5  and  C_16 
REMARK    4  A    between atoms: C_6  and  C_7 
REMARK    5  A    between atoms: C_6  and  N_13 
REMARK       I    between atoms: C_7  and  N_8 
REMARK    6  A    between atoms: N_8  and  C_20 
REMARK    7  A    between atoms: C_20  and  C_21 
REMARK    8  A    between atoms: C_21  and  C_22 
ROOT
HETATM    1  H           1     -22.480  -8.265  -4.056  0.00  0.00     0.163 HD
HETATM    2  C           1     -21.856  -7.155  -2.424  0.00  0.00     0.249 C 
HETATM    3  N           1     -21.704  -7.765  -3.641  0.00  0.00    -0.344 N 
HETATM    4  O           1     -22.232  -6.008  -2.367  0.00  0.00    -0.271 OA
ENDROOT
BRANCH   3   5
HETATM    5  C           1     -20.433  -7.694  -4.334  0.00  0.00     0.189 C 
BRANCH   5   6
HETATM    6  C           1     -20.524  -6.677  -5.445  0.00  0.00     0.197 C 
HETATM    7  O           1     -20.505  -5.456  -5.177  0.00  0.00    -0.646 OA
HETATM    8  O           1     -20.618  -7.055  -6.633  0.00  0.00    -0.646 OA
ENDBRANCH   5   6
BRANCH   5   9
HETATM    9  C           1     -20.099  -9.059  -4.922  0.00  0.00     0.074 C 
BRANCH   9  10
HETATM   10  C           1     -18.647  -9.355  -4.702  0.00  0.00    -0.056 A 
HETATM   11  C           1     -18.114  -9.316  -3.414  0.00  0.00     0.007 A 
HETATM   12  C           1     -16.762  -9.592  -3.210  0.00  0.00     0.001 A 
HETATM   13  C           1     -15.943  -9.906  -4.294  0.00  0.00     0.000 A 
HETATM   14  C           1     -16.475  -9.944  -5.582  0.00  0.00     0.001 A 
HETATM   15  C           1     -17.827  -9.669  -5.787  0.00  0.00     0.007 A 
ENDBRANCH   9  10
ENDBRANCH   5   9
ENDBRANCH   3   5
BRANCH   2  16
HETATM   16  C           1     -21.552  -7.914  -1.156  0.00  0.00     0.278 C 
BRANCH  16  17
HETATM   17  C           1     -22.044  -9.349  -1.292  0.00  0.00     0.021 C 
HETATM   18  C           1     -20.871 -10.306  -1.127  0.00  0.00     0.012 C 
BRANCH  17  19
HETATM   19  C           1     -23.084  -9.631  -0.216  0.00  0.00     0.002 C 
HETATM   20  C           1     -23.759 -10.967  -0.501  0.00  0.00     0.005 C 
ENDBRANCH  17  19
ENDBRANCH  16  17
BRANCH  16  21
HETATM   21  N           1     -22.245  -7.255  -0.001  0.00  0.00    -0.066 N 
HETATM   22  H           1     -21.560  -6.671   0.530  0.00  0.00     0.275 HD
HETATM   23  H           1     -23.017  -6.647  -0.359  0.00  0.00     0.275 HD
HETATM   24  H           1     -22.642  -7.987   0.630  0.00  0.00     0.275 HD
ENDBRANCH  16  21
ENDBRANCH   2  16
TORSDOF 8
ENDMDL
MODEL 3
REMARK VINA RESULT:      -7.1     17.562     19.609
REMARK  8 active torsions:
REMARK  status: ('A' for Active; 'I' for Inactive)
REMARK    1  A    between atoms: C_1  and  C_20 
REMARK    2  A    between atoms: C_5  and  C_6 
REMARK    3  A    between atoms: C_5  and  C_16 
REMARK    4  A    between atoms: C_6  and  C_7 
REMARK    5  A    between atoms: C_6  and  N_13 
REMARK       I    between atoms: C_7  and  N_8 
REMARK    6  A    between atoms: N_8  and  C_20 
REMARK    7  A    between atoms: C_20  and  C_21 
REMARK    8  A    between atoms: C_21  and  C_22 
ROOT
HETATM    1  H           1     -19.331  -7.163  -3.332  0.00  0.00     0.163 HD
HETATM    2  C           1     -19.739  -8.409  -4.934  0.00  0.00     0.249 C 
HETATM    3  N           1     -20.031  -7.746  -3.772  0.00  0.00    -0.344 N 
HETATM    4  O           1     -19.946  -7.880  -6.000  0.00  0.00    -0.271 OA
ENDROOT
BRANCH   3   5
HETATM    5  C           1     -21.346  -7.879  -3.173  0.00  0.00     0.189 C 
BRANCH   5   6
HETATM    6  C           1     -22.057  -6.549  -3.226  0.00  0.00     0.197 C 
HETATM    7  O           1     -22.330  -6.030  -4.331  0.00  0.00    -0.646 OA
HETATM    8  O           1     -22.374  -5.967  -2.167  0.00  0.00    -0.646 OA
ENDBRANCH   5   6
BRANCH   5   9
HETATM    9  C           1     -21.199  -8.318  -1.723  0.00  0.00     0.074 C 
BRANCH   9  10
HETATM   10  C           1     -22.151  -9.441  -1.443  0.00  0.00    -0.056 A 
HETATM   11  C           1     -22.917  -9.431  -0.277  0.00  0.00     0.007 A 
HETATM   12  C           1     -23.803 -10.477  -0.017  0.00  0.00     0.001 A 
HETATM   13  C           1     -23.923 -11.531  -0.921  0.00  0.00     0.000 A 
HETATM   14  C           1     -23.156 -11.542  -2.087  0.00  0.00     0.001 A 
HETATM   15  C           1     -22.270 -10.496  -2.348  0.00  0.00     0.007 A 
ENDBRANCH   9  10
ENDBRANCH   5   9
ENDBRANCH   3   5
BRANCH   2  16
HETATM   16  C           1     -19.158  -9.801  -4.882  0.00  0.00     0.278 C 
BRANCH  16  17
HETATM   17  C           1     -18.300  -9.949  -3.633  0.00  0.00     0.021 C 
HETATM   18  C           1     -18.539 -11.319  -3.012  0.00  0.00     0.012 C 
BRANCH  17  19
HETATM   19  C           1     -16.831  -9.810  -4.008  0.00  0.00     0.002 C 
HETATM   20  C           1     -15.986  -9.771  -2.741  0.00  0.00     0.005 C 
ENDBRANCH  17  19
ENDBRANCH  16  17
BRANCH  16  21
HETATM   21  N           1     -18.313 -10.035  -6.099  0.00  0.00    -0.066 N 
HETATM   22  H           1     -18.646 -10.893  -6.595  0.00  0.00     0.275 HD
HETATM   23  H           1     -18.389  -9.213  -6.739  0.00  0.00     0.275 HD
HETATM   24  H           1     -17.316 -10.163  -5.811  0.00  0.00     0.275 HD
ENDBRANCH  16  21
ENDBRANCH   2  16
TORSDOF 8
ENDMDL
MODEL 4
REMARK VINA RESULT:      -7.1      2.545      5.679
REMARK  8 active torsions:
REMARK  status: ('A' for Active; 'I' for Inactive)
REMARK    1  A    between atoms: C_1  and  C_20 
REMARK    2  A    between atoms: C_5  and  C_6 
REMARK    3  A    between atoms: C_5  and  C_16 
REMARK    4  A    between atoms: C_6  and  C_7 
REMARK    5  A    between atoms: C_6  and  N_13 
REMARK       I    between atoms: C_7  and  N_8 
REMARK    6  A    between atoms: N_8  and  C_20 
REMARK    7  A    between atoms: C_20  and  C_21 
REMARK    8  A    between atoms: C_21  and  C_22 
ROOT
HETATM    1  H           1     -36.605  -2.426  -9.771  0.00  0.00     0.163 HD
HETATM    2  C           1     -34.633  -2.124 -10.326  0.00  0.00     0.249 C 
HETATM    3  N           1     -35.959  -1.794 -10.227  0.00  0.00    -0.344 N 
HETATM    4  O           1     -33.863  -1.798  -9.453  0.00  0.00    -0.271 OA
ENDROOT
BRANCH   3   5
HETATM    5  C           1     -36.436  -0.539 -10.775  0.00  0.00     0.189 C 
BRANCH   5   6
HETATM    6  C           1     -37.281   0.168  -9.744  0.00  0.00     0.197 C 
HETATM    7  O           1     -38.074   1.069 -10.097  0.00  0.00    -0.646 OA
HETATM    8  O           1     -37.191  -0.147  -8.538  0.00  0.00    -0.646 OA
ENDBRANCH   5   6
BRANCH   5   9
HETATM    9  C           1     -37.274  -0.814 -12.016  0.00  0.00     0.074 C 
BRANCH   9  10
HETATM   10  C           1     -36.650  -0.139 -13.199  0.00  0.00    -0.056 A 
HETATM   11  C           1     -35.391   0.450 -13.081  0.00  0.00     0.007 A 
HETATM   12  C           1     -34.811   1.078 -14.184  0.00  0.00     0.001 A 
HETATM   13  C           1     -35.488   1.117 -15.402  0.00  0.00     0.000 A 
HETATM   14  C           1     -36.747   0.528 -15.519  0.00  0.00     0.001 A 
HETATM   15  C           1     -37.328  -0.100 -14.417  0.00  0.00     0.007 A 
ENDBRANCH   9  10
ENDBRANCH   5   9
ENDBRANCH   3   5
BRANCH   2  16
HETATM   16  C           1     -34.134  -2.892 -11.524  0.00  0.00     0.278 C 
BRANCH  16  17
HETATM   17  C           1     -34.749  -4.285 -11.528  0.00  0.00     0.021 C 
HETATM   18  C           1     -34.778  -4.824 -12.952  0.00  0.00     0.012 C 
BRANCH  17  19
HETATM   19  C           1     -33.914  -5.210 -10.652  0.00  0.00     0.002 C 
HETATM   20  C           1     -34.817  -6.260 -10.017  0.00  0.00     0.005 C 
ENDBRANCH  17  19
ENDBRANCH  16  17
BRANCH  16  21
HETATM   21  N           1     -32.640  -3.006 -11.458  0.00  0.00    -0.066 N 
HETATM   22  H           1     -32.225  -2.693 -12.364  0.00  0.00     0.275 HD
HETATM   23  H           1     -32.279  -2.403 -10.684  0.00  0.00     0.275 HD
HETATM   24  H           1     -32.374  -4.001 -11.277  0.00  0.00     0.275 HD
ENDBRANCH  16  21
ENDBRANCH   2  16
TORSDOF 8
ENDMDL
MODEL 5
REMARK VINA RESULT:      -6.9      9.600     11.536
REMARK  8 active torsions:
REMARK  status: ('A' for Active; 'I' for Inactive)
REMARK    1  A    between atoms: C_1  and  C_20 
REMARK    2  A    between atoms: C_5  and  C_6 
REMARK    3  A    between atoms: C_5  and  C_16 
REMARK    4  A    between atoms: C_6  and  C_7 
REMARK    5  A    between atoms: C_6  and  N_13 
REMARK       I    between atoms: C_7  and  N_8 
REMARK    6  A    between atoms: N_8  and  C_20 
REMARK    7  A    between atoms: C_20  and  C_21 
REMARK    8  A    between atoms: C_21  and  C_22 
ROOT
HETATM    1  H           1     -26.643  -8.084 -17.550  0.00  0.00     0.163 HD
HETATM    2  C           1     -24.991  -6.837 -17.487  0.00  0.00     0.249 C 
HETATM    3  N           1     -26.331  -7.123 -17.492  0.00  0.00    -0.344 N 
HETATM    4  O           1     -24.391  -6.778 -16.440  0.00  0.00    -0.271 OA
ENDROOT
BRANCH   3   5
HETATM    5  C           1     -27.301  -6.048 -17.414  0.00  0.00     0.189 C 
BRANCH   5   6
HETATM    6  C           1     -27.798  -5.924 -15.995  0.00  0.00     0.197 C 
HETATM    7  O           1     -28.101  -6.950 -15.346  0.00  0.00    -0.646 OA
HETATM    8  O           1     -27.907  -4.796 -15.467  0.00  0.00    -0.646 OA
ENDBRANCH   5   6
BRANCH   5   9
HETATM    9  C           1     -28.473  -6.355 -18.337  0.00  0.00     0.074 C 
BRANCH   9  10
HETATM   10  C           1     -29.658  -5.536 -17.927  0.00  0.00    -0.056 A 
HETATM   11  C           1     -29.669  -4.161 -18.157  0.00  0.00     0.007 A 
HETATM   12  C           1     -30.774  -3.399 -17.775  0.00  0.00     0.001 A 
HETATM   13  C           1     -31.867  -4.012 -17.164  0.00  0.00     0.000 A 
HETATM   14  C           1     -31.856  -5.388 -16.933  0.00  0.00     0.001 A 
HETATM   15  C           1     -30.752  -6.150 -17.315  0.00  0.00     0.007 A 
ENDBRANCH   9  10
ENDBRANCH   5   9
ENDBRANCH   3   5
BRANCH   2  16
HETATM   16  C           1     -24.266  -6.597 -18.788  0.00  0.00     0.278 C 
BRANCH  16  17
HETATM   17  C           1     -25.017  -7.280 -19.923  0.00  0.00     0.021 C 
HETATM   18  C           1     -25.669  -6.226 -20.808  0.00  0.00     0.012 C 
BRANCH  17  19
HETATM   19  C           1     -24.042  -8.106 -20.751  0.00  0.00     0.002 C 
HETATM   20  C           1     -24.187  -7.737 -22.222  0.00  0.00     0.005 C 
ENDBRANCH  17  19
ENDBRANCH  16  17
BRANCH  16  21
HETATM   21  N           1     -22.879  -7.159 -18.698  0.00  0.00    -0.066 N 
HETATM   22  H           1     -22.194  -6.379 -18.572  0.00  0.00     0.275 HD
HETATM   23  H           1     -22.819  -7.809 -17.881  0.00  0.00     0.275 HD
HETATM   24  H           1     -22.656  -7.680 -19.576  0.00  0.00     0.275 HD
ENDBRANCH  16  21
ENDBRANCH   2  16
TORSDOF 8
ENDMDL
MODEL 6
REMARK VINA RESULT:      -6.9     14.146     16.256
REMARK  8 active torsions:
REMARK  status: ('A' for Active; 'I' for Inactive)
REMARK    1  A    between atoms: C_1  and  C_20 
REMARK    2  A    between atoms: C_5  and  C_6 
REMARK    3  A    between atoms: C_5  and  C_16 
REMARK    4  A    between atoms: C_6  and  C_7 
REMARK    5  A    between atoms: C_6  and  N_13 
REMARK       I    between atoms: C_7  and  N_8 
REMARK    6  A    between atoms: N_8  and  C_20 
REMARK    7  A    between atoms: C_20  and  C_21 
REMARK    8  A    between atoms: C_21  and  C_22 
ROOT
HETATM    1  H           1     -19.739  -6.814  -7.150  0.00  0.00     0.163 HD
HETATM    2  C           1     -20.977  -5.160  -7.017  0.00  0.00     0.249 C 
HETATM    3  N           1     -20.575  -6.437  -6.724  0.00  0.00    -0.344 N 
HETATM    4  O           1     -20.583  -4.235  -6.347  0.00  0.00    -0.271 OA
ENDROOT
BRANCH   3   5
HETATM    5  C           1     -21.350  -7.246  -5.803  0.00  0.00     0.189 C 
BRANCH   5   6
HETATM    6  C           1     -22.117  -6.345  -4.867  0.00  0.00     0.197 C 
HETATM    7  O           1     -23.297  -6.026  -5.133  0.00  0.00    -0.646 OA
HETATM    8  O           1     -21.574  -5.917  -3.826  0.00  0.00    -0.646 OA
ENDBRANCH   5   6
BRANCH   5   9
HETATM    9  C           1     -20.412  -8.134  -4.997  0.00  0.00     0.074 C 
BRANCH   9  10
HETATM   10  C           1     -21.096  -9.429  -4.685  0.00  0.00    -0.056 A 
HETATM   11  C           1     -21.754  -9.594  -3.466  0.00  0.00     0.007 A 
HETATM   12  C           1     -22.391 -10.801  -3.176  0.00  0.00     0.001 A 
HETATM   13  C           1     -22.370 -11.842  -4.103  0.00  0.00     0.000 A 
HETATM   14  C           1     -21.711 -11.678  -5.321  0.00  0.00     0.001 A 
HETATM   15  C           1     -21.074 -10.471  -5.613  0.00  0.00     0.007 A 
ENDBRANCH   9  10
ENDBRANCH   5   9
ENDBRANCH   3   5
BRANCH   2  16
HETATM   16  C           1     -21.911  -4.910  -8.175  0.00  0.00     0.278 C 
BRANCH  16  17
HETATM   17  C           1     -21.224  -4.014  -9.197  0.00  0.00     0.021 C 
HETATM   18  C           1     -20.049  -4.759  -9.818  0.00  0.00     0.012 C 
BRANCH  17  19
HETATM   19  C           1     -22.218  -3.635 -10.287  0.00  0.00     0.002 C 
HETATM   20  C           1     -21.811  -4.298 -11.597  0.00  0.00     0.005 C 
ENDBRANCH  17  19
ENDBRANCH  16  17
BRANCH  16  21
HETATM   21  N           1     -23.155  -4.237  -7.677  0.00  0.00    -0.066 N 
HETATM   22  H           1     -23.479  -4.707  -6.801  0.00  0.00     0.275 HD
HETATM   23  H           1     -22.950  -3.231  -7.475  0.00  0.00     0.275 HD
HETATM   24  H           1     -23.901  -4.301  -8.405  0.00  0.00     0.275 HD
ENDBRANCH  16  21
ENDBRANCH   2  16
TORSDOF 8
ENDMDL
MODEL 7
REMARK VINA RESULT:      -6.8     17.083     20.126
REMARK  8 active torsions:
REMARK  status: ('A' for Active; 'I' for Inactive)
REMARK    1  A    between atoms: C_1  and  C_20 
REMARK    2  A    between atoms: C_5  and  C_6 
REMARK    3  A    between atoms: C_5  and  C_16 
REMARK    4  A    between atoms: C_6  and  C_7 
REMARK    5  A    between atoms: C_6  and  N_13 
REMARK       I    between atoms: C_7  and  N_8 
REMARK    6  A    between atoms: N_8  and  C_20 
REMARK    7  A    between atoms: C_20  and  C_21 
REMARK    8  A    between atoms: C_21  and  C_22 
ROOT
HETATM    1  H           1     -18.974  -7.290  -4.715  0.00  0.00     0.163 HD
HETATM    2  C           1     -19.106  -9.356  -4.696  0.00  0.00     0.249 C 
HETATM    3  N           1     -19.581  -8.080  -4.540  0.00  0.00    -0.344 N 
HETATM    4  O           1     -19.201  -9.908  -5.767  0.00  0.00    -0.271 OA
ENDROOT
BRANCH   3   5
HETATM    5  C           1     -20.953  -7.864  -4.122  0.00  0.00     0.189 C 
BRANCH   5   6
HETATM    6  C           1     -21.682  -7.080  -5.185  0.00  0.00     0.197 C 
HETATM    7  O           1     -22.632  -6.330  -4.868  0.00  0.00    -0.646 OA
HETATM    8  O           1     -21.337  -7.178  -6.382  0.00  0.00    -0.646 OA
ENDBRANCH   5   6
BRANCH   5   9
HETATM    9  C           1     -20.968  -7.083  -2.815  0.00  0.00     0.074 C 
BRANCH   9  10
HETATM   10  C           1     -21.718  -7.860  -1.778  0.00  0.00    -0.056 A 
HETATM   11  C           1     -22.326  -7.195  -0.713  0.00  0.00     0.007 A 
HETATM   12  C           1     -23.025  -7.919   0.253  0.00  0.00     0.001 A 
HETATM   13  C           1     -23.116  -9.307   0.155  0.00  0.00     0.000 A 
HETATM   14  C           1     -22.507  -9.972  -0.910  0.00  0.00     0.001 A 
HETATM   15  C           1     -21.809  -9.249  -1.876  0.00  0.00     0.007 A 
ENDBRANCH   9  10
ENDBRANCH   5   9
ENDBRANCH   3   5
BRANCH   2  16
HETATM   16  C           1     -18.467 -10.071  -3.532  0.00  0.00     0.278 C 
BRANCH  16  17
HETATM   17  C           1     -16.982 -10.267  -3.808  0.00  0.00     0.021 C 
HETATM   18  C           1     -16.170  -9.386  -2.868  0.00  0.00     0.012 C 
BRANCH  17  19
HETATM   19  C           1     -16.613 -11.727  -3.582  0.00  0.00     0.002 C 
HETATM   20  C           1     -15.096 -11.865  -3.536  0.00  0.00     0.005 C 
ENDBRANCH  17  19
ENDBRANCH  16  17
BRANCH  16  21
HETATM   21  N           1     -19.121 -11.408  -3.346  0.00  0.00    -0.066 N 
HETATM   22  H           1     -20.056 -11.279  -2.897  0.00  0.00     0.275 HD
HETATM   23  H           1     -19.243 -11.868  -4.277  0.00  0.00     0.275 HD
HETATM   24  H           1     -18.521 -12.008  -2.736  0.00  0.00     0.275 HD
ENDBRANCH  16  21
ENDBRANCH   2  16
TORSDOF 8
ENDMDL
MODEL 8
REMARK VINA RESULT:      -6.8     14.852     17.332
REMARK  8 active torsions:
REMARK  status: ('A' for Active; 'I' for Inactive)
REMARK    1  A    between atoms: C_1  and  C_20 
REMARK    2  A    between atoms: C_5  and  C_6 
REMARK    3  A    between atoms: C_5  and  C_16 
REMARK    4  A    between atoms: C_6  and  C_7 
REMARK    5  A    between atoms: C_6  and  N_13 
REMARK       I    between atoms: C_7  and  N_8 
REMARK    6  A    between atoms: N_8  and  C_20 
REMARK    7  A    between atoms: C_20  and  C_21 
REMARK    8  A    between atoms: C_21  and  C_22 
ROOT
HETATM    1  H           1     -18.994  -7.376  -7.201  0.00  0.00     0.163 HD
HETATM    2  C           1     -20.047  -5.696  -6.606  0.00  0.00     0.249 C 
HETATM    3  N           1     -19.550  -6.964  -6.463  0.00  0.00    -0.344 N 
HETATM    4  O           1     -19.399  -4.748  -6.232  0.00  0.00    -0.271 OA
ENDROOT
BRANCH   3   5
HETATM    5  C           1     -19.822  -7.717  -5.253  0.00  0.00     0.189 C 
BRANCH   5   6
HETATM    6  C           1     -19.272  -9.114  -5.399  0.00  0.00     0.197 C 
HETATM    7  O           1     -18.092  -9.360  -5.063  0.00  0.00    -0.646 OA
HETATM    8  O           1     -19.994 -10.027  -5.854  0.00  0.00    -0.646 OA
ENDBRANCH   5   6
BRANCH   5   9
HETATM    9  C           1     -21.326  -7.785  -5.026  0.00  0.00     0.074 C 
BRANCH   9  10
HETATM   10  C           1     -21.617  -7.632  -3.564  0.00  0.00    -0.056 A 
HETATM   11  C           1     -21.604  -8.751  -2.731  0.00  0.00     0.007 A 
HETATM   12  C           1     -21.875  -8.608  -1.369  0.00  0.00     0.001 A 
HETATM   13  C           1     -22.159  -7.349  -0.843  0.00  0.00     0.000 A 
HETATM   14  C           1     -22.173  -6.231  -1.676  0.00  0.00     0.001 A 
HETATM   15  C           1     -21.902  -6.372  -3.038  0.00  0.00     0.007 A 
ENDBRANCH   9  10
ENDBRANCH   5   9
ENDBRANCH   3   5
BRANCH   2  16
HETATM   16  C           1     -21.404  -5.483  -7.230  0.00  0.00     0.278 C 
BRANCH  16  17
HETATM   17  C           1     -21.314  -4.387  -8.284  0.00  0.00     0.021 C 
HETATM   18  C           1     -20.391  -4.840  -9.409  0.00  0.00     0.012 C 
BRANCH  17  19
HETATM   19  C           1     -22.701  -4.109  -8.846  0.00  0.00     0.002 C 
HETATM   20  C           1     -22.627  -4.035 -10.366  0.00  0.00     0.005 C 
ENDBRANCH  17  19
ENDBRANCH  16  17
BRANCH  16  21
HETATM   21  N           1     -22.383  -5.076  -6.170  0.00  0.00    -0.066 N 
HETATM   22  H           1     -22.529  -5.871  -5.506  0.00  0.00     0.275 HD
HETATM   23  H           1     -22.009  -4.251  -5.648  0.00  0.00     0.275 HD
HETATM   24  H           1     -23.294  -4.823  -6.615  0.00  0.00     0.275 HD
ENDBRANCH  16  21
ENDBRANCH   2  16
TORSDOF 8
ENDMDL
MODEL 9
REMARK VINA RESULT:      -6.7     15.566     18.656
REMARK  8 active torsions:
REMARK  status: ('A' for Active; 'I' for Inactive)
REMARK    1  A    between atoms: C_1  and  C_20 
REMARK    2  A    between atoms: C_5  and  C_6 
REMARK    3  A    between atoms: C_5  and  C_16 
REMARK    4  A    between atoms: C_6  and  C_7 
REMARK    5  A    between atoms: C_6  and  N_13 
REMARK       I    between atoms: C_7  and  N_8 
REMARK    6  A    between atoms: N_8  and  C_20 
REMARK    7  A    between atoms: C_20  and  C_21 
REMARK    8  A    between atoms: C_21  and  C_22 
ROOT
HETATM    1  H           1     -23.311  -7.743  -4.500  0.00  0.00     0.163 HD
HETATM    2  C           1     -22.025  -7.153  -2.988  0.00  0.00     0.249 C 
HETATM    3  N           1     -22.366  -7.454  -4.280  0.00  0.00    -0.344 N 
HETATM    4  O           1     -22.141  -6.021  -2.582  0.00  0.00    -0.271 OA
ENDROOT
BRANCH   3   5
HETATM    5  C           1     -21.372  -7.360  -5.333  0.00  0.00     0.189 C 
BRANCH   5   6
HETATM    6  C           1     -20.439  -8.542  -5.247  0.00  0.00     0.197 C 
HETATM    7  O           1     -19.296  -8.402  -4.758  0.00  0.00    -0.646 OA
HETATM    8  O           1     -20.806  -9.662  -5.664  0.00  0.00    -0.646 OA
ENDBRANCH   5   6
BRANCH   5   9
HETATM    9  C           1     -20.578  -6.073  -5.166  0.00  0.00     0.074 C 
BRANCH   9  10
HETATM   10  C           1     -20.643  -5.278  -6.434  0.00  0.00    -0.056 A 
HETATM   11  C           1     -19.467  -4.922  -7.095  0.00  0.00     0.007 A 
HETATM   12  C           1     -19.529  -4.182  -8.276  0.00  0.00     0.001 A 
HETATM   13  C           1     -20.764  -3.798  -8.796  0.00  0.00     0.000 A 
HETATM   14  C           1     -21.940  -4.153  -8.135  0.00  0.00     0.001 A 
HETATM   15  C           1     -21.879  -4.893  -6.954  0.00  0.00     0.007 A 
ENDBRANCH   9  10
ENDBRANCH   5   9
ENDBRANCH   3   5
BRANCH   2  16
HETATM   16  C           1     -21.503  -8.233  -2.074  0.00  0.00     0.278 C 
BRANCH  16  17
HETATM   17  C           1     -22.315  -8.245  -0.785  0.00  0.00     0.021 C 
HETATM   18  C           1     -22.849  -9.650  -0.534  0.00  0.00     0.012 C 
BRANCH  17  19
HETATM   19  C           1     -21.427  -7.824   0.377  0.00  0.00     0.002 C 
HETATM   20  C           1     -21.208  -9.012   1.305  0.00  0.00     0.005 C 
ENDBRANCH  17  19
ENDBRANCH  16  17
BRANCH  16  21
HETATM   21  N           1     -20.063  -7.965  -1.754  0.00  0.00    -0.066 N 
HETATM   22  H           1     -19.816  -6.992  -2.046  0.00  0.00     0.275 HD
HETATM   23  H           1     -19.910  -8.068  -0.725  0.00  0.00     0.275 HD
HETATM   24  H           1     -19.459  -8.647  -2.267  0.00  0.00     0.275 HD
ENDBRANCH  16  21
ENDBRANCH   2  16
TORSDOF 8
ENDMDL
