MODEL 1
REMARK VINA RESULT:      -6.4      0.000      0.000
REMARK  9 active torsions:
REMARK  status: ('A' for Active; 'I' for Inactive)
REMARK       I    between atoms: C_1  and  N_17 
REMARK    1  A    between atoms: C_1  and  C_2 
REMARK    2  A    between atoms: C_2  and  C_3 
REMARK    3  A    between atoms: C_2  and  N_7 
REMARK    4  A    between atoms: C_3  and  C_4 
REMARK    5  A    between atoms: C_13  and  C_22 
REMARK    6  A    between atoms: C_15  and  C_22 
REMARK    7  A    between atoms: C_15  and  C_21 
REMARK    8  A    between atoms: N_17  and  C_21 
REMARK    9  A    between atoms: C_20  and  C_21 
ROOT
HETATM    1  C           1     -26.260  -6.402 -18.538  0.00  0.00     0.249 C 
HETATM    2  O           1     -26.112  -6.049 -17.392  0.00  0.00    -0.271 OA
HETATM    3  H           1     -27.642  -6.939 -19.982  0.00  0.00     0.163 HD
HETATM    4  N           1     -27.517  -6.643 -19.022  0.00  0.00    -0.345 N 
ENDROOT
BRANCH   1   5
HETATM    5  C           1     -25.060  -6.576 -19.435  0.00  0.00     0.284 C 
BRANCH   5   6
HETATM    6  C           1     -25.501  -6.520 -20.892  0.00  0.00     0.155 C 
BRANCH   6   7
HETATM    7  C           1     -25.472  -7.909 -21.481  0.00  0.00     0.175 C 
HETATM    8  O           1     -24.463  -8.303 -22.104  0.00  0.00    -0.648 OA
HETATM    9  O           1     -26.458  -8.666 -21.345  0.00  0.00    -0.648 OA
ENDBRANCH   6   7
ENDBRANCH   5   6
BRANCH   5  10
HETATM   10  N           1     -24.419  -7.904 -19.159  0.00  0.00    -0.066 N 
HETATM   11  H           1     -24.127  -7.948 -18.156  0.00  0.00     0.275 HD
HETATM   12  H           1     -25.103  -8.668 -19.356  0.00  0.00     0.275 HD
HETATM   13  H           1     -23.579  -8.019 -19.770  0.00  0.00     0.275 HD
ENDBRANCH   5  10
ENDBRANCH   1   5
BRANCH   4  14
HETATM   14  C           1     -28.671  -6.475 -18.160  0.00  0.00     0.186 C 
BRANCH  14  15
HETATM   15  C           1     -29.379  -5.172 -18.509  0.00  0.00     0.046 C 
BRANCH  15  16
HETATM   16  C           1     -29.767  -4.446 -17.227  0.00  0.00     0.116 C 
BRANCH  16  17
HETATM   17  C           1     -31.222  -4.052 -17.291  0.00  0.00     0.172 C 
HETATM   18  O           1     -31.555  -2.973 -17.828  0.00  0.00    -0.648 OA
HETATM   19  O           1     -32.095  -4.805 -16.808  0.00  0.00    -0.648 OA
ENDBRANCH  16  17
ENDBRANCH  15  16
ENDBRANCH  14  15
BRANCH  14  20
HETATM   20  C           1     -29.620  -7.633 -18.358  0.00  0.00     0.196 C 
HETATM   21  O           1     -30.570  -7.804 -17.565  0.00  0.00    -0.646 OA
HETATM   22  O           1     -29.453  -8.418 -19.315  0.00  0.00    -0.646 OA
ENDBRANCH  14  20
ENDBRANCH   4  14
TORSDOF 9
ENDMDL
MODEL 2
REMARK VINA RESULT:      -6.1      1.516      2.053
REMARK  9 active torsions:
REMARK  status: ('A' for Active; 'I' for Inactive)
REMARK       I    between atoms: C_1  and  N_17 
REMARK    1  A    between atoms: C_1  and  C_2 
REMARK    2  A    between atoms: C_2  and  C_3 
REMARK    3  A    between atoms: C_2  and  N_7 
REMARK    4  A    between atoms: C_3  and  C_4 
REMARK    5  A    between atoms: C_13  and  C_22 
REMARK    6  A    between atoms: C_15  and  C_22 
REMARK    7  A    between atoms: C_15  and  C_21 
REMARK    8  A    between atoms: N_17  and  C_21 
REMARK    9  A    between atoms: C_20  and  C_21 
ROOT
HETATM    1  C           1     -25.537  -6.513 -17.842  0.00  0.00     0.249 C 
HETATM    2  O           1     -24.812  -6.698 -16.894  0.00  0.00    -0.271 OA
HETATM    3  H           1     -27.444  -5.977 -18.441  0.00  0.00     0.163 HD
HETATM    4  N           1     -26.836  -6.132 -17.647  0.00  0.00    -0.345 N 
ENDROOT
BRANCH   1   5
HETATM    5  C           1     -25.008  -6.700 -19.243  0.00  0.00     0.284 C 
BRANCH   5   6
HETATM    6  C           1     -26.175  -6.852 -20.211  0.00  0.00     0.155 C 
BRANCH   6   7
HETATM    7  C           1     -25.781  -7.781 -21.333  0.00  0.00     0.175 C 
HETATM    8  O           1     -26.491  -8.774 -21.600  0.00  0.00    -0.648 OA
HETATM    9  O           1     -24.744  -7.558 -21.995  0.00  0.00    -0.648 OA
ENDBRANCH   6   7
ENDBRANCH   5   6
BRANCH   5  10
HETATM   10  N           1     -24.155  -7.933 -19.294  0.00  0.00    -0.066 N 
HETATM   11  H           1     -24.635  -8.666 -19.863  0.00  0.00     0.275 HD
HETATM   12  H           1     -23.235  -7.701 -19.732  0.00  0.00     0.275 HD
HETATM   13  H           1     -24.001  -8.290 -18.324  0.00  0.00     0.275 HD
ENDBRANCH   5  10
ENDBRANCH   1   5
BRANCH   4  14
HETATM   14  C           1     -27.344  -5.952 -16.300  0.00  0.00     0.186 C 
BRANCH  14  15
HETATM   15  C           1     -28.294  -4.761 -16.272  0.00  0.00     0.046 C 
BRANCH  15  16
HETATM   16  C           1     -28.958  -4.608 -17.634  0.00  0.00     0.116 C 
BRANCH  16  17
HETATM   17  C           1     -30.383  -4.147 -17.451  0.00  0.00     0.172 C 
HETATM   18  O           1     -31.280  -4.978 -17.193  0.00  0.00    -0.648 OA
HETATM   19  O           1     -30.665  -2.934 -17.558  0.00  0.00    -0.648 OA
ENDBRANCH  16  17
ENDBRANCH  15  16
ENDBRANCH  14  15
BRANCH  14  20
HETATM   20  C           1     -28.083  -7.196 -15.871  0.00  0.00     0.196 C 
HETATM   21  O           1     -29.069  -7.594 -16.527  0.00  0.00    -0.646 OA
HETATM   22  O           1     -27.709  -7.827 -14.859  0.00  0.00    -0.646 OA
ENDBRANCH  14  20
ENDBRANCH   4  14
TORSDOF 9
ENDMDL
MODEL 3
REMARK VINA RESULT:      -6.0      9.903     11.620
REMARK  9 active torsions:
REMARK  status: ('A' for Active; 'I' for Inactive)
REMARK       I    between atoms: C_1  and  N_17 
REMARK    1  A    between atoms: C_1  and  C_2 
REMARK    2  A    between atoms: C_2  and  C_3 
REMARK    3  A    between atoms: C_2  and  N_7 
REMARK    4  A    between atoms: C_3  and  C_4 
REMARK    5  A    between atoms: C_13  and  C_22 
REMARK    6  A    between atoms: C_15  and  C_22 
REMARK    7  A    between atoms: C_15  and  C_21 
REMARK    8  A    between atoms: N_17  and  C_21 
REMARK    9  A    between atoms: C_20  and  C_21 
ROOT
HETATM    1  C           1     -34.479  -2.304 -12.400  0.00  0.00     0.249 C 
HETATM    2  O           1     -34.622  -2.967 -13.399  0.00  0.00    -0.271 OA
HETATM    3  H           1     -35.014  -0.553 -11.435  0.00  0.00     0.163 HD
HETATM    4  N           1     -35.134  -1.109 -12.272  0.00  0.00    -0.345 N 
ENDROOT
BRANCH   1   5
HETATM    5  C           1     -33.581  -2.794 -11.291  0.00  0.00     0.284 C 
BRANCH   5   6
HETATM    6  C           1     -34.164  -4.066 -10.689  0.00  0.00     0.155 C 
BRANCH   6   7
HETATM    7  C           1     -33.374  -5.259 -11.170  0.00  0.00     0.175 C 
HETATM    8  O           1     -33.752  -6.415 -10.883  0.00  0.00    -0.648 OA
HETATM    9  O           1     -32.343  -5.090 -11.857  0.00  0.00    -0.648 OA
ENDBRANCH   6   7
ENDBRANCH   5   6
BRANCH   5  10
HETATM   10  N           1     -33.478  -1.740 -10.229  0.00  0.00    -0.066 N 
HETATM   11  H           1     -32.641  -1.141 -10.412  0.00  0.00     0.275 HD
HETATM   12  H           1     -34.338  -1.148 -10.242  0.00  0.00     0.275 HD
HETATM   13  H           1     -33.381  -2.196  -9.294  0.00  0.00     0.275 HD
ENDBRANCH   5  10
ENDBRANCH   1   5
BRANCH   4  14
HETATM   14  C           1     -35.998  -0.638 -13.338  0.00  0.00     0.186 C 
BRANCH  14  15
HETATM   15  C           1     -37.185   0.105 -12.737  0.00  0.00     0.046 C 
BRANCH  15  16
HETATM   16  C           1     -37.593  -0.564 -11.431  0.00  0.00     0.116 C 
BRANCH  16  17
HETATM   17  C           1     -37.164   0.297 -10.269  0.00  0.00     0.172 C 
HETATM   18  O           1     -37.865   1.272  -9.921  0.00  0.00    -0.648 OA
HETATM   19  O           1     -36.108   0.036  -9.654  0.00  0.00    -0.648 OA
ENDBRANCH  16  17
ENDBRANCH  15  16
ENDBRANCH  14  15
BRANCH  14  20
HETATM   20  C           1     -35.223   0.295 -14.238  0.00  0.00     0.196 C 
HETATM   21  O           1     -34.917  -0.064 -15.394  0.00  0.00    -0.646 OA
HETATM   22  O           1     -34.889   1.425 -13.825  0.00  0.00    -0.646 OA
ENDBRANCH  14  20
ENDBRANCH   4  14
TORSDOF 9
ENDMDL
MODEL 4
REMARK VINA RESULT:      -6.0     10.754     12.721
REMARK  9 active torsions:
REMARK  status: ('A' for Active; 'I' for Inactive)
REMARK       I    between atoms: C_1  and  N_17 
REMARK    1  A    between atoms: C_1  and  C_2 
REMARK    2  A    between atoms: C_2  and  C_3 
REMARK    3  A    between atoms: C_2  and  N_7 
REMARK    4  A    between atoms: C_3  and  C_4 
REMARK    5  A    between atoms: C_13  and  C_22 
REMARK    6  A    between atoms: C_15  and  C_22 
REMARK    7  A    between atoms: C_15  and  C_21 
REMARK    8  A    between atoms: N_17  and  C_21 
REMARK    9  A    between atoms: C_20  and  C_21 
ROOT
HETATM    1  C           1     -36.855  -0.182 -13.065  0.00  0.00     0.249 C 
HETATM    2  O           1     -38.047  -0.370 -13.116  0.00  0.00    -0.271 OA
HETATM    3  H           1     -35.181  -0.230 -11.848  0.00  0.00     0.163 HD
HETATM    4  N           1     -36.180  -0.387 -11.892  0.00  0.00    -0.345 N 
ENDROOT
BRANCH   1   5
HETATM    5  C           1     -36.109   0.278 -14.293  0.00  0.00     0.284 C 
BRANCH   5   6
HETATM    6  C           1     -37.102   0.563 -15.413  0.00  0.00     0.155 C 
BRANCH   6   7
HETATM    7  C           1     -37.195  -0.640 -16.321  0.00  0.00     0.175 C 
HETATM    8  O           1     -38.075  -1.505 -16.123  0.00  0.00    -0.648 OA
HETATM    9  O           1     -36.394  -0.769 -17.272  0.00  0.00    -0.648 OA
ENDBRANCH   6   7
ENDBRANCH   5   6
BRANCH   5  10
HETATM   10  N           1     -35.158  -0.796 -14.731  0.00  0.00    -0.066 N 
HETATM   11  H           1     -34.195  -0.564 -14.399  0.00  0.00     0.275 HD
HETATM   12  H           1     -35.455  -1.711 -14.323  0.00  0.00     0.275 HD
HETATM   13  H           1     -35.160  -0.861 -15.774  0.00  0.00     0.275 HD
ENDBRANCH   5  10
ENDBRANCH   1   5
BRANCH   4  14
HETATM   14  C           1     -36.897  -0.829 -10.711  0.00  0.00     0.186 C 
BRANCH  14  15
HETATM   15  C           1     -36.187  -2.036 -10.110  0.00  0.00     0.046 C 
BRANCH  15  16
HETATM   16  C           1     -35.368  -2.732 -11.188  0.00  0.00     0.116 C 
BRANCH  16  17
HETATM   17  C           1     -33.898  -2.548 -10.902  0.00  0.00     0.172 C 
HETATM   18  O           1     -33.521  -1.646 -10.123  0.00  0.00    -0.648 OA
HETATM   19  O           1     -33.057  -3.297 -11.444  0.00  0.00    -0.648 OA
ENDBRANCH  16  17
ENDBRANCH  15  16
ENDBRANCH  14  15
BRANCH  14  20
HETATM   20  C           1     -36.934   0.289  -9.698  0.00  0.00     0.196 C 
HETATM   21  O           1     -37.746   1.229  -9.835  0.00  0.00    -0.646 OA
HETATM   22  O           1     -36.153   0.274  -8.723  0.00  0.00    -0.646 OA
ENDBRANCH  14  20
ENDBRANCH   4  14
TORSDOF 9
ENDMDL
MODEL 5
REMARK VINA RESULT:      -6.0      9.692     11.207
REMARK  9 active torsions:
REMARK  status: ('A' for Active; 'I' for Inactive)
REMARK       I    between atoms: C_1  and  N_17 
REMARK    1  A    between atoms: C_1  and  C_2 
REMARK    2  A    between atoms: C_2  and  C_3 
REMARK    3  A    between atoms: C_2  and  N_7 
REMARK    4  A    between atoms: C_3  and  C_4 
REMARK    5  A    between atoms: C_13  and  C_22 
REMARK    6  A    between atoms: C_15  and  C_22 
REMARK    7  A    between atoms: C_15  and  C_21 
REMARK    8  A    between atoms: N_17  and  C_21 
REMARK    9  A    between atoms: C_20  and  C_21 
ROOT
HETATM    1  C           1     -34.544  -2.545 -12.165  0.00  0.00     0.249 C 
HETATM    2  O           1     -33.775  -2.044 -11.380  0.00  0.00    -0.271 OA
HETATM    3  H           1     -36.183  -2.211 -13.383  0.00  0.00     0.163 HD
HETATM    4  N           1     -35.539  -1.791 -12.725  0.00  0.00    -0.345 N 
ENDROOT
BRANCH   1   5
HETATM    5  C           1     -34.407  -4.003 -12.528  0.00  0.00     0.284 C 
BRANCH   5   6
HETATM    6  C           1     -33.593  -4.720 -11.459  0.00  0.00     0.155 C 
BRANCH   6   7
HETATM    7  C           1     -34.320  -5.969 -11.025  0.00  0.00     0.175 C 
HETATM    8  O           1     -34.977  -6.631 -11.857  0.00  0.00    -0.648 OA
HETATM    9  O           1     -34.265  -6.342  -9.833  0.00  0.00    -0.648 OA
ENDBRANCH   6   7
ENDBRANCH   5   6
BRANCH   5  10
HETATM   10  N           1     -33.711  -4.124 -13.851  0.00  0.00    -0.066 N 
HETATM   11  H           1     -33.453  -3.173 -14.198  0.00  0.00     0.275 HD
HETATM   12  H           1     -32.846  -4.699 -13.738  0.00  0.00     0.275 HD
HETATM   13  H           1     -34.349  -4.584 -14.540  0.00  0.00     0.275 HD
ENDBRANCH   5  10
ENDBRANCH   1   5
BRANCH   4  14
HETATM   14  C           1     -35.670  -0.389 -12.376  0.00  0.00     0.186 C 
BRANCH  14  15
HETATM   15  C           1     -36.146   0.394 -13.593  0.00  0.00     0.046 C 
BRANCH  15  16
HETATM   16  C           1     -35.090   0.320 -14.688  0.00  0.00     0.116 C 
BRANCH  16  17
HETATM   17  C           1     -35.526  -0.666 -15.743  0.00  0.00     0.172 C 
HETATM   18  O           1     -36.262  -0.292 -16.682  0.00  0.00    -0.648 OA
HETATM   19  O           1     -35.153  -1.857 -15.678  0.00  0.00    -0.648 OA
ENDBRANCH  16  17
ENDBRANCH  15  16
ENDBRANCH  14  15
BRANCH  14  20
HETATM   20  C           1     -36.674  -0.242 -11.258  0.00  0.00     0.196 C 
HETATM   21  O           1     -36.470   0.579 -10.339  0.00  0.00    -0.646 OA
HETATM   22  O           1     -37.709  -0.942 -11.253  0.00  0.00    -0.646 OA
ENDBRANCH  14  20
ENDBRANCH   4  14
TORSDOF 9
ENDMDL
MODEL 6
REMARK VINA RESULT:      -5.8      9.647     12.391
REMARK  9 active torsions:
REMARK  status: ('A' for Active; 'I' for Inactive)
REMARK       I    between atoms: C_1  and  N_17 
REMARK    1  A    between atoms: C_1  and  C_2 
REMARK    2  A    between atoms: C_2  and  C_3 
REMARK    3  A    between atoms: C_2  and  N_7 
REMARK    4  A    between atoms: C_3  and  C_4 
REMARK    5  A    between atoms: C_13  and  C_22 
REMARK    6  A    between atoms: C_15  and  C_22 
REMARK    7  A    between atoms: C_15  and  C_21 
REMARK    8  A    between atoms: N_17  and  C_21 
REMARK    9  A    between atoms: C_20  and  C_21 
ROOT
HETATM    1  C           1     -35.350  -2.923 -10.828  0.00  0.00     0.249 C 
HETATM    2  O           1     -36.392  -3.511 -10.660  0.00  0.00    -0.271 OA
HETATM    3  H           1     -34.485  -1.099 -11.282  0.00  0.00     0.163 HD
HETATM    4  N           1     -35.358  -1.591 -11.142  0.00  0.00    -0.345 N 
ENDROOT
BRANCH   1   5
HETATM    5  C           1     -34.039  -3.657 -10.689  0.00  0.00     0.284 C 
BRANCH   5   6
HETATM    6  C           1     -33.271  -3.580 -12.003  0.00  0.00     0.155 C 
BRANCH   6   7
HETATM    7  C           1     -34.212  -3.851 -13.152  0.00  0.00     0.175 C 
HETATM    8  O           1     -34.487  -2.939 -13.962  0.00  0.00    -0.648 OA
HETATM    9  O           1     -34.715  -4.986 -13.294  0.00  0.00    -0.648 OA
ENDBRANCH   6   7
ENDBRANCH   5   6
BRANCH   5  10
HETATM   10  N           1     -34.305  -5.094 -10.350  0.00  0.00    -0.066 N 
HETATM   11  H           1     -33.432  -5.530  -9.974  0.00  0.00     0.275 HD
HETATM   12  H           1     -35.058  -5.147  -9.628  0.00  0.00     0.275 HD
HETATM   13  H           1     -34.607  -5.605 -11.209  0.00  0.00     0.275 HD
ENDBRANCH   5  10
ENDBRANCH   1   5
BRANCH   4  14
HETATM   14  C           1     -36.618  -0.885 -11.274  0.00  0.00     0.186 C 
BRANCH  14  15
HETATM   15  C           1     -36.651   0.282 -10.295  0.00  0.00     0.046 C 
BRANCH  15  16
HETATM   16  C           1     -37.077  -0.220  -8.922  0.00  0.00     0.116 C 
BRANCH  16  17
HETATM   17  C           1     -37.222   0.950  -7.980  0.00  0.00     0.172 C 
HETATM   18  O           1     -37.837   1.975  -8.347  0.00  0.00    -0.648 OA
HETATM   19  O           1     -36.727   0.896  -6.834  0.00  0.00    -0.648 OA
ENDBRANCH  16  17
ENDBRANCH  15  16
ENDBRANCH  14  15
BRANCH  14  20
HETATM   20  C           1     -36.756  -0.364 -12.684  0.00  0.00     0.196 C 
HETATM   21  O           1     -35.905   0.426 -13.144  0.00  0.00    -0.646 OA
HETATM   22  O           1     -37.722  -0.723 -13.390  0.00  0.00    -0.646 OA
ENDBRANCH  14  20
ENDBRANCH   4  14
TORSDOF 9
ENDMDL
MODEL 7
REMARK VINA RESULT:      -5.7     12.739     14.537
REMARK  9 active torsions:
REMARK  status: ('A' for Active; 'I' for Inactive)
REMARK       I    between atoms: C_1  and  N_17 
REMARK    1  A    between atoms: C_1  and  C_2 
REMARK    2  A    between atoms: C_2  and  C_3 
REMARK    3  A    between atoms: C_2  and  N_7 
REMARK    4  A    between atoms: C_3  and  C_4 
REMARK    5  A    between atoms: C_13  and  C_22 
REMARK    6  A    between atoms: C_15  and  C_22 
REMARK    7  A    between atoms: C_15  and  C_21 
REMARK    8  A    between atoms: N_17  and  C_21 
REMARK    9  A    between atoms: C_20  and  C_21 
ROOT
HETATM    1  C           1     -21.180  -6.222  -6.037  0.00  0.00     0.249 C 
HETATM    2  O           1     -21.217  -7.209  -6.732  0.00  0.00    -0.271 OA
HETATM    3  H           1     -21.295  -4.156  -6.016  0.00  0.00     0.163 HD
HETATM    4  N           1     -21.325  -4.983  -6.599  0.00  0.00    -0.345 N 
ENDROOT
BRANCH   1   5
HETATM    5  C           1     -20.977  -6.356  -4.548  0.00  0.00     0.284 C 
BRANCH   5   6
HETATM    6  C           1     -20.358  -7.713  -4.238  0.00  0.00     0.155 C 
BRANCH   6   7
HETATM    7  C           1     -20.876  -8.212  -2.911  0.00  0.00     0.175 C 
HETATM    8  O           1     -21.715  -9.138  -2.877  0.00  0.00    -0.648 OA
HETATM    9  O           1     -20.466  -7.700  -1.847  0.00  0.00    -0.648 OA
ENDBRANCH   6   7
ENDBRANCH   5   6
BRANCH   5  10
HETATM   10  N           1     -22.300  -6.240  -3.851  0.00  0.00    -0.066 N 
HETATM   11  H           1     -22.158  -5.832  -2.899  0.00  0.00     0.275 HD
HETATM   12  H           1     -22.932  -5.620  -4.404  0.00  0.00     0.275 HD
HETATM   13  H           1     -22.731  -7.188  -3.762  0.00  0.00     0.275 HD
ENDBRANCH   5  10
ENDBRANCH   1   5
BRANCH   4  14
HETATM   14  C           1     -21.521  -4.854  -8.030  0.00  0.00     0.186 C 
BRANCH  14  15
HETATM   15  C           1     -22.504  -3.724  -8.308  0.00  0.00     0.046 C 
BRANCH  15  16
HETATM   16  C           1     -23.709  -4.272  -9.059  0.00  0.00     0.116 C 
BRANCH  16  17
HETATM   17  C           1     -23.882  -3.518 -10.355  0.00  0.00     0.172 C 
HETATM   18  O           1     -22.882  -3.231 -11.048  0.00  0.00    -0.648 OA
HETATM   19  O           1     -25.024  -3.182 -10.735  0.00  0.00    -0.648 OA
ENDBRANCH  16  17
ENDBRANCH  15  16
ENDBRANCH  14  15
BRANCH  14  20
HETATM   20  C           1     -20.199  -4.547  -8.693  0.00  0.00     0.196 C 
HETATM   21  O           1     -19.252  -4.095  -8.015  0.00  0.00    -0.646 OA
HETATM   22  O           1     -20.054  -4.745  -9.917  0.00  0.00    -0.646 OA
ENDBRANCH  14  20
ENDBRANCH   4  14
TORSDOF 9
ENDMDL
MODEL 8
REMARK VINA RESULT:      -5.7      8.729     11.057
REMARK  9 active torsions:
REMARK  status: ('A' for Active; 'I' for Inactive)
REMARK       I    between atoms: C_1  and  N_17 
REMARK    1  A    between atoms: C_1  and  C_2 
REMARK    2  A    between atoms: C_2  and  C_3 
REMARK    3  A    between atoms: C_2  and  N_7 
REMARK    4  A    between atoms: C_3  and  C_4 
REMARK    5  A    between atoms: C_13  and  C_22 
REMARK    6  A    between atoms: C_15  and  C_22 
REMARK    7  A    between atoms: C_15  and  C_21 
REMARK    8  A    between atoms: N_17  and  C_21 
REMARK    9  A    between atoms: C_20  and  C_21 
ROOT
HETATM    1  C           1     -34.902  -0.495 -12.644  0.00  0.00     0.249 C 
HETATM    2  O           1     -34.873   0.681 -12.367  0.00  0.00    -0.271 OA
HETATM    3  H           1     -35.389  -1.883 -14.098  0.00  0.00     0.163 HD
HETATM    4  N           1     -35.365  -0.899 -13.866  0.00  0.00    -0.345 N 
ENDROOT
BRANCH   1   5
HETATM    5  C           1     -34.427  -1.517 -11.641  0.00  0.00     0.284 C 
BRANCH   5   6
HETATM    6  C           1     -34.456  -2.902 -12.274  0.00  0.00     0.155 C 
BRANCH   6   7
HETATM    7  C           1     -33.512  -3.816 -11.530  0.00  0.00     0.175 C 
HETATM    8  O           1     -32.426  -4.150 -12.051  0.00  0.00    -0.648 OA
HETATM    9  O           1     -33.816  -4.237 -10.393  0.00  0.00    -0.648 OA
ENDBRANCH   6   7
ENDBRANCH   5   6
BRANCH   5  10
HETATM   10  N           1     -35.327  -1.497 -10.442  0.00  0.00    -0.066 N 
HETATM   11  H           1     -34.770  -1.714  -9.585  0.00  0.00     0.275 HD
HETATM   12  H           1     -35.758  -0.550 -10.346  0.00  0.00     0.275 HD
HETATM   13  H           1     -36.079  -2.213 -10.558  0.00  0.00     0.275 HD
ENDBRANCH   5  10
ENDBRANCH   1   5
BRANCH   4  14
HETATM   14  C           1     -35.822   0.084 -14.830  0.00  0.00     0.186 C 
BRANCH  14  15
HETATM   15  C           1     -35.152  -0.175 -16.174  0.00  0.00     0.046 C 
BRANCH  15  16
HETATM   16  C           1     -35.653  -1.495 -16.745  0.00  0.00     0.116 C 
BRANCH  16  17
HETATM   17  C           1     -34.569  -2.537 -16.630  0.00  0.00     0.172 C 
HETATM   18  O           1     -33.661  -2.591 -17.487  0.00  0.00    -0.648 OA
HETATM   19  O           1     -34.578  -3.347 -15.678  0.00  0.00    -0.648 OA
ENDBRANCH  16  17
ENDBRANCH  15  16
ENDBRANCH  14  15
BRANCH  14  20
HETATM   20  C           1     -37.320  -0.022 -14.984  0.00  0.00     0.196 C 
HETATM   21  O           1     -37.909   0.664 -15.847  0.00  0.00    -0.646 OA
HETATM   22  O           1     -37.969  -0.795 -14.249  0.00  0.00    -0.646 OA
ENDBRANCH  14  20
ENDBRANCH   4  14
TORSDOF 9
ENDMDL
MODEL 9
REMARK VINA RESULT:      -5.7      2.111      5.735
REMARK  9 active torsions:
REMARK  status: ('A' for Active; 'I' for Inactive)
REMARK       I    between atoms: C_1  and  N_17 
REMARK    1  A    between atoms: C_1  and  C_2 
REMARK    2  A    between atoms: C_2  and  C_3 
REMARK    3  A    between atoms: C_2  and  N_7 
REMARK    4  A    between atoms: C_3  and  C_4 
REMARK    5  A    between atoms: C_13  and  C_22 
REMARK    6  A    between atoms: C_15  and  C_22 
REMARK    7  A    between atoms: C_15  and  C_21 
REMARK    8  A    between atoms: N_17  and  C_21 
REMARK    9  A    between atoms: C_20  and  C_21 
ROOT
HETATM    1  C           1     -28.322  -6.347 -18.752  0.00  0.00     0.249 C 
HETATM    2  O           1     -28.415  -5.230 -19.202  0.00  0.00    -0.271 OA
HETATM    3  H           1     -27.352  -8.167 -18.917  0.00  0.00     0.163 HD
HETATM    4  N           1     -27.429  -7.231 -19.294  0.00  0.00    -0.345 N 
ENDROOT
BRANCH   1   5
HETATM    5  C           1     -29.191  -6.767 -17.592  0.00  0.00     0.284 C 
BRANCH   5   6
HETATM    6  C           1     -29.778  -5.531 -16.923  0.00  0.00     0.155 C 
BRANCH   6   7
HETATM    7  C           1     -29.047  -5.264 -15.629  0.00  0.00     0.175 C 
HETATM    8  O           1     -27.975  -4.623 -15.639  0.00  0.00    -0.648 OA
HETATM    9  O           1     -29.516  -5.683 -14.548  0.00  0.00    -0.648 OA
ENDBRANCH   6   7
ENDBRANCH   5   6
BRANCH   5  10
HETATM   10  N           1     -28.363  -7.527 -16.598  0.00  0.00    -0.066 N 
HETATM   11  H           1     -28.203  -6.935 -15.753  0.00  0.00     0.275 HD
HETATM   12  H           1     -28.867  -8.399 -16.322  0.00  0.00     0.275 HD
HETATM   13  H           1     -27.444  -7.775 -17.028  0.00  0.00     0.275 HD
ENDBRANCH   5  10
ENDBRANCH   1   5
BRANCH   4  14
HETATM   14  C           1     -26.594  -6.827 -20.409  0.00  0.00     0.186 C 
BRANCH  14  15
HETATM   15  C           1     -25.266  -6.297 -19.881  0.00  0.00     0.046 C 
BRANCH  15  16
HETATM   16  C           1     -24.572  -7.384 -19.072  0.00  0.00     0.116 C 
BRANCH  16  17
HETATM   17  C           1     -24.670  -7.058 -17.602  0.00  0.00     0.172 C 
HETATM   18  O           1     -25.437  -6.151 -17.213  0.00  0.00    -0.648 OA
HETATM   19  O           1     -23.983  -7.694 -16.773  0.00  0.00    -0.648 OA
ENDBRANCH  16  17
ENDBRANCH  15  16
ENDBRANCH  14  15
BRANCH  14  20
HETATM   20  C           1     -26.343  -8.015 -21.305  0.00  0.00     0.196 C 
HETATM   21  O           1     -27.232  -8.878 -21.461  0.00  0.00    -0.646 OA
HETATM   22  O           1     -25.245  -8.135 -21.889  0.00  0.00    -0.646 OA
ENDBRANCH  14  20
ENDBRANCH   4  14
TORSDOF 9
ENDMDL
