MODEL 1
REMARK VINA RESULT:      -5.6      0.000      0.000
REMARK  6 active torsions:
REMARK  status: ('A' for Active; 'I' for Inactive)
REMARK    1  A    between atoms: C_2  and  C_3 
REMARK    2  A    between atoms: C_3  and  C_14 
REMARK    3  A    between atoms: C_3  and  N_13 
REMARK       I    between atoms: N_8  and  C_10 
REMARK    4  A    between atoms: C_10  and  C_17 
REMARK       I    between atoms: N_13  and  C_20 
REMARK    5  A    between atoms: C_14  and  C_17 
REMARK    6  A    between atoms: C_20  and  C_21 
ROOT
HETATM    1  C           1     -10.046   5.372 -20.549  0.00  0.00     0.186 C 
ENDROOT
BRANCH   1   2
HETATM    2  C           1     -10.521   5.461 -19.119  0.00  0.00     0.196 C 
HETATM    3  O           1      -9.709   5.731 -18.208  0.00  0.00    -0.646 OA
HETATM    4  O           1     -11.724   5.265 -18.847  0.00  0.00    -0.646 OA
ENDBRANCH   1   2
BRANCH   1   5
HETATM    5  C           1      -9.208   6.600 -20.882  0.00  0.00     0.045 C 
BRANCH   5   6
HETATM    6  C           1     -10.128   7.771 -21.201  0.00  0.00     0.105 C 
BRANCH   6   7
HETATM    7  C           1      -9.791   8.935 -20.301  0.00  0.00     0.215 C 
HETATM    8  N           1     -10.144   8.901 -18.978  0.00  0.00    -0.370 N 
HETATM    9  H           1      -9.919   9.681 -18.374  0.00  0.00     0.159 HD
HETATM   10  H           1     -10.631   8.096 -18.605  0.00  0.00     0.159 HD
HETATM   11  O           1      -9.210   9.895 -20.746  0.00  0.00    -0.274 OA
ENDBRANCH   6   7
ENDBRANCH   5   6
ENDBRANCH   1   5
BRANCH   1  12
HETATM   12  N           1     -11.192   5.313 -21.435  0.00  0.00    -0.345 N 
HETATM   13  H           1     -11.708   6.156 -21.653  0.00  0.00     0.163 HD
HETATM   14  C           1     -11.578   4.116 -21.977  0.00  0.00     0.251 C 
HETATM   15  O           1     -10.963   3.109 -21.716  0.00  0.00    -0.271 OA
BRANCH  14  16
HETATM   16  C           1     -12.770   4.054 -22.899  0.00  0.00     0.311 C 
HETATM   17  N           1     -13.697   3.006 -22.480  0.00  0.00     0.097 N 
HETATM   18  C           1     -14.433   3.582 -21.356  0.00  0.00     0.271 C 
HETATM   19  H           1     -14.348   2.778 -23.231  0.00  0.00     0.317 HD
HETATM   20  C           1     -14.685   5.017 -21.785  0.00  0.00     0.033 C 
HETATM   21  C           1     -13.594   5.325 -22.803  0.00  0.00     0.047 C 
ENDBRANCH  14  16
ENDBRANCH   1  12
TORSDOF 6
ENDMDL
MODEL 2
REMARK VINA RESULT:      -5.4     24.501     26.318
REMARK  6 active torsions:
REMARK  status: ('A' for Active; 'I' for Inactive)
REMARK    1  A    between atoms: C_2  and  C_3 
REMARK    2  A    between atoms: C_3  and  C_14 
REMARK    3  A    between atoms: C_3  and  N_13 
REMARK       I    between atoms: N_8  and  C_10 
REMARK    4  A    between atoms: C_10  and  C_17 
REMARK       I    between atoms: N_13  and  C_20 
REMARK    5  A    between atoms: C_14  and  C_17 
REMARK    6  A    between atoms: C_20  and  C_21 
ROOT
HETATM    1  C           1     -21.190  -7.873  -1.705  0.00  0.00     0.186 C 
ENDROOT
BRANCH   1   2
HETATM    2  C           1     -22.305  -6.952  -1.273  0.00  0.00     0.196 C 
HETATM    3  O           1     -22.979  -7.222  -0.256  0.00  0.00    -0.646 OA
HETATM    4  O           1     -22.554  -5.921  -1.933  0.00  0.00    -0.646 OA
ENDBRANCH   1   2
BRANCH   1   5
HETATM    5  C           1     -20.587  -7.363  -3.007  0.00  0.00     0.045 C 
BRANCH   5   6
HETATM    6  C           1     -21.130  -8.180  -4.172  0.00  0.00     0.105 C 
BRANCH   6   7
HETATM    7  C           1     -21.634  -7.250  -5.249  0.00  0.00     0.215 C 
HETATM    8  N           1     -22.575  -6.301  -4.948  0.00  0.00    -0.370 N 
HETATM    9  H           1     -22.912  -5.677  -5.669  0.00  0.00     0.159 HD
HETATM   10  H           1     -22.932  -6.225  -4.004  0.00  0.00     0.159 HD
HETATM   11  O           1     -21.207  -7.342  -6.375  0.00  0.00    -0.274 OA
ENDBRANCH   6   7
ENDBRANCH   5   6
ENDBRANCH   1   5
BRANCH   1  12
HETATM   12  N           1     -21.718  -9.209  -1.905  0.00  0.00    -0.345 N 
HETATM   13  H           1     -22.408  -9.378  -2.626  0.00  0.00     0.163 HD
HETATM   14  C           1     -21.282 -10.243  -1.120  0.00  0.00     0.251 C 
HETATM   15  O           1     -20.458 -10.041  -0.260  0.00  0.00    -0.271 OA
BRANCH  14  16
HETATM   16  C           1     -21.831 -11.632  -1.328  0.00  0.00     0.311 C 
HETATM   17  N           1     -22.218 -12.234  -0.055  0.00  0.00     0.097 N 
HETATM   18  C           1     -23.509 -11.633   0.270  0.00  0.00     0.271 C 
HETATM   19  H           1     -22.327 -13.244  -0.151  0.00  0.00     0.317 HD
HETATM   20  C           1     -24.232 -11.584  -1.066  0.00  0.00     0.033 C 
HETATM   21  C           1     -23.128 -11.589  -2.116  0.00  0.00     0.047 C 
ENDBRANCH  14  16
ENDBRANCH   1  12
TORSDOF 6
ENDMDL
MODEL 3
REMARK VINA RESULT:      -5.1     21.197     23.274
REMARK  6 active torsions:
REMARK  status: ('A' for Active; 'I' for Inactive)
REMARK    1  A    between atoms: C_2  and  C_3 
REMARK    2  A    between atoms: C_3  and  C_14 
REMARK    3  A    between atoms: C_3  and  N_13 
REMARK       I    between atoms: N_8  and  C_10 
REMARK    4  A    between atoms: C_10  and  C_17 
REMARK       I    between atoms: N_13  and  C_20 
REMARK    5  A    between atoms: C_14  and  C_17 
REMARK    6  A    between atoms: C_20  and  C_21 
ROOT
HETATM    1  C           1     -21.443  -7.246  -4.031  0.00  0.00     0.186 C 
ENDROOT
BRANCH   1   2
HETATM    2  C           1     -21.649  -6.825  -2.596  0.00  0.00     0.196 C 
HETATM    3  O           1     -21.011  -7.389  -1.682  0.00  0.00    -0.646 OA
HETATM    4  O           1     -22.458  -5.912  -2.323  0.00  0.00    -0.646 OA
ENDBRANCH   1   2
BRANCH   1   5
HETATM    5  C           1     -20.636  -8.537  -4.069  0.00  0.00     0.045 C 
BRANCH   5   6
HETATM    6  C           1     -21.547  -9.693  -4.461  0.00  0.00     0.105 C 
BRANCH   6   7
HETATM    7  C           1     -21.774 -10.584  -3.264  0.00  0.00     0.215 C 
HETATM    8  N           1     -21.043 -10.395  -2.122  0.00  0.00    -0.370 N 
HETATM    9  H           1     -21.196 -10.992  -1.319  0.00  0.00     0.159 HD
HETATM   10  H           1     -20.351  -9.658  -2.081  0.00  0.00     0.159 HD
HETATM   11  O           1     -22.601 -11.463  -3.313  0.00  0.00    -0.274 OA
ENDBRANCH   6   7
ENDBRANCH   5   6
ENDBRANCH   1   5
BRANCH   1  12
HETATM   12  N           1     -20.725  -6.205  -4.740  0.00  0.00    -0.345 N 
HETATM   13  H           1     -19.731  -6.084  -4.592  0.00  0.00     0.163 HD
HETATM   14  C           1     -21.391  -5.385  -5.612  0.00  0.00     0.251 C 
HETATM   15  O           1     -22.577  -5.529  -5.789  0.00  0.00    -0.271 OA
BRANCH  14  16
HETATM   16  C           1     -20.644  -4.302  -6.350  0.00  0.00     0.311 C 
HETATM   17  N           1     -19.533  -4.864  -7.113  0.00  0.00     0.097 N 
HETATM   18  C           1     -20.148  -5.435  -8.309  0.00  0.00     0.271 C 
HETATM   19  H           1     -18.875  -4.135  -7.384  0.00  0.00     0.317 HD
HETATM   20  C           1     -21.202  -4.412  -8.698  0.00  0.00     0.033 C 
HETATM   21  C           1     -21.524  -3.664  -7.410  0.00  0.00     0.047 C 
ENDBRANCH  14  16
ENDBRANCH   1  12
TORSDOF 6
ENDMDL
MODEL 4
REMARK VINA RESULT:      -4.9     22.842     24.522
REMARK  6 active torsions:
REMARK  status: ('A' for Active; 'I' for Inactive)
REMARK    1  A    between atoms: C_2  and  C_3 
REMARK    2  A    between atoms: C_3  and  C_14 
REMARK    3  A    between atoms: C_3  and  N_13 
REMARK       I    between atoms: N_8  and  C_10 
REMARK    4  A    between atoms: C_10  and  C_17 
REMARK       I    between atoms: N_13  and  C_20 
REMARK    5  A    between atoms: C_14  and  C_17 
REMARK    6  A    between atoms: C_20  and  C_21 
ROOT
HETATM    1  C           1     -20.051  -8.617  -3.519  0.00  0.00     0.186 C 
ENDROOT
BRANCH   1   2
HETATM    2  C           1     -20.323  -7.715  -4.698  0.00  0.00     0.196 C 
HETATM    3  O           1     -19.909  -8.031  -5.834  0.00  0.00    -0.646 OA
HETATM    4  O           1     -20.961  -6.653  -4.539  0.00  0.00    -0.646 OA
ENDBRANCH   1   2
BRANCH   1   5
HETATM    5  C           1     -20.251  -7.835  -2.227  0.00  0.00     0.045 C 
BRANCH   5   6
HETATM    6  C           1     -21.541  -8.285  -1.556  0.00  0.00     0.105 C 
BRANCH   6   7
HETATM    7  C           1     -22.353  -7.075  -1.162  0.00  0.00     0.215 C 
HETATM    8  N           1     -22.293  -5.935  -1.919  0.00  0.00    -0.370 N 
HETATM    9  H           1     -22.838  -5.124  -1.656  0.00  0.00     0.159 HD
HETATM   10  H           1     -21.704  -5.905  -2.742  0.00  0.00     0.159 HD
HETATM   11  O           1     -23.057  -7.112  -0.181  0.00  0.00    -0.274 OA
ENDBRANCH   6   7
ENDBRANCH   5   6
ENDBRANCH   1   5
BRANCH   1  12
HETATM   12  N           1     -18.685  -9.100  -3.586  0.00  0.00    -0.345 N 
HETATM   13  H           1     -17.918  -8.443  -3.644  0.00  0.00     0.163 HD
HETATM   14  C           1     -18.434 -10.446  -3.572  0.00  0.00     0.251 C 
HETATM   15  O           1     -19.350 -11.230  -3.503  0.00  0.00    -0.271 OA
BRANCH  14  16
HETATM   16  C           1     -17.013 -10.949  -3.642  0.00  0.00     0.311 C 
HETATM   17  N           1     -16.853 -11.902  -4.737  0.00  0.00     0.097 N 
HETATM   18  C           1     -16.758 -11.080  -5.941  0.00  0.00     0.271 C 
HETATM   19  H           1     -15.995 -12.441  -4.625  0.00  0.00     0.317 HD
HETATM   20  C           1     -15.894  -9.906  -5.511  0.00  0.00     0.033 C 
HETATM   21  C           1     -16.058  -9.825  -3.998  0.00  0.00     0.047 C 
ENDBRANCH  14  16
ENDBRANCH   1  12
TORSDOF 6
ENDMDL
MODEL 5
REMARK VINA RESULT:      -4.9     23.728     25.662
REMARK  6 active torsions:
REMARK  status: ('A' for Active; 'I' for Inactive)
REMARK    1  A    between atoms: C_2  and  C_3 
REMARK    2  A    between atoms: C_3  and  C_14 
REMARK    3  A    between atoms: C_3  and  N_13 
REMARK       I    between atoms: N_8  and  C_10 
REMARK    4  A    between atoms: C_10  and  C_17 
REMARK       I    between atoms: N_13  and  C_20 
REMARK    5  A    between atoms: C_14  and  C_17 
REMARK    6  A    between atoms: C_20  and  C_21 
ROOT
HETATM    1  C           1     -20.874  -7.718  -3.445  0.00  0.00     0.186 C 
ENDROOT
BRANCH   1   2
HETATM    2  C           1     -21.495  -6.361  -3.675  0.00  0.00     0.196 C 
HETATM    3  O           1     -22.369  -5.933  -2.891  0.00  0.00    -0.646 OA
HETATM    4  O           1     -21.135  -5.666  -4.650  0.00  0.00    -0.646 OA
ENDBRANCH   1   2
BRANCH   1   5
HETATM    5  C           1     -20.988  -8.549  -4.716  0.00  0.00     0.045 C 
BRANCH   5   6
HETATM    6  C           1     -19.594  -8.912  -5.211  0.00  0.00     0.105 C 
BRANCH   6   7
HETATM    7  C           1     -19.485 -10.410  -5.353  0.00  0.00     0.215 C 
HETATM    8  N           1     -19.727 -11.219  -4.275  0.00  0.00    -0.370 N 
HETATM    9  H           1     -19.654 -12.224  -4.369  0.00  0.00     0.159 HD
HETATM   10  H           1     -19.979 -10.811  -3.383  0.00  0.00     0.159 HD
HETATM   11  O           1     -19.185 -10.897  -6.417  0.00  0.00    -0.274 OA
ENDBRANCH   6   7
ENDBRANCH   5   6
ENDBRANCH   1   5
BRANCH   1  12
HETATM   12  N           1     -21.569  -8.388  -2.363  0.00  0.00    -0.345 N 
HETATM   13  H           1     -22.560  -8.238  -2.228  0.00  0.00     0.163 HD
HETATM   14  C           1     -20.883  -9.226  -1.524  0.00  0.00     0.251 C 
HETATM   15  O           1     -19.699  -9.405  -1.685  0.00  0.00    -0.271 OA
BRANCH  14  16
HETATM   16  C           1     -21.605  -9.924  -0.399  0.00  0.00     0.311 C 
HETATM   17  N           1     -21.058  -9.526   0.896  0.00  0.00     0.097 N 
HETATM   18  C           1     -21.640  -8.213   1.164  0.00  0.00     0.271 C 
HETATM   19  H           1     -21.343 -10.180   1.625  0.00  0.00     0.317 HD
HETATM   20  C           1     -23.079  -8.352   0.694  0.00  0.00     0.033 C 
HETATM   21  C           1     -23.056  -9.480  -0.330  0.00  0.00     0.047 C 
ENDBRANCH  14  16
ENDBRANCH   1  12
TORSDOF 6
ENDMDL
MODEL 6
REMARK VINA RESULT:      -4.9      2.014      5.173
REMARK  6 active torsions:
REMARK  status: ('A' for Active; 'I' for Inactive)
REMARK    1  A    between atoms: C_2  and  C_3 
REMARK    2  A    between atoms: C_3  and  C_14 
REMARK    3  A    between atoms: C_3  and  N_13 
REMARK       I    between atoms: N_8  and  C_10 
REMARK    4  A    between atoms: C_10  and  C_17 
REMARK       I    between atoms: N_13  and  C_20 
REMARK    5  A    between atoms: C_14  and  C_17 
REMARK    6  A    between atoms: C_20  and  C_21 
ROOT
HETATM    1  C           1     -12.012   4.846 -20.630  0.00  0.00     0.186 C 
ENDROOT
BRANCH   1   2
HETATM    2  C           1     -10.821   4.196 -19.968  0.00  0.00     0.196 C 
HETATM    3  O           1     -10.695   2.953 -19.992  0.00  0.00    -0.646 OA
HETATM    4  O           1      -9.962   4.901 -19.397  0.00  0.00    -0.646 OA
ENDBRANCH   1   2
BRANCH   1   5
HETATM    5  C           1     -12.336   4.111 -21.924  0.00  0.00     0.045 C 
BRANCH   5   6
HETATM    6  C           1     -13.764   3.587 -21.866  0.00  0.00     0.105 C 
BRANCH   6   7
HETATM    7  C           1     -14.728   4.748 -21.879  0.00  0.00     0.215 C 
HETATM    8  N           1     -15.389   5.102 -20.732  0.00  0.00    -0.370 N 
HETATM    9  H           1     -16.035   5.880 -20.740  0.00  0.00     0.159 HD
HETATM   10  H           1     -15.231   4.583 -19.877  0.00  0.00     0.159 HD
HETATM   11  O           1     -14.916   5.366 -22.899  0.00  0.00    -0.274 OA
ENDBRANCH   6   7
ENDBRANCH   5   6
ENDBRANCH   1   5
BRANCH   1  12
HETATM   12  N           1     -11.702   6.232 -20.925  0.00  0.00    -0.345 N 
HETATM   13  H           1     -10.975   6.458 -21.591  0.00  0.00     0.163 HD
HETATM   14  C           1     -12.396   7.235 -20.302  0.00  0.00     0.251 C 
HETATM   15  O           1     -13.264   6.966 -19.506  0.00  0.00    -0.271 OA
BRANCH  14  16
HETATM   16  C           1     -12.074   8.677 -20.608  0.00  0.00     0.311 C 
HETATM   17  N           1     -11.806   9.422 -19.381  0.00  0.00     0.097 N 
HETATM   18  C           1     -10.439   9.061 -19.012  0.00  0.00     0.271 C 
HETATM   19  H           1     -11.859  10.426 -19.548  0.00  0.00     0.317 HD
HETATM   20  C           1      -9.700   9.036 -20.339  0.00  0.00     0.033 C 
HETATM   21  C           1     -10.777   8.788 -21.389  0.00  0.00     0.047 C 
ENDBRANCH  14  16
ENDBRANCH   1  12
TORSDOF 6
ENDMDL
MODEL 7
REMARK VINA RESULT:      -4.9     23.494     25.303
REMARK  6 active torsions:
REMARK  status: ('A' for Active; 'I' for Inactive)
REMARK    1  A    between atoms: C_2  and  C_3 
REMARK    2  A    between atoms: C_3  and  C_14 
REMARK    3  A    between atoms: C_3  and  N_13 
REMARK       I    between atoms: N_8  and  C_10 
REMARK    4  A    between atoms: C_10  and  C_17 
REMARK       I    between atoms: N_13  and  C_20 
REMARK    5  A    between atoms: C_14  and  C_17 
REMARK    6  A    between atoms: C_20  and  C_21 
ROOT
HETATM    1  C           1     -20.980  -9.221  -3.968  0.00  0.00     0.186 C 
ENDROOT
BRANCH   1   2
HETATM    2  C           1     -19.485  -9.035  -3.867  0.00  0.00     0.196 C 
HETATM    3  O           1     -18.944  -8.930  -2.745  0.00  0.00    -0.646 OA
HETATM    4  O           1     -18.790  -8.985  -4.904  0.00  0.00    -0.646 OA
ENDBRANCH   1   2
BRANCH   1   5
HETATM    5  C           1     -21.550  -8.212  -4.957  0.00  0.00     0.045 C 
BRANCH   5   6
HETATM    6  C           1     -21.332  -6.802  -4.425  0.00  0.00     0.105 C 
BRANCH   6   7
HETATM    7  C           1     -20.588  -5.985  -5.453  0.00  0.00     0.215 C 
HETATM    8  N           1     -20.076  -6.592  -6.568  0.00  0.00    -0.370 N 
HETATM    9  H           1     -19.577  -6.044  -7.258  0.00  0.00     0.159 HD
HETATM   10  H           1     -20.196  -7.588  -6.703  0.00  0.00     0.159 HD
HETATM   11  O           1     -20.445  -4.797  -5.292  0.00  0.00    -0.274 OA
ENDBRANCH   6   7
ENDBRANCH   5   6
ENDBRANCH   1   5
BRANCH   1  12
HETATM   12  N           1     -21.581  -9.015  -2.664  0.00  0.00    -0.345 N 
HETATM   13  H           1     -21.589  -8.092  -2.251  0.00  0.00     0.163 HD
HETATM   14  C           1     -22.138 -10.070  -1.993  0.00  0.00     0.251 C 
HETATM   15  O           1     -22.128 -11.173  -2.486  0.00  0.00    -0.271 OA
BRANCH  14  16
HETATM   16  C           1     -22.763  -9.856  -0.636  0.00  0.00     0.311 C 
HETATM   17  N           1     -22.186 -10.764   0.351  0.00  0.00     0.097 N 
HETATM   18  C           1     -20.901 -10.166   0.706  0.00  0.00     0.271 C 
HETATM   19  H           1     -22.776 -10.818   1.181  0.00  0.00     0.317 HD
HETATM   20  C           1     -21.201  -8.678   0.781  0.00  0.00     0.033 C 
HETATM   21  C           1     -22.429  -8.476  -0.099  0.00  0.00     0.047 C 
ENDBRANCH  14  16
ENDBRANCH   1  12
TORSDOF 6
ENDMDL
MODEL 8
REMARK VINA RESULT:      -4.9     24.545     26.349
REMARK  6 active torsions:
REMARK  status: ('A' for Active; 'I' for Inactive)
REMARK    1  A    between atoms: C_2  and  C_3 
REMARK    2  A    between atoms: C_3  and  C_14 
REMARK    3  A    between atoms: C_3  and  N_13 
REMARK       I    between atoms: N_8  and  C_10 
REMARK    4  A    between atoms: C_10  and  C_17 
REMARK       I    between atoms: N_13  and  C_20 
REMARK    5  A    between atoms: C_14  and  C_17 
REMARK    6  A    between atoms: C_20  and  C_21 
ROOT
HETATM    1  C           1     -21.053  -9.079  -3.868  0.00  0.00     0.186 C 
ENDROOT
BRANCH   1   2
HETATM    2  C           1     -19.969  -9.473  -4.842  0.00  0.00     0.196 C 
HETATM    3  O           1     -18.803  -9.054  -4.680  0.00  0.00    -0.646 OA
HETATM    4  O           1     -20.238 -10.217  -5.809  0.00  0.00    -0.646 OA
ENDBRANCH   1   2
BRANCH   1   5
HETATM    5  C           1     -20.719  -7.723  -3.259  0.00  0.00     0.045 C 
BRANCH   5   6
HETATM    6  C           1     -20.984  -7.761  -1.760  0.00  0.00     0.105 C 
BRANCH   6   7
HETATM    7  C           1     -22.138  -6.848  -1.429  0.00  0.00     0.215 C 
HETATM    8  N           1     -22.421  -5.781  -2.239  0.00  0.00    -0.370 N 
HETATM    9  H           1     -23.196  -5.169  -2.018  0.00  0.00     0.159 HD
HETATM   10  H           1     -21.855  -5.606  -3.060  0.00  0.00     0.159 HD
HETATM   11  O           1     -22.814  -7.058  -0.450  0.00  0.00    -0.274 OA
ENDBRANCH   6   7
ENDBRANCH   5   6
ENDBRANCH   1   5
BRANCH   1  12
HETATM   12  N           1     -21.142 -10.074  -2.817  0.00  0.00    -0.345 N 
HETATM   13  H           1     -20.431 -10.118  -2.099  0.00  0.00     0.163 HD
HETATM   14  C           1     -22.191 -10.955  -2.796  0.00  0.00     0.251 C 
HETATM   15  O           1     -23.040 -10.903  -3.653  0.00  0.00    -0.271 OA
BRANCH  14  16
HETATM   16  C           1     -22.283 -11.990  -1.702  0.00  0.00     0.311 C 
HETATM   17  N           1     -21.617 -11.526  -0.489  0.00  0.00     0.097 N 
HETATM   18  C           1     -22.563 -10.600   0.130  0.00  0.00     0.271 C 
HETATM   19  H           1     -21.438 -12.304   0.146  0.00  0.00     0.317 HD
HETATM   20  C           1     -23.911 -11.274  -0.067  0.00  0.00     0.033 C 
HETATM   21  C           1     -23.724 -12.192  -1.269  0.00  0.00     0.047 C 
ENDBRANCH  14  16
ENDBRANCH   1  12
TORSDOF 6
ENDMDL
MODEL 9
REMARK VINA RESULT:      -4.8     24.562     26.430
REMARK  6 active torsions:
REMARK  status: ('A' for Active; 'I' for Inactive)
REMARK    1  A    between atoms: C_2  and  C_3 
REMARK    2  A    between atoms: C_3  and  C_14 
REMARK    3  A    between atoms: C_3  and  N_13 
REMARK       I    between atoms: N_8  and  C_10 
REMARK    4  A    between atoms: C_10  and  C_17 
REMARK       I    between atoms: N_13  and  C_20 
REMARK    5  A    between atoms: C_14  and  C_17 
REMARK    6  A    between atoms: C_20  and  C_21 
ROOT
HETATM    1  C           1     -20.994  -8.084  -1.807  0.00  0.00     0.186 C 
ENDROOT
BRANCH   1   2
HETATM    2  C           1     -21.716  -6.817  -2.199  0.00  0.00     0.196 C 
HETATM    3  O           1     -21.477  -6.277  -3.300  0.00  0.00    -0.646 OA
HETATM    4  O           1     -22.552  -6.309  -1.421  0.00  0.00    -0.646 OA
ENDBRANCH   1   2
BRANCH   1   5
HETATM    5  C           1     -19.745  -8.241  -2.665  0.00  0.00     0.045 C 
BRANCH   5   6
HETATM    6  C           1     -19.937  -9.401  -3.632  0.00  0.00     0.105 C 
BRANCH   6   7
HETATM    7  C           1     -19.905  -8.885  -5.050  0.00  0.00     0.215 C 
HETATM    8  N           1     -21.022  -8.307  -5.593  0.00  0.00    -0.370 N 
HETATM    9  H           1     -21.002  -7.960  -6.543  0.00  0.00     0.159 HD
HETATM   10  H           1     -21.868  -8.227  -5.042  0.00  0.00     0.159 HD
HETATM   11  O           1     -18.896  -8.980  -5.706  0.00  0.00    -0.274 OA
ENDBRANCH   6   7
ENDBRANCH   5   6
ENDBRANCH   1   5
BRANCH   1  12
HETATM   12  N           1     -21.870  -9.221  -2.014  0.00  0.00    -0.345 N 
HETATM   13  H           1     -21.979  -9.615  -2.939  0.00  0.00     0.163 HD
HETATM   14  C           1     -22.549  -9.763  -0.955  0.00  0.00     0.251 C 
HETATM   15  O           1     -22.420  -9.293   0.150  0.00  0.00    -0.271 OA
BRANCH  14  16
HETATM   16  C           1     -23.461 -10.946  -1.169  0.00  0.00     0.311 C 
HETATM   17  N           1     -22.728 -12.068  -1.751  0.00  0.00     0.097 N 
HETATM   18  C           1     -22.002 -12.665  -0.632  0.00  0.00     0.271 C 
HETATM   19  H           1     -23.371 -12.754  -2.145  0.00  0.00     0.317 HD
HETATM   20  C           1     -23.000 -12.618   0.513  0.00  0.00     0.033 C 
HETATM   21  C           1     -23.961 -11.491   0.156  0.00  0.00     0.047 C 
ENDBRANCH  14  16
ENDBRANCH   1  12
TORSDOF 6
ENDMDL
