MODEL 1
REMARK VINA RESULT:      -6.5      0.000      0.000
REMARK  10 active torsions:
REMARK  status: ('A' for Active; 'I' for Inactive)
REMARK    1  A    between atoms: C_4  and  O_12 
REMARK    2  A    between atoms: C_4  and  C_18 
REMARK    3  A    between atoms: C_5  and  C_20 
REMARK    4  A    between atoms: C_5  and  C_23 
REMARK    5  A    between atoms: C_5  and  N_15 
REMARK    6  A    between atoms: N_7  and  C_8 
REMARK    7  A    between atoms: C_8  and  C_9 
REMARK    8  A    between atoms: C_9  and  C_23 
REMARK    9  A    between atoms: C_17  and  C_18 
REMARK   10  A    between atoms: C_18  and  N_21 
REMARK       I    between atoms: C_20  and  N_21 
ROOT
HETATM    1  C           1     -21.229  -5.783  -6.985  0.00  0.00     0.274 C 
ENDROOT
BRANCH   1   2
HETATM    2  C           1     -21.708  -4.616  -7.812  0.00  0.00     0.249 C 
HETATM    3  O           1     -21.713  -3.503  -7.341  0.00  0.00    -0.271 OA
HETATM    4  N           1     -22.138  -4.817  -9.096  0.00  0.00    -0.343 N 
HETATM    5  H           1     -22.134  -5.749  -9.491  0.00  0.00     0.163 HD
BRANCH   4   6
HETATM    6  C           1     -22.598  -3.695  -9.891  0.00  0.00     0.214 C 
BRANCH   6   7
HETATM    7  C           1     -21.815  -3.643 -11.196  0.00  0.00     0.147 C 
HETATM    8  C           1     -20.424  -4.224 -10.976  0.00  0.00     0.042 C 
BRANCH   7   9
HETATM    9  O           1     -22.486  -4.391 -12.174  0.00  0.00    -0.393 OA
HETATM   10  H           1     -23.119  -3.817 -12.571  0.00  0.00     0.210 HD
ENDBRANCH   7   9
ENDBRANCH   6   7
BRANCH   6  11
HETATM   11  C           1     -24.067  -3.863 -10.193  0.00  0.00     0.199 C 
HETATM   12  O           1     -24.645  -4.935  -9.914  0.00  0.00    -0.646 OA
HETATM   13  O           1     -24.707  -2.928 -10.722  0.00  0.00    -0.646 OA
ENDBRANCH   6  11
ENDBRANCH   4   6
ENDBRANCH   1   2
BRANCH   1  14
HETATM   14  C           1     -21.118  -5.362  -5.526  0.00  0.00     0.044 C 
BRANCH  14  15
HETATM   15  C           1     -21.936  -6.310  -4.660  0.00  0.00     0.030 C 
BRANCH  15  16
HETATM   16  C           1     -21.363  -6.333  -3.248  0.00  0.00     0.248 C 
BRANCH  16  17
HETATM   17  N           1     -22.420  -5.908  -2.273  0.00  0.00    -0.079 N 
HETATM   18  H           1     -22.552  -6.655  -1.554  0.00  0.00     0.274 HD
HETATM   19  H           1     -23.319  -5.749  -2.780  0.00  0.00     0.274 HD
HETATM   20  H           1     -22.125  -5.020  -1.804  0.00  0.00     0.274 HD
ENDBRANCH  16  17
ENDBRANCH  15  16
ENDBRANCH  14  15
ENDBRANCH   1  14
BRANCH   1  21
HETATM   21  N           1     -19.884  -6.228  -7.480  0.00  0.00    -0.067 N 
HETATM   22  H           1     -19.290  -6.513  -6.668  0.00  0.00     0.275 HD
HETATM   23  H           1     -20.003  -7.038  -8.128  0.00  0.00     0.275 HD
HETATM   24  H           1     -19.422  -5.439  -7.988  0.00  0.00     0.257 HD
ENDBRANCH   1  21
TORSDOF 10
ENDMDL
MODEL 2
REMARK VINA RESULT:      -6.3     13.234     14.684
REMARK  10 active torsions:
REMARK  status: ('A' for Active; 'I' for Inactive)
REMARK    1  A    between atoms: C_4  and  O_12 
REMARK    2  A    between atoms: C_4  and  C_18 
REMARK    3  A    between atoms: C_5  and  C_20 
REMARK    4  A    between atoms: C_5  and  C_23 
REMARK    5  A    between atoms: C_5  and  N_15 
REMARK    6  A    between atoms: N_7  and  C_8 
REMARK    7  A    between atoms: C_8  and  C_9 
REMARK    8  A    between atoms: C_9  and  C_23 
REMARK    9  A    between atoms: C_17  and  C_18 
REMARK   10  A    between atoms: C_18  and  N_21 
REMARK       I    between atoms: C_20  and  N_21 
ROOT
HETATM    1  C           1     -34.353  -2.421 -11.899  0.00  0.00     0.274 C 
ENDROOT
BRANCH   1   2
HETATM    2  C           1     -35.393  -1.707 -12.728  0.00  0.00     0.249 C 
HETATM    3  O           1     -36.514  -1.566 -12.299  0.00  0.00    -0.271 OA
HETATM    4  N           1     -35.067  -1.221 -13.965  0.00  0.00    -0.343 N 
HETATM    5  H           1     -34.129  -1.340 -14.324  0.00  0.00     0.163 HD
BRANCH   4   6
HETATM    6  C           1     -36.066  -0.536 -14.761  0.00  0.00     0.214 C 
BRANCH   6   7
HETATM    7  C           1     -35.886   0.969 -14.615  0.00  0.00     0.147 C 
HETATM    8  C           1     -34.516   1.260 -14.017  0.00  0.00     0.042 C 
BRANCH   7   9
HETATM    9  O           1     -35.985   1.576 -15.875  0.00  0.00    -0.393 OA
HETATM   10  H           1     -35.555   1.005 -16.488  0.00  0.00     0.210 HD
ENDBRANCH   7   9
ENDBRANCH   6   7
BRANCH   6  11
HETATM   11  C           1     -35.906  -0.923 -16.211  0.00  0.00     0.199 C 
HETATM   12  O           1     -34.822  -1.393 -16.616  0.00  0.00    -0.646 OA
HETATM   13  O           1     -36.859  -0.774 -17.006  0.00  0.00    -0.646 OA
ENDBRANCH   6  11
ENDBRANCH   4   6
ENDBRANCH   1   2
BRANCH   1  14
HETATM   14  C           1     -34.998  -3.597 -11.176  0.00  0.00     0.044 C 
BRANCH  14  15
HETATM   15  C           1     -33.912  -4.506 -10.617  0.00  0.00     0.030 C 
BRANCH  15  16
HETATM   16  C           1     -34.200  -5.948 -11.014  0.00  0.00     0.248 C 
BRANCH  16  17
HETATM   17  N           1     -34.780  -5.980 -12.397  0.00  0.00    -0.079 N 
HETATM   18  H           1     -34.076  -6.374 -13.061  0.00  0.00     0.274 HD
HETATM   19  H           1     -35.032  -5.009 -12.692  0.00  0.00     0.274 HD
HETATM   20  H           1     -35.638  -6.578 -12.402  0.00  0.00     0.274 HD
ENDBRANCH  16  17
ENDBRANCH  15  16
ENDBRANCH  14  15
ENDBRANCH   1  14
BRANCH   1  21
HETATM   21  N           1     -33.778  -1.470 -10.892  0.00  0.00    -0.067 N 
HETATM   22  H           1     -34.481  -1.292 -10.138  0.00  0.00     0.275 HD
HETATM   23  H           1     -32.916  -1.886 -10.474  0.00  0.00     0.275 HD
HETATM   24  H           1     -33.538  -0.567 -11.362  0.00  0.00     0.257 HD
ENDBRANCH   1  21
TORSDOF 10
ENDMDL
MODEL 3
REMARK VINA RESULT:      -6.0     11.122     13.009
REMARK  10 active torsions:
REMARK  status: ('A' for Active; 'I' for Inactive)
REMARK    1  A    between atoms: C_4  and  O_12 
REMARK    2  A    between atoms: C_4  and  C_18 
REMARK    3  A    between atoms: C_5  and  C_20 
REMARK    4  A    between atoms: C_5  and  C_23 
REMARK    5  A    between atoms: C_5  and  N_15 
REMARK    6  A    between atoms: N_7  and  C_8 
REMARK    7  A    between atoms: C_8  and  C_9 
REMARK    8  A    between atoms: C_9  and  C_23 
REMARK    9  A    between atoms: C_17  and  C_18 
REMARK   10  A    between atoms: C_18  and  N_21 
REMARK       I    between atoms: C_20  and  N_21 
ROOT
HETATM    1  C           1     -25.063  -6.859 -19.708  0.00  0.00     0.274 C 
ENDROOT
BRANCH   1   2
HETATM    2  C           1     -26.468  -6.360 -19.476  0.00  0.00     0.249 C 
HETATM    3  O           1     -27.156  -6.035 -20.415  0.00  0.00    -0.271 OA
HETATM    4  N           1     -26.963  -6.275 -18.202  0.00  0.00    -0.343 N 
HETATM    5  H           1     -26.387  -6.546 -17.417  0.00  0.00     0.163 HD
BRANCH   4   6
HETATM    6  C           1     -28.313  -5.795 -17.980  0.00  0.00     0.214 C 
BRANCH   6   7
HETATM    7  C           1     -29.151  -6.907 -17.365  0.00  0.00     0.147 C 
HETATM    8  C           1     -29.801  -7.725 -18.473  0.00  0.00     0.042 C 
BRANCH   7   9
HETATM    9  O           1     -28.329  -7.738 -16.590  0.00  0.00    -0.393 OA
HETATM   10  H           1     -28.295  -7.362 -15.727  0.00  0.00     0.210 HD
ENDBRANCH   7   9
ENDBRANCH   6   7
BRANCH   6  11
HETATM   11  C           1     -28.278  -4.613 -17.043  0.00  0.00     0.199 C 
HETATM   12  O           1     -28.675  -3.494 -17.432  0.00  0.00    -0.646 OA
HETATM   13  O           1     -27.853  -4.754 -15.875  0.00  0.00    -0.646 OA
ENDBRANCH   6  11
ENDBRANCH   4   6
ENDBRANCH   1   2
BRANCH   1  14
HETATM   14  C           1     -25.074  -7.919 -20.802  0.00  0.00     0.044 C 
BRANCH  14  15
HETATM   15  C           1     -24.323  -7.399 -22.020  0.00  0.00     0.030 C 
BRANCH  15  16
HETATM   16  C           1     -23.214  -8.377 -22.390  0.00  0.00     0.248 C 
BRANCH  16  17
HETATM   17  N           1     -22.667  -9.008 -21.145  0.00  0.00    -0.079 N 
HETATM   18  H           1     -23.367  -8.922 -20.374  0.00  0.00     0.274 HD
HETATM   19  H           1     -21.783  -8.525 -20.868  0.00  0.00     0.274 HD
HETATM   20  H           1     -22.468 -10.019 -21.324  0.00  0.00     0.274 HD
ENDBRANCH  16  17
ENDBRANCH  15  16
ENDBRANCH  14  15
ENDBRANCH   1  14
BRANCH   1  21
HETATM   21  N           1     -24.530  -7.456 -18.439  0.00  0.00    -0.067 N 
HETATM   22  H           1     -23.518  -7.690 -18.561  0.00  0.00     0.275 HD
HETATM   23  H           1     -24.637  -6.769 -17.660  0.00  0.00     0.275 HD
HETATM   24  H           1     -25.063  -8.327 -18.213  0.00  0.00     0.257 HD
ENDBRANCH   1  21
TORSDOF 10
ENDMDL
MODEL 4
REMARK VINA RESULT:      -5.8     10.148     12.812
REMARK  10 active torsions:
REMARK  status: ('A' for Active; 'I' for Inactive)
REMARK    1  A    between atoms: C_4  and  O_12 
REMARK    2  A    between atoms: C_4  and  C_18 
REMARK    3  A    between atoms: C_5  and  C_20 
REMARK    4  A    between atoms: C_5  and  C_23 
REMARK    5  A    between atoms: C_5  and  N_15 
REMARK    6  A    between atoms: N_7  and  C_8 
REMARK    7  A    between atoms: C_8  and  C_9 
REMARK    8  A    between atoms: C_9  and  C_23 
REMARK    9  A    between atoms: C_17  and  C_18 
REMARK   10  A    between atoms: C_18  and  N_21 
REMARK       I    between atoms: C_20  and  N_21 
ROOT
HETATM    1  C           1     -25.336  -7.605 -20.310  0.00  0.00     0.274 C 
ENDROOT
BRANCH   1   2
HETATM    2  C           1     -25.306  -6.872 -18.991  0.00  0.00     0.249 C 
HETATM    3  O           1     -24.254  -6.488 -18.538  0.00  0.00    -0.271 OA
HETATM    4  N           1     -26.471  -6.643 -18.308  0.00  0.00    -0.343 N 
HETATM    5  H           1     -27.351  -6.966 -18.688  0.00  0.00     0.163 HD
BRANCH   4   6
HETATM    6  C           1     -26.441  -5.939 -17.041  0.00  0.00     0.214 C 
BRANCH   6   7
HETATM    7  C           1     -27.606  -4.961 -16.978  0.00  0.00     0.147 C 
HETATM    8  C           1     -28.771  -5.505 -17.795  0.00  0.00     0.042 C 
BRANCH   7   9
HETATM    9  O           1     -28.007  -4.797 -15.644  0.00  0.00    -0.393 OA
HETATM   10  H           1     -28.535  -4.018 -15.611  0.00  0.00     0.210 HD
ENDBRANCH   7   9
ENDBRANCH   6   7
BRANCH   6  11
HETATM   11  C           1     -26.556  -6.932 -15.912  0.00  0.00     0.199 C 
HETATM   12  O           1     -25.550  -7.226 -15.232  0.00  0.00    -0.646 OA
HETATM   13  O           1     -27.660  -7.462 -15.655  0.00  0.00    -0.646 OA
ENDBRANCH   6  11
ENDBRANCH   4   6
ENDBRANCH   1   2
BRANCH   1  14
HETATM   14  C           1     -24.721  -6.729 -21.393  0.00  0.00     0.044 C 
BRANCH  14  15
HETATM   15  C           1     -24.099  -7.611 -22.467  0.00  0.00     0.030 C 
BRANCH  15  16
HETATM   16  C           1     -22.937  -8.396 -21.872  0.00  0.00     0.248 C 
BRANCH  16  17
HETATM   17  N           1     -22.597  -9.546 -22.772  0.00  0.00    -0.079 N 
HETATM   18  H           1     -23.384  -9.712 -23.438  0.00  0.00     0.274 HD
HETATM   19  H           1     -22.439 -10.404 -22.197  0.00  0.00     0.274 HD
HETATM   20  H           1     -21.727  -9.324 -23.308  0.00  0.00     0.274 HD
ENDBRANCH  16  17
ENDBRANCH  15  16
ENDBRANCH  14  15
ENDBRANCH   1  14
BRANCH   1  21
HETATM   21  N           1     -26.757  -7.923 -20.672  0.00  0.00    -0.067 N 
HETATM   22  H           1     -26.926  -7.676 -21.673  0.00  0.00     0.275 HD
HETATM   23  H           1     -26.931  -8.944 -20.530  0.00  0.00     0.275 HD
HETATM   24  H           1     -27.403  -7.371 -20.064  0.00  0.00     0.257 HD
ENDBRANCH   1  21
TORSDOF 10
ENDMDL
MODEL 5
REMARK VINA RESULT:      -5.4     10.975     12.711
REMARK  10 active torsions:
REMARK  status: ('A' for Active; 'I' for Inactive)
REMARK    1  A    between atoms: C_4  and  O_12 
REMARK    2  A    between atoms: C_4  and  C_18 
REMARK    3  A    between atoms: C_5  and  C_20 
REMARK    4  A    between atoms: C_5  and  C_23 
REMARK    5  A    between atoms: C_5  and  N_15 
REMARK    6  A    between atoms: N_7  and  C_8 
REMARK    7  A    between atoms: C_8  and  C_9 
REMARK    8  A    between atoms: C_9  and  C_23 
REMARK    9  A    between atoms: C_17  and  C_18 
REMARK   10  A    between atoms: C_18  and  N_21 
REMARK       I    between atoms: C_20  and  N_21 
ROOT
HETATM    1  C           1     -25.081  -6.635 -18.871  0.00  0.00     0.274 C 
ENDROOT
BRANCH   1   2
HETATM    2  C           1     -26.208  -6.429 -17.888  0.00  0.00     0.249 C 
HETATM    3  O           1     -25.970  -6.337 -16.707  0.00  0.00    -0.271 OA
HETATM    4  N           1     -27.499  -6.347 -18.335  0.00  0.00    -0.343 N 
HETATM    5  H           1     -27.698  -6.425 -19.324  0.00  0.00     0.163 HD
BRANCH   4   6
HETATM    6  C           1     -28.582  -6.149 -17.391  0.00  0.00     0.214 C 
BRANCH   6   7
HETATM    7  C           1     -29.231  -4.795 -17.641  0.00  0.00     0.147 C 
HETATM    8  C           1     -28.437  -3.711 -16.924  0.00  0.00     0.042 C 
BRANCH   7   9
HETATM    9  O           1     -29.244  -4.531 -19.019  0.00  0.00    -0.393 OA
HETATM   10  H           1     -30.065  -4.852 -19.351  0.00  0.00     0.210 HD
ENDBRANCH   7   9
ENDBRANCH   6   7
BRANCH   6  11
HETATM   11  C           1     -29.609  -7.240 -17.568  0.00  0.00     0.199 C 
HETATM   12  O           1     -29.505  -8.307 -16.926  0.00  0.00    -0.646 OA
HETATM   13  O           1     -30.565  -7.077 -18.358  0.00  0.00    -0.646 OA
ENDBRANCH   6  11
ENDBRANCH   4   6
ENDBRANCH   1   2
BRANCH   1  14
HETATM   14  C           1     -25.628  -7.264 -20.146  0.00  0.00     0.044 C 
BRANCH  14  15
HETATM   15  C           1     -24.820  -6.773 -21.340  0.00  0.00     0.030 C 
BRANCH  15  16
HETATM   16  C           1     -24.254  -7.968 -22.098  0.00  0.00     0.248 C 
BRANCH  16  17
HETATM   17  N           1     -23.295  -8.710 -21.216  0.00  0.00    -0.079 N 
HETATM   18  H           1     -22.333  -8.654 -21.622  0.00  0.00     0.274 HD
HETATM   19  H           1     -23.587  -9.712 -21.149  0.00  0.00     0.274 HD
HETATM   20  H           1     -23.297  -8.284 -20.262  0.00  0.00     0.274 HD
ENDBRANCH  16  17
ENDBRANCH  15  16
ENDBRANCH  14  15
ENDBRANCH   1  14
BRANCH   1  21
HETATM   21  N           1     -24.052  -7.544 -18.267  0.00  0.00    -0.067 N 
HETATM   22  H           1     -23.795  -7.198 -17.315  0.00  0.00     0.275 HD
HETATM   23  H           1     -24.443  -8.510 -18.193  0.00  0.00     0.275 HD
HETATM   24  H           1     -23.201  -7.558 -18.874  0.00  0.00     0.257 HD
ENDBRANCH   1  21
TORSDOF 10
ENDMDL
MODEL 6
REMARK VINA RESULT:      -5.4      1.551      2.089
REMARK  10 active torsions:
REMARK  status: ('A' for Active; 'I' for Inactive)
REMARK    1  A    between atoms: C_4  and  O_12 
REMARK    2  A    between atoms: C_4  and  C_18 
REMARK    3  A    between atoms: C_5  and  C_20 
REMARK    4  A    between atoms: C_5  and  C_23 
REMARK    5  A    between atoms: C_5  and  N_15 
REMARK    6  A    between atoms: N_7  and  C_8 
REMARK    7  A    between atoms: C_8  and  C_9 
REMARK    8  A    between atoms: C_9  and  C_23 
REMARK    9  A    between atoms: C_17  and  C_18 
REMARK   10  A    between atoms: C_18  and  N_21 
REMARK       I    between atoms: C_20  and  N_21 
ROOT
HETATM    1  C           1     -21.614  -5.112  -6.359  0.00  0.00     0.274 C 
ENDROOT
BRANCH   1   2
HETATM    2  C           1     -21.911  -4.132  -7.467  0.00  0.00     0.249 C 
HETATM    3  O           1     -21.728  -2.951  -7.294  0.00  0.00    -0.271 OA
HETATM    4  N           1     -22.390  -4.582  -8.669  0.00  0.00    -0.343 N 
HETATM    5  H           1     -22.544  -5.571  -8.814  0.00  0.00     0.163 HD
BRANCH   4   6
HETATM    6  C           1     -22.675  -3.640  -9.733  0.00  0.00     0.214 C 
BRANCH   6   7
HETATM    7  C           1     -21.712  -3.874 -10.889  0.00  0.00     0.147 C 
HETATM    8  C           1     -20.537  -4.715 -10.408  0.00  0.00     0.042 C 
BRANCH   7   9
HETATM    9  O           1     -22.379  -4.549 -11.922  0.00  0.00    -0.393 OA
HETATM   10  H           1     -21.806  -5.237 -12.214  0.00  0.00     0.210 HD
ENDBRANCH   7   9
ENDBRANCH   6   7
BRANCH   6  11
HETATM   11  C           1     -24.092  -3.836 -10.211  0.00  0.00     0.199 C 
HETATM   12  O           1     -24.668  -2.929 -10.850  0.00  0.00    -0.646 OA
HETATM   13  O           1     -24.692  -4.906  -9.968  0.00  0.00    -0.646 OA
ENDBRANCH   6  11
ENDBRANCH   4   6
ENDBRANCH   1   2
BRANCH   1  14
HETATM   14  C           1     -20.865  -6.311  -6.927  0.00  0.00     0.044 C 
BRANCH  14  15
HETATM   15  C           1     -20.062  -6.979  -5.820  0.00  0.00     0.030 C 
BRANCH  15  16
HETATM   16  C           1     -20.835  -8.178  -5.283  0.00  0.00     0.248 C 
BRANCH  16  17
HETATM   17  N           1     -20.084  -9.438  -5.598  0.00  0.00    -0.079 N 
HETATM   18  H           1     -19.108  -9.200  -5.886  0.00  0.00     0.274 HD
HETATM   19  H           1     -20.564  -9.945  -6.375  0.00  0.00     0.274 HD
HETATM   20  H           1     -20.058 -10.049  -4.749  0.00  0.00     0.274 HD
ENDBRANCH  16  17
ENDBRANCH  15  16
ENDBRANCH  14  15
ENDBRANCH   1  14
BRANCH   1  21
HETATM   21  N           1     -22.901  -5.574  -5.743  0.00  0.00    -0.067 N 
HETATM   22  H           1     -22.980  -6.613  -5.835  0.00  0.00     0.275 HD
HETATM   23  H           1     -22.917  -5.311  -4.732  0.00  0.00     0.275 HD
HETATM   24  H           1     -23.705  -5.121  -6.234  0.00  0.00     0.257 HD
ENDBRANCH   1  21
TORSDOF 10
ENDMDL
MODEL 7
REMARK VINA RESULT:      -5.3     10.189     12.397
REMARK  10 active torsions:
REMARK  status: ('A' for Active; 'I' for Inactive)
REMARK    1  A    between atoms: C_4  and  O_12 
REMARK    2  A    between atoms: C_4  and  C_18 
REMARK    3  A    between atoms: C_5  and  C_20 
REMARK    4  A    between atoms: C_5  and  C_23 
REMARK    5  A    between atoms: C_5  and  N_15 
REMARK    6  A    between atoms: N_7  and  C_8 
REMARK    7  A    between atoms: C_8  and  C_9 
REMARK    8  A    between atoms: C_9  and  C_23 
REMARK    9  A    between atoms: C_17  and  C_18 
REMARK   10  A    between atoms: C_18  and  N_21 
REMARK       I    between atoms: C_20  and  N_21 
ROOT
HETATM    1  C           1     -29.977  -6.873 -18.519  0.00  0.00     0.274 C 
ENDROOT
BRANCH   1   2
HETATM    2  C           1     -28.642  -6.194 -18.340  0.00  0.00     0.249 C 
HETATM    3  O           1     -28.524  -5.018 -18.592  0.00  0.00    -0.271 OA
HETATM    4  N           1     -27.564  -6.910 -17.892  0.00  0.00    -0.343 N 
HETATM    5  H           1     -27.662  -7.894 -17.682  0.00  0.00     0.163 HD
BRANCH   4   6
HETATM    6  C           1     -26.281  -6.256 -17.720  0.00  0.00     0.214 C 
BRANCH   6   7
HETATM    7  C           1     -25.690  -6.647 -16.372  0.00  0.00     0.147 C 
HETATM    8  C           1     -26.813  -6.819 -15.357  0.00  0.00     0.042 C 
BRANCH   7   9
HETATM    9  O           1     -24.989  -7.854 -16.502  0.00  0.00    -0.393 OA
HETATM   10  H           1     -24.769  -8.138 -15.631  0.00  0.00     0.210 HD
ENDBRANCH   7   9
ENDBRANCH   6   7
BRANCH   6  11
HETATM   11  C           1     -25.346  -6.686 -18.823  0.00  0.00     0.199 C 
HETATM   12  O           1     -24.112  -6.539 -18.689  0.00  0.00    -0.646 OA
HETATM   13  O           1     -25.805  -7.191 -19.870  0.00  0.00    -0.646 OA
ENDBRANCH   6  11
ENDBRANCH   4   6
ENDBRANCH   1   2
BRANCH   1  14
HETATM   14  C           1     -30.805  -6.711 -17.252  0.00  0.00     0.044 C 
BRANCH  14  15
HETATM   15  C           1     -30.508  -5.357 -16.621  0.00  0.00     0.030 C 
BRANCH  15  16
HETATM   16  C           1     -31.607  -4.370 -16.992  0.00  0.00     0.248 C 
BRANCH  16  17
HETATM   17  N           1     -31.005  -3.198 -17.709  0.00  0.00    -0.079 N 
HETATM   18  H           1     -30.088  -2.953 -17.269  0.00  0.00     0.274 HD
HETATM   19  H           1     -31.651  -2.379 -17.645  0.00  0.00     0.274 HD
HETATM   20  H           1     -30.855  -3.443 -18.714  0.00  0.00     0.274 HD
ENDBRANCH  16  17
ENDBRANCH  15  16
ENDBRANCH  14  15
ENDBRANCH   1  14
BRANCH   1  21
HETATM   21  N           1     -29.761  -8.333 -18.792  0.00  0.00    -0.067 N 
HETATM   22  H           1     -29.620  -8.480 -19.817  0.00  0.00     0.275 HD
HETATM   23  H           1     -28.917  -8.662 -18.272  0.00  0.00     0.275 HD
HETATM   24  H           1     -30.599  -8.873 -18.476  0.00  0.00     0.257 HD
ENDBRANCH   1  21
TORSDOF 10
ENDMDL
MODEL 8
REMARK VINA RESULT:      -5.3      3.150      6.476
REMARK  10 active torsions:
REMARK  status: ('A' for Active; 'I' for Inactive)
REMARK    1  A    between atoms: C_4  and  O_12 
REMARK    2  A    between atoms: C_4  and  C_18 
REMARK    3  A    between atoms: C_5  and  C_20 
REMARK    4  A    between atoms: C_5  and  C_23 
REMARK    5  A    between atoms: C_5  and  N_15 
REMARK    6  A    between atoms: N_7  and  C_8 
REMARK    7  A    between atoms: C_8  and  C_9 
REMARK    8  A    between atoms: C_9  and  C_23 
REMARK    9  A    between atoms: C_17  and  C_18 
REMARK   10  A    between atoms: C_18  and  N_21 
REMARK       I    between atoms: C_20  and  N_21 
ROOT
HETATM    1  C           1     -20.562  -4.540  -6.593  0.00  0.00     0.274 C 
ENDROOT
BRANCH   1   2
HETATM    2  C           1     -21.364  -5.516  -5.768  0.00  0.00     0.249 C 
HETATM    3  O           1     -22.571  -5.507  -5.826  0.00  0.00    -0.271 OA
HETATM    4  N           1     -20.724  -6.411  -4.952  0.00  0.00    -0.343 N 
HETATM    5  H           1     -19.714  -6.417  -4.903  0.00  0.00     0.163 HD
BRANCH   4   6
HETATM    6  C           1     -21.495  -7.348  -4.159  0.00  0.00     0.214 C 
BRANCH   6   7
HETATM    7  C           1     -20.834  -8.719  -4.211  0.00  0.00     0.147 C 
HETATM    8  C           1     -21.888  -9.799  -4.002  0.00  0.00     0.042 C 
BRANCH   7   9
HETATM    9  O           1     -20.224  -8.896  -5.461  0.00  0.00    -0.393 OA
HETATM   10  H           1     -20.773  -8.470  -6.096  0.00  0.00     0.210 HD
ENDBRANCH   7   9
ENDBRANCH   6   7
BRANCH   6  11
HETATM   11  C           1     -21.551  -6.870  -2.730  0.00  0.00     0.199 C 
HETATM   12  O           1     -22.375  -5.992  -2.396  0.00  0.00    -0.646 OA
HETATM   13  O           1     -20.773  -7.353  -1.878  0.00  0.00    -0.646 OA
ENDBRANCH   6  11
ENDBRANCH   4   6
ENDBRANCH   1   2
BRANCH   1  14
HETATM   14  C           1     -21.508  -3.623  -7.358  0.00  0.00     0.044 C 
BRANCH  14  15
HETATM   15  C           1     -21.525  -4.021  -8.827  0.00  0.00     0.030 C 
BRANCH  15  16
HETATM   16  C           1     -22.944  -4.394  -9.238  0.00  0.00     0.248 C 
BRANCH  16  17
HETATM   17  N           1     -23.896  -4.022  -8.141  0.00  0.00    -0.079 N 
HETATM   18  H           1     -24.877  -4.197  -8.456  0.00  0.00     0.274 HD
HETATM   19  H           1     -23.780  -3.010  -7.906  0.00  0.00     0.274 HD
HETATM   20  H           1     -23.694  -4.600  -7.292  0.00  0.00     0.274 HD
ENDBRANCH  16  17
ENDBRANCH  15  16
ENDBRANCH  14  15
ENDBRANCH   1  14
BRANCH   1  21
HETATM   21  N           1     -19.705  -5.295  -7.565  0.00  0.00    -0.067 N 
HETATM   22  H           1     -20.250  -5.487  -8.436  0.00  0.00     0.275 HD
HETATM   23  H           1     -18.861  -4.724  -7.800  0.00  0.00     0.275 HD
HETATM   24  H           1     -19.405  -6.200  -7.136  0.00  0.00     0.257 HD
ENDBRANCH   1  21
TORSDOF 10
ENDMDL
MODEL 9
REMARK VINA RESULT:      -5.3     12.826     14.701
REMARK  10 active torsions:
REMARK  status: ('A' for Active; 'I' for Inactive)
REMARK    1  A    between atoms: C_4  and  O_12 
REMARK    2  A    between atoms: C_4  and  C_18 
REMARK    3  A    between atoms: C_5  and  C_20 
REMARK    4  A    between atoms: C_5  and  C_23 
REMARK    5  A    between atoms: C_5  and  N_15 
REMARK    6  A    between atoms: N_7  and  C_8 
REMARK    7  A    between atoms: C_8  and  C_9 
REMARK    8  A    between atoms: C_9  and  C_23 
REMARK    9  A    between atoms: C_17  and  C_18 
REMARK   10  A    between atoms: C_18  and  N_21 
REMARK       I    between atoms: C_20  and  N_21 
ROOT
HETATM    1  C           1     -34.160  -2.649 -11.835  0.00  0.00     0.274 C 
ENDROOT
BRANCH   1   2
HETATM    2  C           1     -34.778  -2.121 -13.106  0.00  0.00     0.249 C 
HETATM    3  O           1     -34.779  -2.801 -14.105  0.00  0.00    -0.271 OA
HETATM    4  N           1     -35.336  -0.871 -13.128  0.00  0.00    -0.343 N 
HETATM    5  H           1     -35.334  -0.302 -12.292  0.00  0.00     0.163 HD
BRANCH   4   6
HETATM    6  C           1     -35.929  -0.363 -14.349  0.00  0.00     0.214 C 
BRANCH   6   7
HETATM    7  C           1     -37.441  -0.282 -14.183  0.00  0.00     0.147 C 
HETATM    8  C           1     -37.780  -0.110 -12.708  0.00  0.00     0.042 C 
BRANCH   7   9
HETATM    9  O           1     -37.931   0.815 -14.907  0.00  0.00    -0.393 OA
HETATM   10  H           1     -38.690   0.514 -15.377  0.00  0.00     0.210 HD
ENDBRANCH   7   9
ENDBRANCH   6   7
BRANCH   6  11
HETATM   11  C           1     -35.380   1.011 -14.642  0.00  0.00     0.199 C 
HETATM   12  O           1     -35.592   1.546 -15.751  0.00  0.00    -0.646 OA
HETATM   13  O           1     -34.713   1.615 -13.773  0.00  0.00    -0.646 OA
ENDBRANCH   6  11
ENDBRANCH   4   6
ENDBRANCH   1   2
BRANCH   1  14
HETATM   14  C           1     -34.921  -3.886 -11.375  0.00  0.00     0.044 C 
BRANCH  14  15
HETATM   15  C           1     -34.094  -4.635 -10.339  0.00  0.00     0.030 C 
BRANCH  15  16
HETATM   16  C           1     -34.375  -6.129 -10.447  0.00  0.00     0.248 C 
BRANCH  16  17
HETATM   17  N           1     -33.217  -6.809 -11.114  0.00  0.00    -0.079 N 
HETATM   18  H           1     -33.098  -7.768 -10.717  0.00  0.00     0.274 HD
HETATM   19  H           1     -32.346  -6.254 -10.952  0.00  0.00     0.274 HD
HETATM   20  H           1     -33.398  -6.877 -12.142  0.00  0.00     0.274 HD
ENDBRANCH  16  17
ENDBRANCH  15  16
ENDBRANCH  14  15
ENDBRANCH   1  14
BRANCH   1  21
HETATM   21  N           1     -34.230  -1.595 -10.770  0.00  0.00    -0.067 N 
HETATM   22  H           1     -35.059  -0.981 -10.940  0.00  0.00     0.275 HD
HETATM   23  H           1     -34.320  -2.052  -9.835  0.00  0.00     0.275 HD
HETATM   24  H           1     -33.359  -1.017 -10.794  0.00  0.00     0.257 HD
ENDBRANCH   1  21
TORSDOF 10
ENDMDL
