MODEL 1
REMARK VINA RESULT:      -6.5      0.000      0.000
REMARK  12 active torsions:
REMARK  status: ('A' for Active; 'I' for Inactive)
REMARK    1  A    between atoms: N_1  and  C_11 
REMARK    2  A    between atoms: C_2  and  C_3 
REMARK    3  A    between atoms: C_2  and  C_14 
REMARK    4  A    between atoms: C_3  and  C_4 
REMARK    5  A    between atoms: C_4  and  C_11 
REMARK    6  A    between atoms: N_5  and  C_20 
REMARK    7  A    between atoms: N_6  and  C_14 
REMARK       I    between atoms: N_6  and  C_19 
REMARK    8  A    between atoms: C_13  and  C_14 
REMARK    9  A    between atoms: C_19  and  C_20 
REMARK   10  A    between atoms: C_20  and  C_21 
REMARK   11  A    between atoms: C_21  and  C_23 
REMARK   12  A    between atoms: C_23  and  C_24 
ROOT
HETATM    1  N           1     -34.968  -2.079 -13.190  0.00  0.00    -0.345 N 
HETATM    2  O           1     -34.120  -0.964 -11.451  0.00  0.00    -0.271 OA
HETATM    3  C           1     -34.811  -0.944 -12.441  0.00  0.00     0.249 C 
HETATM    4  H           1     -35.547  -2.062 -14.020  0.00  0.00     0.163 HD
ENDROOT
BRANCH   1   5
HETATM    5  C           1     -34.304  -3.306 -12.794  0.00  0.00     0.185 C 
BRANCH   5   6
HETATM    6  C           1     -35.054  -3.935 -11.627  0.00  0.00     0.036 C 
BRANCH   6   7
HETATM    7  C           1     -34.056  -4.440 -10.594  0.00  0.00     0.004 C 
BRANCH   7   8
HETATM    8  C           1     -33.727  -5.900 -10.877  0.00  0.00     0.027 C 
BRANCH   8   9
HETATM    9  C           1     -34.727  -6.795 -10.156  0.00  0.00     0.229 C 
BRANCH   9  10
HETATM   10  N           1     -34.323  -8.231 -10.321  0.00  0.00    -0.079 N 
HETATM   11  H           1     -35.040  -8.848  -9.878  0.00  0.00     0.274 HD
HETATM   12  H           1     -34.251  -8.457 -11.339  0.00  0.00     0.274 HD
HETATM   13  H           1     -33.397  -8.387  -9.863  0.00  0.00     0.274 HD
ENDBRANCH   9  10
ENDBRANCH   8   9
ENDBRANCH   7   8
ENDBRANCH   6   7
ENDBRANCH   5   6
BRANCH   5  14
HETATM   14  C           1     -34.287  -4.267 -13.958  0.00  0.00     0.196 C 
HETATM   15  O           1     -35.017  -5.281 -13.943  0.00  0.00    -0.646 OA
HETATM   16  O           1     -33.542  -4.048 -14.938  0.00  0.00    -0.646 OA
ENDBRANCH   5  14
ENDBRANCH   1   5
BRANCH   3  17
HETATM   17  C           1     -35.502   0.332 -12.853  0.00  0.00     0.275 C 
BRANCH  17  18
HETATM   18  N           1     -34.507   1.253 -13.497  0.00  0.00    -0.066 N 
HETATM   19  H           1     -34.029   0.755 -14.281  0.00  0.00     0.275 HD
HETATM   20  H           1     -35.002   2.094 -13.869  0.00  0.00     0.275 HD
HETATM   21  H           1     -33.798   1.548 -12.789  0.00  0.00     0.275 HD
ENDBRANCH  17  18
BRANCH  17  22
HETATM   22  C           1     -36.612   0.012 -13.845  0.00  0.00     0.053 C 
BRANCH  22  23
HETATM   23  C           1     -36.250   0.576 -15.213  0.00  0.00     0.115 C 
BRANCH  23  24
HETATM   24  C           1     -36.060  -0.557 -16.191  0.00  0.00     0.172 C 
HETATM   25  O           1     -35.033  -1.267 -16.134  0.00  0.00    -0.648 OA
HETATM   26  O           1     -36.929  -0.785 -17.060  0.00  0.00    -0.648 OA
ENDBRANCH  23  24
ENDBRANCH  22  23
ENDBRANCH  17  22
ENDBRANCH   3  17
TORSDOF 12
ENDMDL
MODEL 2
REMARK VINA RESULT:      -6.4      2.894      6.843
REMARK  12 active torsions:
REMARK  status: ('A' for Active; 'I' for Inactive)
REMARK    1  A    between atoms: N_1  and  C_11 
REMARK    2  A    between atoms: C_2  and  C_3 
REMARK    3  A    between atoms: C_2  and  C_14 
REMARK    4  A    between atoms: C_3  and  C_4 
REMARK    5  A    between atoms: C_4  and  C_11 
REMARK    6  A    between atoms: N_5  and  C_20 
REMARK    7  A    between atoms: N_6  and  C_14 
REMARK       I    between atoms: N_6  and  C_19 
REMARK    8  A    between atoms: C_13  and  C_14 
REMARK    9  A    between atoms: C_19  and  C_20 
REMARK   10  A    between atoms: C_20  and  C_21 
REMARK   11  A    between atoms: C_21  and  C_23 
REMARK   12  A    between atoms: C_23  and  C_24 
ROOT
HETATM    1  N           1     -35.335  -2.119 -12.225  0.00  0.00    -0.345 N 
HETATM    2  O           1     -33.551  -2.243 -10.888  0.00  0.00    -0.271 OA
HETATM    3  C           1     -34.280  -2.796 -11.676  0.00  0.00     0.249 C 
HETATM    4  H           1     -35.946  -2.583 -12.885  0.00  0.00     0.163 HD
ENDROOT
BRANCH   1   5
HETATM    5  C           1     -35.578  -0.737 -11.860  0.00  0.00     0.185 C 
BRANCH   5   6
HETATM    6  C           1     -36.115   0.020 -13.067  0.00  0.00     0.036 C 
BRANCH   6   7
HETATM    7  C           1     -34.959   0.665 -13.819  0.00  0.00     0.004 C 
BRANCH   7   8
HETATM    8  C           1     -35.297   0.745 -15.302  0.00  0.00     0.027 C 
BRANCH   8   9
HETATM    9  C           1     -36.413  -0.241 -15.622  0.00  0.00     0.229 C 
BRANCH   9  10
HETATM   10  N           1     -36.318  -0.657 -17.060  0.00  0.00    -0.079 N 
HETATM   11  H           1     -36.735   0.086 -17.666  0.00  0.00     0.274 HD
HETATM   12  H           1     -35.313  -0.792 -17.317  0.00  0.00     0.274 HD
HETATM   13  H           1     -36.837  -1.553 -17.199  0.00  0.00     0.274 HD
ENDBRANCH   9  10
ENDBRANCH   8   9
ENDBRANCH   7   8
ENDBRANCH   6   7
ENDBRANCH   5   6
BRANCH   5  14
HETATM   14  C           1     -36.588  -0.682 -10.741  0.00  0.00     0.196 C 
HETATM   15  O           1     -37.773  -1.019 -10.951  0.00  0.00    -0.646 OA
HETATM   16  O           1     -36.240  -0.300  -9.602  0.00  0.00    -0.646 OA
ENDBRANCH   5  14
ENDBRANCH   1   5
BRANCH   3  17
HETATM   17  C           1     -34.027  -4.235 -12.056  0.00  0.00     0.275 C 
BRANCH  17  18
HETATM   18  N           1     -32.553  -4.453 -12.233  0.00  0.00    -0.066 N 
HETATM   19  H           1     -32.030  -3.665 -11.788  0.00  0.00     0.275 HD
HETATM   20  H           1     -32.278  -5.353 -11.779  0.00  0.00     0.275 HD
HETATM   21  H           1     -32.327  -4.490 -13.252  0.00  0.00     0.275 HD
ENDBRANCH  17  18
BRANCH  17  22
HETATM   22  C           1     -34.547  -5.149 -10.956  0.00  0.00     0.053 C 
BRANCH  22  23
HETATM   23  C           1     -33.678  -6.397 -10.879  0.00  0.00     0.115 C 
BRANCH  23  24
HETATM   24  C           1     -34.403  -7.470 -10.104  0.00  0.00     0.172 C 
HETATM   25  O           1     -33.947  -8.633 -10.070  0.00  0.00    -0.648 OA
HETATM   26  O           1     -35.462  -7.196  -9.499  0.00  0.00    -0.648 OA
ENDBRANCH  23  24
ENDBRANCH  22  23
ENDBRANCH  17  22
ENDBRANCH   3  17
TORSDOF 12
ENDMDL
MODEL 3
REMARK VINA RESULT:      -6.0      8.840     10.274
REMARK  12 active torsions:
REMARK  status: ('A' for Active; 'I' for Inactive)
REMARK    1  A    between atoms: N_1  and  C_11 
REMARK    2  A    between atoms: C_2  and  C_3 
REMARK    3  A    between atoms: C_2  and  C_14 
REMARK    4  A    between atoms: C_3  and  C_4 
REMARK    5  A    between atoms: C_4  and  C_11 
REMARK    6  A    between atoms: N_5  and  C_20 
REMARK    7  A    between atoms: N_6  and  C_14 
REMARK       I    between atoms: N_6  and  C_19 
REMARK    8  A    between atoms: C_13  and  C_14 
REMARK    9  A    between atoms: C_19  and  C_20 
REMARK   10  A    between atoms: C_20  and  C_21 
REMARK   11  A    between atoms: C_21  and  C_23 
REMARK   12  A    between atoms: C_23  and  C_24 
ROOT
HETATM    1  N           1     -26.926  -5.653 -17.508  0.00  0.00    -0.345 N 
HETATM    2  O           1     -28.641  -6.973 -16.955  0.00  0.00    -0.271 OA
HETATM    3  C           1     -28.238  -5.856 -17.173  0.00  0.00     0.249 C 
HETATM    4  H           1     -26.589  -4.717 -17.690  0.00  0.00     0.163 HD
ENDROOT
BRANCH   1   5
HETATM    5  C           1     -26.020  -6.781 -17.602  0.00  0.00     0.185 C 
BRANCH   5   6
HETATM    6  C           1     -25.141  -6.624 -18.835  0.00  0.00     0.036 C 
BRANCH   6   7
HETATM    7  C           1     -25.971  -6.870 -20.088  0.00  0.00     0.004 C 
BRANCH   7   8
HETATM    8  C           1     -25.191  -7.756 -21.050  0.00  0.00     0.027 C 
BRANCH   8   9
HETATM    9  C           1     -23.793  -7.999 -20.496  0.00  0.00     0.229 C 
BRANCH   9  10
HETATM   10  N           1     -23.091  -9.021 -21.340  0.00  0.00    -0.079 N 
HETATM   11  H           1     -22.118  -9.158 -20.985  0.00  0.00     0.274 HD
HETATM   12  H           1     -23.609  -9.927 -21.292  0.00  0.00     0.274 HD
HETATM   13  H           1     -23.056  -8.690 -22.331  0.00  0.00     0.274 HD
ENDBRANCH   9  10
ENDBRANCH   8   9
ENDBRANCH   7   8
ENDBRANCH   6   7
ENDBRANCH   5   6
BRANCH   5  14
HETATM   14  C           1     -25.153  -6.834 -16.368  0.00  0.00     0.196 C 
HETATM   15  O           1     -24.524  -7.877 -16.091  0.00  0.00    -0.646 OA
HETATM   16  O           1     -25.065  -5.834 -15.623  0.00  0.00    -0.646 OA
ENDBRANCH   5  14
ENDBRANCH   1   5
BRANCH   3  17
HETATM   17  C           1     -29.181  -4.682 -17.075  0.00  0.00     0.275 C 
BRANCH  17  18
HETATM   18  N           1     -29.619  -4.277 -18.452  0.00  0.00    -0.066 N 
HETATM   19  H           1     -30.595  -3.905 -18.411  0.00  0.00     0.275 HD
HETATM   20  H           1     -28.979  -3.536 -18.817  0.00  0.00     0.275 HD
HETATM   21  H           1     -29.589  -5.108 -19.084  0.00  0.00     0.275 HD
ENDBRANCH  17  18
BRANCH  17  22
HETATM   22  C           1     -30.399  -5.075 -16.251  0.00  0.00     0.053 C 
BRANCH  22  23
HETATM   23  C           1     -31.612  -5.197 -17.162  0.00  0.00     0.115 C 
BRANCH  23  24
HETATM   24  C           1     -32.533  -4.024 -16.936  0.00  0.00     0.172 C 
HETATM   25  O           1     -33.374  -4.057 -16.012  0.00  0.00    -0.648 OA
HETATM   26  O           1     -32.456  -3.018 -17.675  0.00  0.00    -0.648 OA
ENDBRANCH  23  24
ENDBRANCH  22  23
ENDBRANCH  17  22
ENDBRANCH   3  17
TORSDOF 12
ENDMDL
MODEL 4
REMARK VINA RESULT:      -6.0     14.155     15.823
REMARK  12 active torsions:
REMARK  status: ('A' for Active; 'I' for Inactive)
REMARK    1  A    between atoms: N_1  and  C_11 
REMARK    2  A    between atoms: C_2  and  C_3 
REMARK    3  A    between atoms: C_2  and  C_14 
REMARK    4  A    between atoms: C_3  and  C_4 
REMARK    5  A    between atoms: C_4  and  C_11 
REMARK    6  A    between atoms: N_5  and  C_20 
REMARK    7  A    between atoms: N_6  and  C_14 
REMARK       I    between atoms: N_6  and  C_19 
REMARK    8  A    between atoms: C_13  and  C_14 
REMARK    9  A    between atoms: C_19  and  C_20 
REMARK   10  A    between atoms: C_20  and  C_21 
REMARK   11  A    between atoms: C_21  and  C_23 
REMARK   12  A    between atoms: C_23  and  C_24 
ROOT
HETATM    1  N           1     -21.400  -6.529  -6.189  0.00  0.00    -0.345 N 
HETATM    2  O           1     -20.635  -4.438  -6.008  0.00  0.00    -0.271 OA
HETATM    3  C           1     -21.252  -5.250  -6.656  0.00  0.00     0.249 C 
HETATM    4  H           1     -21.916  -7.209  -6.731  0.00  0.00     0.163 HD
ENDROOT
BRANCH   1   5
HETATM    5  C           1     -20.816  -6.908  -4.917  0.00  0.00     0.185 C 
BRANCH   5   6
HETATM    6  C           1     -21.889  -6.879  -3.837  0.00  0.00     0.036 C 
BRANCH   6   7
HETATM    7  C           1     -21.234  -6.730  -2.471  0.00  0.00     0.004 C 
BRANCH   7   8
HETATM    8  C           1     -22.310  -6.597  -1.402  0.00  0.00     0.027 C 
BRANCH   8   9
HETATM    9  C           1     -22.119  -7.683  -0.350  0.00  0.00     0.229 C 
BRANCH   9  10
HETATM   10  N           1     -23.397  -7.874   0.410  0.00  0.00    -0.079 N 
HETATM   11  H           1     -23.422  -7.217   1.222  0.00  0.00     0.274 HD
HETATM   12  H           1     -24.209  -7.680  -0.219  0.00  0.00     0.274 HD
HETATM   13  H           1     -23.452  -8.859   0.757  0.00  0.00     0.274 HD
ENDBRANCH   9  10
ENDBRANCH   8   9
ENDBRANCH   7   8
ENDBRANCH   6   7
ENDBRANCH   5   6
BRANCH   5  14
HETATM   14  C           1     -20.243  -8.299  -5.021  0.00  0.00     0.196 C 
HETATM   15  O           1     -20.844  -9.176  -5.679  0.00  0.00    -0.646 OA
HETATM   16  O           1     -19.165  -8.576  -4.450  0.00  0.00    -0.646 OA
ENDBRANCH   5  14
ENDBRANCH   1   5
BRANCH   3  17
HETATM   17  C           1     -21.860  -4.856  -7.979  0.00  0.00     0.275 C 
BRANCH  17  18
HETATM   18  N           1     -23.096  -4.041  -7.737  0.00  0.00    -0.066 N 
HETATM   19  H           1     -23.390  -3.582  -8.629  0.00  0.00     0.275 HD
HETATM   20  H           1     -23.863  -4.664  -7.398  0.00  0.00     0.275 HD
HETATM   21  H           1     -22.895  -3.309  -7.020  0.00  0.00     0.275 HD
ENDBRANCH  17  18
BRANCH  17  22
HETATM   22  C           1     -20.856  -4.031  -8.773  0.00  0.00     0.053 C 
BRANCH  22  23
HETATM   23  C           1     -20.932  -4.417 -10.244  0.00  0.00     0.115 C 
BRANCH  23  24
HETATM   24  C           1     -21.885  -3.492 -10.960  0.00  0.00     0.172 C 
HETATM   25  O           1     -21.441  -2.537 -11.634  0.00  0.00    -0.648 OA
HETATM   26  O           1     -23.118  -3.679 -10.878  0.00  0.00    -0.648 OA
ENDBRANCH  23  24
ENDBRANCH  22  23
ENDBRANCH  17  22
ENDBRANCH   3  17
TORSDOF 12
ENDMDL
MODEL 5
REMARK VINA RESULT:      -5.8      8.895     10.465
REMARK  12 active torsions:
REMARK  status: ('A' for Active; 'I' for Inactive)
REMARK    1  A    between atoms: N_1  and  C_11 
REMARK    2  A    between atoms: C_2  and  C_3 
REMARK    3  A    between atoms: C_2  and  C_14 
REMARK    4  A    between atoms: C_3  and  C_4 
REMARK    5  A    between atoms: C_4  and  C_11 
REMARK    6  A    between atoms: N_5  and  C_20 
REMARK    7  A    between atoms: N_6  and  C_14 
REMARK       I    between atoms: N_6  and  C_19 
REMARK    8  A    between atoms: C_13  and  C_14 
REMARK    9  A    between atoms: C_19  and  C_20 
REMARK   10  A    between atoms: C_20  and  C_21 
REMARK   11  A    between atoms: C_21  and  C_23 
REMARK   12  A    between atoms: C_23  and  C_24 
ROOT
HETATM    1  N           1     -27.585  -6.300 -17.729  0.00  0.00    -0.345 N 
HETATM    2  O           1     -28.702  -7.821 -16.532  0.00  0.00    -0.271 OA
HETATM    3  C           1     -28.730  -6.787 -17.157  0.00  0.00     0.249 C 
HETATM    4  H           1     -27.610  -5.435 -18.252  0.00  0.00     0.163 HD
ENDROOT
BRANCH   1   5
HETATM    5  C           1     -26.338  -7.025 -17.583  0.00  0.00     0.185 C 
BRANCH   5   6
HETATM    6  C           1     -25.396  -6.647 -18.718  0.00  0.00     0.036 C 
BRANCH   6   7
HETATM    7  C           1     -26.158  -6.658 -20.037  0.00  0.00     0.004 C 
BRANCH   7   8
HETATM    8  C           1     -25.736  -7.870 -20.858  0.00  0.00     0.027 C 
BRANCH   8   9
HETATM    9  C           1     -24.501  -7.523 -21.678  0.00  0.00     0.229 C 
BRANCH   9  10
HETATM   10  N           1     -23.633  -8.739 -21.814  0.00  0.00    -0.079 N 
HETATM   11  H           1     -22.647  -8.445 -21.996  0.00  0.00     0.274 HD
HETATM   12  H           1     -23.672  -9.295 -20.930  0.00  0.00     0.274 HD
HETATM   13  H           1     -23.975  -9.323 -22.610  0.00  0.00     0.274 HD
ENDBRANCH   9  10
ENDBRANCH   8   9
ENDBRANCH   7   8
ENDBRANCH   6   7
ENDBRANCH   5   6
BRANCH   5  14
HETATM   14  C           1     -25.702  -6.672 -16.262  0.00  0.00     0.196 C 
HETATM   15  O           1     -25.401  -5.485 -16.010  0.00  0.00    -0.646 OA
HETATM   16  O           1     -25.476  -7.566 -15.417  0.00  0.00    -0.646 OA
ENDBRANCH   5  14
ENDBRANCH   1   5
BRANCH   3  17
HETATM   17  C           1     -30.028  -6.033 -17.309  0.00  0.00     0.275 C 
BRANCH  17  18
HETATM   18  N           1     -30.468  -5.522 -15.968  0.00  0.00    -0.066 N 
HETATM   19  H           1     -31.015  -4.641 -16.094  0.00  0.00     0.275 HD
HETATM   20  H           1     -31.067  -6.240 -15.502  0.00  0.00     0.275 HD
HETATM   21  H           1     -29.629  -5.329 -15.377  0.00  0.00     0.275 HD
ENDBRANCH  17  18
BRANCH  17  22
HETATM   22  C           1     -29.826  -4.859 -18.257  0.00  0.00     0.053 C 
BRANCH  22  23
HETATM   23  C           1     -30.308  -3.578 -17.591  0.00  0.00     0.115 C 
BRANCH  23  24
HETATM   24  C           1     -29.120  -2.749 -17.172  0.00  0.00     0.172 C 
HETATM   25  O           1     -28.085  -3.307 -16.748  0.00  0.00    -0.648 OA
HETATM   26  O           1     -29.171  -1.501 -17.247  0.00  0.00    -0.648 OA
ENDBRANCH  23  24
ENDBRANCH  22  23
ENDBRANCH  17  22
ENDBRANCH   3  17
TORSDOF 12
ENDMDL
MODEL 6
REMARK VINA RESULT:      -5.5     14.527     16.397
REMARK  12 active torsions:
REMARK  status: ('A' for Active; 'I' for Inactive)
REMARK    1  A    between atoms: N_1  and  C_11 
REMARK    2  A    between atoms: C_2  and  C_3 
REMARK    3  A    between atoms: C_2  and  C_14 
REMARK    4  A    between atoms: C_3  and  C_4 
REMARK    5  A    between atoms: C_4  and  C_11 
REMARK    6  A    between atoms: N_5  and  C_20 
REMARK    7  A    between atoms: N_6  and  C_14 
REMARK       I    between atoms: N_6  and  C_19 
REMARK    8  A    between atoms: C_13  and  C_14 
REMARK    9  A    between atoms: C_19  and  C_20 
REMARK   10  A    between atoms: C_20  and  C_21 
REMARK   11  A    between atoms: C_21  and  C_23 
REMARK   12  A    between atoms: C_23  and  C_24 
ROOT
HETATM    1  N           1     -20.228  -7.213  -5.815  0.00  0.00    -0.345 N 
HETATM    2  O           1     -20.782  -5.420  -4.603  0.00  0.00    -0.271 OA
HETATM    3  C           1     -20.571  -5.893  -5.694  0.00  0.00     0.249 C 
HETATM    4  H           1     -20.052  -7.608  -6.729  0.00  0.00     0.163 HD
ENDROOT
BRANCH   1   5
HETATM    5  C           1     -20.117  -8.043  -4.631  0.00  0.00     0.185 C 
BRANCH   5   6
HETATM    6  C           1     -21.473  -8.658  -4.314  0.00  0.00     0.036 C 
BRANCH   6   7
HETATM    7  C           1     -21.541  -9.004  -2.832  0.00  0.00     0.004 C 
BRANCH   7   8
HETATM    8  C           1     -20.947  -7.863  -2.016  0.00  0.00     0.027 C 
BRANCH   8   9
HETATM    9  C           1     -22.068  -7.096  -1.326  0.00  0.00     0.229 C 
BRANCH   9  10
HETATM   10  N           1     -22.375  -5.851  -2.104  0.00  0.00    -0.079 N 
HETATM   11  H           1     -21.726  -5.781  -2.920  0.00  0.00     0.274 HD
HETATM   12  H           1     -23.362  -5.890  -2.447  0.00  0.00     0.274 HD
HETATM   13  H           1     -22.252  -5.016  -1.488  0.00  0.00     0.274 HD
ENDBRANCH   9  10
ENDBRANCH   8   9
ENDBRANCH   7   8
ENDBRANCH   6   7
ENDBRANCH   5   6
BRANCH   5  14
HETATM   14  C           1     -19.112  -9.141  -4.880  0.00  0.00     0.196 C 
HETATM   15  O           1     -18.130  -9.273  -4.119  0.00  0.00    -0.646 OA
HETATM   16  O           1     -19.262  -9.918  -5.847  0.00  0.00    -0.646 OA
ENDBRANCH   5  14
ENDBRANCH   1   5
BRANCH   3  17
HETATM   17  C           1     -20.687  -5.029  -6.926  0.00  0.00     0.275 C 
BRANCH  17  18
HETATM   18  N           1     -20.168  -5.782  -8.115  0.00  0.00    -0.066 N 
HETATM   19  H           1     -20.595  -5.394  -8.986  0.00  0.00     0.275 HD
HETATM   20  H           1     -19.129  -5.683  -8.163  0.00  0.00     0.275 HD
HETATM   21  H           1     -20.420  -6.792  -8.024  0.00  0.00     0.275 HD
ENDBRANCH  17  18
BRANCH  17  22
HETATM   22  C           1     -22.147  -4.664  -7.155  0.00  0.00     0.053 C 
BRANCH  22  23
HETATM   23  C           1     -22.245  -3.634  -8.272  0.00  0.00     0.115 C 
BRANCH  23  24
HETATM   24  C           1     -23.335  -4.035  -9.235  0.00  0.00     0.172 C 
HETATM   25  O           1     -24.390  -3.368  -9.300  0.00  0.00    -0.648 OA
HETATM   26  O           1     -23.183  -5.037  -9.967  0.00  0.00    -0.648 OA
ENDBRANCH  23  24
ENDBRANCH  22  23
ENDBRANCH  17  22
ENDBRANCH   3  17
TORSDOF 12
ENDMDL
MODEL 7
REMARK VINA RESULT:      -5.3     14.083     16.096
REMARK  12 active torsions:
REMARK  status: ('A' for Active; 'I' for Inactive)
REMARK    1  A    between atoms: N_1  and  C_11 
REMARK    2  A    between atoms: C_2  and  C_3 
REMARK    3  A    between atoms: C_2  and  C_14 
REMARK    4  A    between atoms: C_3  and  C_4 
REMARK    5  A    between atoms: C_4  and  C_11 
REMARK    6  A    between atoms: N_5  and  C_20 
REMARK    7  A    between atoms: N_6  and  C_14 
REMARK       I    between atoms: N_6  and  C_19 
REMARK    8  A    between atoms: C_13  and  C_14 
REMARK    9  A    between atoms: C_19  and  C_20 
REMARK   10  A    between atoms: C_20  and  C_21 
REMARK   11  A    between atoms: C_21  and  C_23 
REMARK   12  A    between atoms: C_23  and  C_24 
ROOT
HETATM    1  N           1     -20.886  -6.714  -4.796  0.00  0.00    -0.345 N 
HETATM    2  O           1     -22.769  -5.823  -5.599  0.00  0.00    -0.271 OA
HETATM    3  C           1     -21.563  -5.868  -5.633  0.00  0.00     0.249 C 
HETATM    4  H           1     -19.875  -6.751  -4.824  0.00  0.00     0.163 HD
ENDROOT
BRANCH   1   5
HETATM    5  C           1     -21.617  -7.555  -3.869  0.00  0.00     0.185 C 
BRANCH   5   6
HETATM    6  C           1     -20.962  -8.928  -3.805  0.00  0.00     0.036 C 
BRANCH   6   7
HETATM    7  C           1     -22.038 -10.000  -3.685  0.00  0.00     0.004 C 
BRANCH   7   8
HETATM    8  C           1     -21.805 -10.814  -2.419  0.00  0.00     0.027 C 
BRANCH   8   9
HETATM    9  C           1     -23.034 -10.723  -1.523  0.00  0.00     0.229 C 
BRANCH   9  10
HETATM   10  N           1     -22.846  -9.618  -0.527  0.00  0.00    -0.079 N 
HETATM   11  H           1     -21.826  -9.424  -0.409  0.00  0.00     0.274 HD
HETATM   12  H           1     -23.326  -8.755  -0.870  0.00  0.00     0.274 HD
HETATM   13  H           1     -23.255  -9.903   0.391  0.00  0.00     0.274 HD
ENDBRANCH   9  10
ENDBRANCH   8   9
ENDBRANCH   7   8
ENDBRANCH   6   7
ENDBRANCH   5   6
BRANCH   5  14
HETATM   14  C           1     -21.601  -6.925  -2.498  0.00  0.00     0.196 C 
HETATM   15  O           1     -20.896  -7.418  -1.592  0.00  0.00    -0.646 OA
HETATM   16  O           1     -22.294  -5.910  -2.268  0.00  0.00    -0.646 OA
ENDBRANCH   5  14
ENDBRANCH   1   5
BRANCH   3  17
HETATM   17  C           1     -20.801  -4.992  -6.597  0.00  0.00     0.275 C 
BRANCH  17  18
HETATM   18  N           1     -20.143  -5.850  -7.637  0.00  0.00    -0.066 N 
HETATM   19  H           1     -19.374  -6.404  -7.195  0.00  0.00     0.275 HD
HETATM   20  H           1     -20.848  -6.501  -8.048  0.00  0.00     0.275 HD
HETATM   21  H           1     -19.746  -5.243  -8.388  0.00  0.00     0.275 HD
ENDBRANCH  17  18
BRANCH  17  22
HETATM   22  C           1     -21.763  -4.025  -7.273  0.00  0.00     0.053 C 
BRANCH  22  23
HETATM   23  C           1     -21.539  -4.053  -8.779  0.00  0.00     0.115 C 
BRANCH  23  24
HETATM   24  C           1     -22.833  -3.739  -9.487  0.00  0.00     0.172 C 
HETATM   25  O           1     -22.817  -3.347 -10.674  0.00  0.00    -0.648 OA
HETATM   26  O           1     -23.922  -3.870  -8.887  0.00  0.00    -0.648 OA
ENDBRANCH  23  24
ENDBRANCH  22  23
ENDBRANCH  17  22
ENDBRANCH   3  17
TORSDOF 12
ENDMDL
MODEL 8
REMARK VINA RESULT:      -5.3     15.298     18.222
REMARK  12 active torsions:
REMARK  status: ('A' for Active; 'I' for Inactive)
REMARK    1  A    between atoms: N_1  and  C_11 
REMARK    2  A    between atoms: C_2  and  C_3 
REMARK    3  A    between atoms: C_2  and  C_14 
REMARK    4  A    between atoms: C_3  and  C_4 
REMARK    5  A    between atoms: C_4  and  C_11 
REMARK    6  A    between atoms: N_5  and  C_20 
REMARK    7  A    between atoms: N_6  and  C_14 
REMARK       I    between atoms: N_6  and  C_19 
REMARK    8  A    between atoms: C_13  and  C_14 
REMARK    9  A    between atoms: C_19  and  C_20 
REMARK   10  A    between atoms: C_20  and  C_21 
REMARK   11  A    between atoms: C_21  and  C_23 
REMARK   12  A    between atoms: C_23  and  C_24 
ROOT
HETATM    1  N           1     -20.913  -8.211  -5.581  0.00  0.00    -0.345 N 
HETATM    2  O           1     -19.972  -8.717  -3.620  0.00  0.00    -0.271 OA
HETATM    3  C           1     -20.471  -9.109  -4.647  0.00  0.00     0.249 C 
HETATM    4  H           1     -21.331  -8.540  -6.441  0.00  0.00     0.163 HD
ENDROOT
BRANCH   1   5
HETATM    5  C           1     -20.783  -6.788  -5.335  0.00  0.00     0.185 C 
BRANCH   5   6
HETATM    6  C           1     -20.675  -6.052  -6.664  0.00  0.00     0.036 C 
BRANCH   6   7
HETATM    7  C           1     -20.231  -4.616  -6.416  0.00  0.00     0.004 C 
BRANCH   7   8
HETATM    8  C           1     -21.215  -3.658  -7.075  0.00  0.00     0.027 C 
BRANCH   8   9
HETATM    9  C           1     -22.146  -4.438  -7.994  0.00  0.00     0.229 C 
BRANCH   9  10
HETATM   10  N           1     -23.568  -4.209  -7.578  0.00  0.00    -0.079 N 
HETATM   11  H           1     -24.134  -3.925  -8.410  0.00  0.00     0.274 HD
HETATM   12  H           1     -23.960  -5.090  -7.176  0.00  0.00     0.274 HD
HETATM   13  H           1     -23.602  -3.452  -6.858  0.00  0.00     0.274 HD
ENDBRANCH   9  10
ENDBRANCH   8   9
ENDBRANCH   7   8
ENDBRANCH   6   7
ENDBRANCH   5   6
BRANCH   5  14
HETATM   14  C           1     -21.995  -6.294  -4.583  0.00  0.00     0.196 C 
HETATM   15  O           1     -23.094  -6.191  -5.168  0.00  0.00    -0.646 OA
HETATM   16  O           1     -21.898  -5.989  -3.375  0.00  0.00    -0.646 OA
ENDBRANCH   5  14
ENDBRANCH   1   5
BRANCH   3  17
HETATM   17  C           1     -20.606 -10.590  -4.903  0.00  0.00     0.275 C 
BRANCH  17  18
HETATM   18  N           1     -21.125 -10.811  -6.293  0.00  0.00    -0.066 N 
HETATM   19  H           1     -21.051  -9.922  -6.837  0.00  0.00     0.275 HD
HETATM   20  H           1     -20.558 -11.554  -6.762  0.00  0.00     0.275 HD
HETATM   21  H           1     -22.125 -11.110  -6.248  0.00  0.00     0.275 HD
ENDBRANCH  17  18
BRANCH  17  22
HETATM   22  C           1     -19.245 -11.257  -4.757  0.00  0.00     0.053 C 
BRANCH  22  23
HETATM   23  C           1     -18.534 -11.263  -6.103  0.00  0.00     0.115 C 
BRANCH  23  24
HETATM   24  C           1     -17.559 -10.113  -6.164  0.00  0.00     0.172 C 
HETATM   25  O           1     -17.922  -9.010  -6.626  0.00  0.00    -0.648 OA
HETATM   26  O           1     -16.388 -10.265  -5.754  0.00  0.00    -0.648 OA
ENDBRANCH  23  24
ENDBRANCH  22  23
ENDBRANCH  17  22
ENDBRANCH   3  17
TORSDOF 12
ENDMDL
MODEL 9
REMARK VINA RESULT:      -5.3     14.169     16.014
REMARK  12 active torsions:
REMARK  status: ('A' for Active; 'I' for Inactive)
REMARK    1  A    between atoms: N_1  and  C_11 
REMARK    2  A    between atoms: C_2  and  C_3 
REMARK    3  A    between atoms: C_2  and  C_14 
REMARK    4  A    between atoms: C_3  and  C_4 
REMARK    5  A    between atoms: C_4  and  C_11 
REMARK    6  A    between atoms: N_5  and  C_20 
REMARK    7  A    between atoms: N_6  and  C_14 
REMARK       I    between atoms: N_6  and  C_19 
REMARK    8  A    between atoms: C_13  and  C_14 
REMARK    9  A    between atoms: C_19  and  C_20 
REMARK   10  A    between atoms: C_20  and  C_21 
REMARK   11  A    between atoms: C_21  and  C_23 
REMARK   12  A    between atoms: C_23  and  C_24 
ROOT
HETATM    1  N           1     -21.169  -6.059  -5.412  0.00  0.00    -0.345 N 
HETATM    2  O           1     -23.111  -5.304  -6.214  0.00  0.00    -0.271 OA
HETATM    3  C           1     -21.906  -5.221  -6.204  0.00  0.00     0.249 C 
HETATM    4  H           1     -20.159  -5.989  -5.403  0.00  0.00     0.163 HD
ENDROOT
BRANCH   1   5
HETATM    5  C           1     -21.834  -7.047  -4.585  0.00  0.00     0.185 C 
BRANCH   5   6
HETATM    6  C           1     -21.199  -8.411  -4.815  0.00  0.00     0.036 C 
BRANCH   6   7
HETATM    7  C           1     -19.794  -8.231  -5.375  0.00  0.00     0.004 C 
BRANCH   7   8
HETATM    8  C           1     -18.849  -9.221  -4.706  0.00  0.00     0.027 C 
BRANCH   8   9
HETATM    9  C           1     -17.924  -9.827  -5.753  0.00  0.00     0.229 C 
BRANCH   9  10
HETATM   10  N           1     -18.703 -10.769  -6.624  0.00  0.00    -0.079 N 
HETATM   11  H           1     -18.560 -10.515  -7.627  0.00  0.00     0.274 HD
HETATM   12  H           1     -18.372 -11.747  -6.461  0.00  0.00     0.274 HD
HETATM   13  H           1     -19.719 -10.700  -6.389  0.00  0.00     0.274 HD
ENDBRANCH   9  10
ENDBRANCH   8   9
ENDBRANCH   7   8
ENDBRANCH   6   7
ENDBRANCH   5   6
BRANCH   5  14
HETATM   14  C           1     -21.694  -6.664  -3.132  0.00  0.00     0.196 C 
HETATM   15  O           1     -20.787  -7.170  -2.437  0.00  0.00    -0.646 OA
HETATM   16  O           1     -22.484  -5.839  -2.624  0.00  0.00    -0.646 OA
ENDBRANCH   5  14
ENDBRANCH   1   5
BRANCH   3  17
HETATM   17  C           1     -21.214  -4.193  -7.065  0.00  0.00     0.275 C 
BRANCH  17  18
HETATM   18  N           1     -19.935  -4.769  -7.598  0.00  0.00    -0.066 N 
HETATM   19  H           1     -19.703  -4.315  -8.510  0.00  0.00     0.275 HD
HETATM   20  H           1     -19.163  -4.593  -6.916  0.00  0.00     0.275 HD
HETATM   21  H           1     -20.049  -5.798  -7.740  0.00  0.00     0.275 HD
ENDBRANCH  17  18
BRANCH  17  22
HETATM   22  C           1     -22.120  -3.809  -8.226  0.00  0.00     0.053 C 
BRANCH  22  23
HETATM   23  C           1     -21.477  -4.240  -9.537  0.00  0.00     0.115 C 
BRANCH  23  24
HETATM   24  C           1     -22.281  -3.702 -10.695  0.00  0.00     0.172 C 
HETATM   25  O           1     -21.790  -3.684 -11.844  0.00  0.00    -0.648 OA
HETATM   26  O           1     -23.440  -3.271 -10.504  0.00  0.00    -0.648 OA
ENDBRANCH  23  24
ENDBRANCH  22  23
ENDBRANCH  17  22
ENDBRANCH   3  17
TORSDOF 12
ENDMDL
