MODEL 1
REMARK VINA RESULT:      -7.6      0.000      0.000
REMARK  11 active torsions:
REMARK  status: ('A' for Active; 'I' for Inactive)
REMARK    1  A    between atoms: C_5  and  O_6 
REMARK    2  A    between atoms: C_5  and  C_7 
REMARK    3  A    between atoms: C_7  and  C_8 
REMARK    4  A    between atoms: C_7  and  N_11 
REMARK       I    between atoms: N_11  and  C_12 
REMARK    5  A    between atoms: C_12  and  C_13 
REMARK    6  A    between atoms: C_13  and  C_14 
REMARK    7  A    between atoms: C_13  and  N_26 
REMARK    8  A    between atoms: C_14  and  C_15 
REMARK    9  A    between atoms: C_18  and  O_19 
REMARK   10  A    between atoms: O_19  and  P_20 
REMARK   11  A    between atoms: P_20  and  O_21 
ROOT
HETATM    1  C           1     -21.175  -5.661  -7.031  0.00  0.00     0.278 C 
ENDROOT
BRANCH   1   2
HETATM    2  C           1     -21.747  -4.544  -7.869  0.00  0.00     0.249 C 
HETATM    3  N           1     -22.164  -4.793  -9.148  0.00  0.00    -0.343 N 
HETATM    4  H           1     -22.089  -5.726  -9.532  0.00  0.00     0.163 HD
HETATM    5  O           1     -21.836  -3.429  -7.411  0.00  0.00    -0.271 OA
BRANCH   3   6
HETATM    6  C           1     -22.713  -3.719  -9.954  0.00  0.00     0.214 C 
BRANCH   6   7
HETATM    7  C           1     -21.956  -3.636 -11.273  0.00  0.00     0.147 C 
HETATM    8  C           1     -20.525  -4.116 -11.069  0.00  0.00     0.042 C 
BRANCH   7   9
HETATM    9  O           1     -22.588  -4.447 -12.227  0.00  0.00    -0.393 OA
HETATM   10  H           1     -23.516  -4.336 -12.108  0.00  0.00     0.210 HD
ENDBRANCH   7   9
ENDBRANCH   6   7
BRANCH   6  11
HETATM   11  C           1     -24.171  -3.991 -10.228  0.00  0.00     0.199 C 
HETATM   12  O           1     -24.667  -5.100  -9.929  0.00  0.00    -0.646 OA
HETATM   13  O           1     -24.884  -3.110 -10.756  0.00  0.00    -0.646 OA
ENDBRANCH   6  11
ENDBRANCH   3   6
ENDBRANCH   1   2
BRANCH   1  14
HETATM   14  C           1     -20.981  -5.176  -5.600  0.00  0.00     0.081 C 
BRANCH  14  15
HETATM   15  C           1     -21.195  -6.315  -4.653  0.00  0.00    -0.056 A 
HETATM   16  C           1     -21.194  -6.088  -3.277  0.00  0.00     0.010 A 
HETATM   17  C           1     -21.394  -7.149  -2.394  0.00  0.00     0.038 A 
HETATM   18  C           1     -21.595  -8.438  -2.888  0.00  0.00     0.081 A 
HETATM   19  C           1     -21.598  -8.665  -4.265  0.00  0.00     0.038 A 
HETATM   20  C           1     -21.397  -7.603  -5.147  0.00  0.00     0.010 A 
BRANCH  18  21
HETATM   21  O           1     -21.790  -9.469  -2.031  0.00  0.00    -0.247 OA
BRANCH  21  22
HETATM   22  P           1     -20.537 -10.438  -1.714  0.00  0.00     0.411 P 
HETATM   23  O           1     -20.490 -10.723  -0.263  0.00  0.00    -0.624 OA
HETATM   24  O           1     -20.692 -11.706  -2.463  0.00  0.00    -0.624 OA
BRANCH  22  25
HETATM   25  O           1     -19.166  -9.712  -2.165  0.00  0.00    -0.300 OA
HETATM   26  H           1     -18.522 -10.001  -1.542  0.00  0.00     0.223 HD
ENDBRANCH  22  25
ENDBRANCH  21  22
ENDBRANCH  18  21
ENDBRANCH  14  15
ENDBRANCH   1  14
BRANCH   1  27
HETATM   27  N           1     -19.854  -6.086  -7.598  0.00  0.00    -0.066 N 
HETATM   28  H           1     -19.264  -6.493  -6.839  0.00  0.00     0.275 HD
HETATM   29  H           1     -19.369  -5.257  -8.010  0.00  0.00     0.275 HD
HETATM   30  H           1     -20.008  -6.804  -8.342  0.00  0.00     0.275 HD
ENDBRANCH   1  27
TORSDOF 11
ENDMDL
MODEL 2
REMARK VINA RESULT:      -7.2     13.327     15.163
REMARK  11 active torsions:
REMARK  status: ('A' for Active; 'I' for Inactive)
REMARK    1  A    between atoms: C_5  and  O_6 
REMARK    2  A    between atoms: C_5  and  C_7 
REMARK    3  A    between atoms: C_7  and  C_8 
REMARK    4  A    between atoms: C_7  and  N_11 
REMARK       I    between atoms: N_11  and  C_12 
REMARK    5  A    between atoms: C_12  and  C_13 
REMARK    6  A    between atoms: C_13  and  C_14 
REMARK    7  A    between atoms: C_13  and  N_26 
REMARK    8  A    between atoms: C_14  and  C_15 
REMARK    9  A    between atoms: C_18  and  O_19 
REMARK   10  A    between atoms: O_19  and  P_20 
REMARK   11  A    between atoms: P_20  and  O_21 
ROOT
HETATM    1  C           1     -33.573  -4.857 -15.602  0.00  0.00     0.278 C 
ENDROOT
BRANCH   1   2
HETATM    2  C           1     -34.120  -3.921 -14.553  0.00  0.00     0.249 C 
HETATM    3  N           1     -33.997  -4.233 -13.226  0.00  0.00    -0.343 N 
HETATM    4  H           1     -33.540  -5.092 -12.949  0.00  0.00     0.163 HD
HETATM    5  O           1     -34.666  -2.895 -14.884  0.00  0.00    -0.271 OA
BRANCH   3   6
HETATM    6  C           1     -34.523  -3.333 -12.217  0.00  0.00     0.214 C 
BRANCH   6   7
HETATM    7  C           1     -35.501  -4.086 -11.326  0.00  0.00     0.147 C 
HETATM    8  C           1     -34.739  -5.085 -10.465  0.00  0.00     0.042 C 
BRANCH   7   9
HETATM    9  O           1     -36.175  -3.177 -10.498  0.00  0.00    -0.393 OA
HETATM   10  H           1     -35.557  -2.502 -10.272  0.00  0.00     0.210 HD
ENDBRANCH   7   9
ENDBRANCH   6   7
BRANCH   6  11
HETATM   11  C           1     -33.387  -2.800 -11.378  0.00  0.00     0.199 C 
HETATM   12  O           1     -32.263  -3.344 -11.431  0.00  0.00    -0.646 OA
HETATM   13  O           1     -33.571  -1.815 -10.631  0.00  0.00    -0.646 OA
ENDBRANCH   6  11
ENDBRANCH   3   6
ENDBRANCH   1   2
BRANCH   1  14
HETATM   14  C           1     -33.030  -4.048 -16.773  0.00  0.00     0.081 C 
BRANCH  14  15
HETATM   15  C           1     -31.696  -4.592 -17.179  0.00  0.00    -0.056 A 
HETATM   16  C           1     -31.451  -5.963 -17.114  0.00  0.00     0.010 A 
HETATM   17  C           1     -30.208  -6.470 -17.493  0.00  0.00     0.038 A 
HETATM   18  C           1     -29.209  -5.603 -17.939  0.00  0.00     0.081 A 
HETATM   19  C           1     -29.454  -4.231 -18.006  0.00  0.00     0.038 A 
HETATM   20  C           1     -30.697  -3.726 -17.626  0.00  0.00     0.010 A 
BRANCH  18  21
HETATM   21  O           1     -28.002  -6.095 -18.308  0.00  0.00    -0.247 OA
BRANCH  21  22
HETATM   22  P           1     -26.839  -6.167 -17.189  0.00  0.00     0.411 P 
HETATM   23  O           1     -25.540  -6.431 -17.846  0.00  0.00    -0.624 OA
HETATM   24  O           1     -26.773  -4.879 -16.462  0.00  0.00    -0.624 OA
BRANCH  22  25
HETATM   25  O           1     -27.166  -7.357 -16.146  0.00  0.00    -0.300 OA
HETATM   26  H           1     -26.555  -8.041 -16.358  0.00  0.00     0.223 HD
ENDBRANCH  22  25
ENDBRANCH  21  22
ENDBRANCH  18  21
ENDBRANCH  14  15
ENDBRANCH   1  14
BRANCH   1  27
HETATM   27  N           1     -34.668  -5.760 -16.085  0.00  0.00    -0.066 N 
HETATM   28  H           1     -35.272  -6.038 -15.278  0.00  0.00     0.275 HD
HETATM   29  H           1     -34.249  -6.615 -16.517  0.00  0.00     0.275 HD
HETATM   30  H           1     -35.247  -5.259 -16.796  0.00  0.00     0.275 HD
ENDBRANCH   1  27
TORSDOF 11
ENDMDL
MODEL 3
REMARK VINA RESULT:      -7.2      2.964      8.681
REMARK  11 active torsions:
REMARK  status: ('A' for Active; 'I' for Inactive)
REMARK    1  A    between atoms: C_5  and  O_6 
REMARK    2  A    between atoms: C_5  and  C_7 
REMARK    3  A    between atoms: C_7  and  C_8 
REMARK    4  A    between atoms: C_7  and  N_11 
REMARK       I    between atoms: N_11  and  C_12 
REMARK    5  A    between atoms: C_12  and  C_13 
REMARK    6  A    between atoms: C_13  and  C_14 
REMARK    7  A    between atoms: C_13  and  N_26 
REMARK    8  A    between atoms: C_14  and  C_15 
REMARK    9  A    between atoms: C_18  and  O_19 
REMARK   10  A    between atoms: O_19  and  P_20 
REMARK   11  A    between atoms: P_20  and  O_21 
ROOT
HETATM    1  C           1     -20.250  -7.323  -5.674  0.00  0.00     0.278 C 
ENDROOT
BRANCH   1   2
HETATM    2  C           1     -20.068  -7.966  -4.321  0.00  0.00     0.249 C 
HETATM    3  N           1     -21.031  -7.823  -3.359  0.00  0.00    -0.343 N 
HETATM    4  H           1     -21.866  -7.287  -3.556  0.00  0.00     0.163 HD
HETATM    5  O           1     -19.070  -8.606  -4.086  0.00  0.00    -0.271 OA
BRANCH   3   6
HETATM    6  C           1     -20.856  -8.441  -2.059  0.00  0.00     0.214 C 
BRANCH   6   7
HETATM    7  C           1     -21.613  -7.638  -1.009  0.00  0.00     0.147 C 
HETATM    8  C           1     -22.212  -6.395  -1.655  0.00  0.00     0.042 C 
BRANCH   7   9
HETATM    9  O           1     -22.640  -8.425  -0.469  0.00  0.00    -0.393 OA
HETATM   10  H           1     -23.055  -7.909   0.201  0.00  0.00     0.210 HD
ENDBRANCH   7   9
ENDBRANCH   6   7
BRANCH   6  11
HETATM   11  C           1     -21.392  -9.851  -2.095  0.00  0.00     0.199 C 
HETATM   12  O           1     -20.915 -10.720  -1.334  0.00  0.00    -0.646 OA
HETATM   13  O           1     -22.313 -10.149  -2.886  0.00  0.00    -0.646 OA
ENDBRANCH   6  11
ENDBRANCH   3   6
ENDBRANCH   1   2
BRANCH   1  14
HETATM   14  C           1     -20.419  -5.819  -5.504  0.00  0.00     0.081 C 
BRANCH  14  15
HETATM   15  C           1     -20.940  -5.228  -6.777  0.00  0.00    -0.056 A 
HETATM   16  C           1     -20.159  -5.258  -7.931  0.00  0.00     0.010 A 
HETATM   17  C           1     -20.645  -4.708  -9.118  0.00  0.00     0.038 A 
HETATM   18  C           1     -21.913  -4.127  -9.148  0.00  0.00     0.081 A 
HETATM   19  C           1     -22.695  -4.098  -7.993  0.00  0.00     0.038 A 
HETATM   20  C           1     -22.208  -4.648  -6.807  0.00  0.00     0.010 A 
BRANCH  18  21
HETATM   21  O           1     -22.385  -3.593 -10.301  0.00  0.00    -0.247 OA
BRANCH  21  22
HETATM   22  P           1     -23.681  -4.278 -10.978  0.00  0.00     0.411 P 
HETATM   23  O           1     -24.002  -5.534 -10.266  0.00  0.00    -0.624 OA
HETATM   24  O           1     -24.832  -3.351 -10.891  0.00  0.00    -0.624 OA
BRANCH  22  25
HETATM   25  O           1     -23.370  -4.603 -12.530  0.00  0.00    -0.300 OA
HETATM   26  H           1     -22.430  -4.617 -12.592  0.00  0.00     0.223 HD
ENDBRANCH  22  25
ENDBRANCH  21  22
ENDBRANCH  18  21
ENDBRANCH  14  15
ENDBRANCH   1  14
BRANCH   1  27
HETATM   27  N           1     -21.470  -7.891  -6.336  0.00  0.00    -0.066 N 
HETATM   28  H           1     -21.275  -8.869  -6.646  0.00  0.00     0.275 HD
HETATM   29  H           1     -21.721  -7.305  -7.164  0.00  0.00     0.275 HD
HETATM   30  H           1     -22.266  -7.894  -5.658  0.00  0.00     0.275 HD
ENDBRANCH   1  27
TORSDOF 11
ENDMDL
MODEL 4
REMARK VINA RESULT:      -7.1     11.974     14.201
REMARK  11 active torsions:
REMARK  status: ('A' for Active; 'I' for Inactive)
REMARK    1  A    between atoms: C_5  and  O_6 
REMARK    2  A    between atoms: C_5  and  C_7 
REMARK    3  A    between atoms: C_7  and  C_8 
REMARK    4  A    between atoms: C_7  and  N_11 
REMARK       I    between atoms: N_11  and  C_12 
REMARK    5  A    between atoms: C_12  and  C_13 
REMARK    6  A    between atoms: C_13  and  C_14 
REMARK    7  A    between atoms: C_13  and  N_26 
REMARK    8  A    between atoms: C_14  and  C_15 
REMARK    9  A    between atoms: C_18  and  O_19 
REMARK   10  A    between atoms: O_19  and  P_20 
REMARK   11  A    between atoms: P_20  and  O_21 
ROOT
HETATM    1  C           1     -32.840  -4.693 -16.883  0.00  0.00     0.278 C 
ENDROOT
BRANCH   1   2
HETATM    2  C           1     -33.687  -4.615 -15.637  0.00  0.00     0.249 C 
HETATM    3  N           1     -33.150  -4.131 -14.474  0.00  0.00    -0.343 N 
HETATM    4  H           1     -32.186  -3.826 -14.451  0.00  0.00     0.163 HD
HETATM    5  O           1     -34.838  -4.980 -15.665  0.00  0.00    -0.271 OA
BRANCH   3   6
HETATM    6  C           1     -33.964  -4.056 -13.276  0.00  0.00     0.214 C 
BRANCH   6   7
HETATM    7  C           1     -33.117  -4.419 -12.064  0.00  0.00     0.147 C 
HETATM    8  C           1     -33.817  -5.508 -11.261  0.00  0.00     0.042 C 
BRANCH   7   9
HETATM    9  O           1     -31.865  -4.885 -12.490  0.00  0.00    -0.393 OA
HETATM   10  H           1     -31.573  -4.303 -13.171  0.00  0.00     0.210 HD
ENDBRANCH   7   9
ENDBRANCH   6   7
BRANCH   6  11
HETATM   11  C           1     -34.495  -2.653 -13.116  0.00  0.00     0.199 C 
HETATM   12  O           1     -35.009  -2.065 -14.092  0.00  0.00    -0.646 OA
HETATM   13  O           1     -34.421  -2.079 -12.008  0.00  0.00    -0.646 OA
ENDBRANCH   6  11
ENDBRANCH   3   6
ENDBRANCH   1   2
BRANCH   1  14
HETATM   14  C           1     -32.132  -6.041 -16.934  0.00  0.00     0.081 C 
BRANCH  14  15
HETATM   15  C           1     -30.653  -5.832 -16.840  0.00  0.00    -0.056 A 
HETATM   16  C           1     -30.062  -5.573 -15.604  0.00  0.00     0.010 A 
HETATM   17  C           1     -28.683  -5.379 -15.517  0.00  0.00     0.038 A 
HETATM   18  C           1     -27.896  -5.445 -16.666  0.00  0.00     0.081 A 
HETATM   19  C           1     -28.487  -5.705 -17.903  0.00  0.00     0.038 A 
HETATM   20  C           1     -29.865  -5.898 -17.990  0.00  0.00     0.010 A 
BRANCH  18  21
HETATM   21  O           1     -26.556  -5.256 -16.581  0.00  0.00    -0.247 OA
BRANCH  21  22
HETATM   22  P           1     -25.656  -6.466 -16.002  0.00  0.00     0.411 P 
HETATM   23  O           1     -26.538  -7.572 -15.570  0.00  0.00    -0.624 OA
HETATM   24  O           1     -24.738  -6.948 -17.058  0.00  0.00    -0.624 OA
BRANCH  22  25
HETATM   25  O           1     -24.795  -5.941 -14.740  0.00  0.00    -0.300 OA
HETATM   26  H           1     -24.581  -6.717 -14.252  0.00  0.00     0.223 HD
ENDBRANCH  22  25
ENDBRANCH  21  22
ENDBRANCH  18  21
ENDBRANCH  14  15
ENDBRANCH   1  14
BRANCH   1  27
HETATM   27  N           1     -31.820  -3.594 -16.864  0.00  0.00    -0.066 N 
HETATM   28  H           1     -30.985  -3.903 -16.318  0.00  0.00     0.275 HD
HETATM   29  H           1     -32.233  -2.744 -16.419  0.00  0.00     0.275 HD
HETATM   30  H           1     -31.531  -3.369 -17.843  0.00  0.00     0.275 HD
ENDBRANCH   1  27
TORSDOF 11
ENDMDL
MODEL 5
REMARK VINA RESULT:      -7.0      3.422      8.294
REMARK  11 active torsions:
REMARK  status: ('A' for Active; 'I' for Inactive)
REMARK    1  A    between atoms: C_5  and  O_6 
REMARK    2  A    between atoms: C_5  and  C_7 
REMARK    3  A    between atoms: C_7  and  C_8 
REMARK    4  A    between atoms: C_7  and  N_11 
REMARK       I    between atoms: N_11  and  C_12 
REMARK    5  A    between atoms: C_12  and  C_13 
REMARK    6  A    between atoms: C_13  and  C_14 
REMARK    7  A    between atoms: C_13  and  N_26 
REMARK    8  A    between atoms: C_14  and  C_15 
REMARK    9  A    between atoms: C_18  and  O_19 
REMARK   10  A    between atoms: O_19  and  P_20 
REMARK   11  A    between atoms: P_20  and  O_21 
ROOT
HETATM    1  C           1     -21.471  -6.674  -4.960  0.00  0.00     0.278 C 
ENDROOT
BRANCH   1   2
HETATM    2  C           1     -20.622  -7.824  -4.478  0.00  0.00     0.249 C 
HETATM    3  N           1     -20.179  -8.767  -5.366  0.00  0.00    -0.343 N 
HETATM    4  H           1     -20.421  -8.692  -6.346  0.00  0.00     0.163 HD
HETATM    5  O           1     -20.332  -7.914  -3.309  0.00  0.00    -0.271 OA
BRANCH   3   6
HETATM    6  C           1     -19.362  -9.873  -4.904  0.00  0.00     0.214 C 
BRANCH   6   7
HETATM    7  C           1     -19.992 -11.187  -5.343  0.00  0.00     0.147 C 
HETATM    8  C           1     -21.254 -10.903  -6.147  0.00  0.00     0.042 C 
BRANCH   7   9
HETATM    9  O           1     -19.083 -11.899  -6.138  0.00  0.00    -0.393 OA
HETATM   10  H           1     -18.997 -12.756  -5.756  0.00  0.00     0.210 HD
ENDBRANCH   7   9
ENDBRANCH   6   7
BRANCH   6  11
HETATM   11  C           1     -17.978  -9.757  -5.494  0.00  0.00     0.199 C 
HETATM   12  O           1     -16.992 -10.195  -4.863  0.00  0.00    -0.646 OA
HETATM   13  O           1     -17.818  -9.224  -6.613  0.00  0.00    -0.646 OA
ENDBRANCH   6  11
ENDBRANCH   3   6
ENDBRANCH   1   2
BRANCH   1  14
HETATM   14  C           1     -20.571  -5.541  -5.437  0.00  0.00     0.081 C 
BRANCH  14  15
HETATM   15  C           1     -21.032  -5.069  -6.780  0.00  0.00    -0.056 A 
HETATM   16  C           1     -22.278  -4.458  -6.915  0.00  0.00     0.010 A 
HETATM   17  C           1     -22.708  -4.017  -8.167  0.00  0.00     0.038 A 
HETATM   18  C           1     -21.890  -4.187  -9.284  0.00  0.00     0.081 A 
HETATM   19  C           1     -20.643  -4.797  -9.150  0.00  0.00     0.038 A 
HETATM   20  C           1     -20.214  -5.238  -7.897  0.00  0.00     0.010 A 
BRANCH  18  21
HETATM   21  O           1     -22.308  -3.759 -10.500  0.00  0.00    -0.247 OA
BRANCH  21  22
HETATM   22  P           1     -23.693  -4.354 -11.079  0.00  0.00     0.411 P 
HETATM   23  O           1     -24.058  -5.573 -10.325  0.00  0.00    -0.624 OA
HETATM   24  O           1     -24.764  -3.343 -10.933  0.00  0.00    -0.624 OA
BRANCH  22  25
HETATM   25  O           1     -23.511  -4.722 -12.642  0.00  0.00    -0.300 OA
HETATM   26  H           1     -24.380  -4.691 -13.002  0.00  0.00     0.223 HD
ENDBRANCH  22  25
ENDBRANCH  21  22
ENDBRANCH  18  21
ENDBRANCH  14  15
ENDBRANCH   1  14
BRANCH   1  27
HETATM   27  N           1     -22.334  -6.186  -3.836  0.00  0.00    -0.066 N 
HETATM   28  H           1     -22.926  -6.972  -3.484  0.00  0.00     0.275 HD
HETATM   29  H           1     -22.950  -5.414  -4.179  0.00  0.00     0.275 HD
HETATM   30  H           1     -21.731  -5.831  -3.060  0.00  0.00     0.275 HD
ENDBRANCH   1  27
TORSDOF 11
ENDMDL
MODEL 6
REMARK VINA RESULT:      -6.7      3.353      8.512
REMARK  11 active torsions:
REMARK  status: ('A' for Active; 'I' for Inactive)
REMARK    1  A    between atoms: C_5  and  O_6 
REMARK    2  A    between atoms: C_5  and  C_7 
REMARK    3  A    between atoms: C_7  and  C_8 
REMARK    4  A    between atoms: C_7  and  N_11 
REMARK       I    between atoms: N_11  and  C_12 
REMARK    5  A    between atoms: C_12  and  C_13 
REMARK    6  A    between atoms: C_13  and  C_14 
REMARK    7  A    between atoms: C_13  and  N_26 
REMARK    8  A    between atoms: C_14  and  C_15 
REMARK    9  A    between atoms: C_18  and  O_19 
REMARK   10  A    between atoms: O_19  and  P_20 
REMARK   11  A    between atoms: P_20  and  O_21 
ROOT
HETATM    1  C           1     -21.502  -6.881  -4.836  0.00  0.00     0.278 C 
ENDROOT
BRANCH   1   2
HETATM    2  C           1     -20.995  -8.281  -4.593  0.00  0.00     0.249 C 
HETATM    3  N           1     -19.649  -8.516  -4.507  0.00  0.00    -0.343 N 
HETATM    4  H           1     -18.995  -7.751  -4.606  0.00  0.00     0.163 HD
HETATM    5  O           1     -21.776  -9.195  -4.475  0.00  0.00    -0.271 OA
BRANCH   3   6
HETATM    6  C           1     -19.161  -9.862  -4.274  0.00  0.00     0.214 C 
BRANCH   6   7
HETATM    7  C           1     -18.271 -10.287  -5.433  0.00  0.00     0.147 C 
HETATM    8  C           1     -18.896 -11.482  -6.142  0.00  0.00     0.042 C 
BRANCH   7   9
HETATM    9  O           1     -18.142  -9.224  -6.338  0.00  0.00    -0.393 OA
HETATM   10  H           1     -18.145  -9.599  -7.203  0.00  0.00     0.210 HD
ENDBRANCH   7   9
ENDBRANCH   6   7
BRANCH   6  11
HETATM   11  C           1     -18.365  -9.893  -2.992  0.00  0.00     0.199 C 
HETATM   12  O           1     -18.744 -10.606  -2.038  0.00  0.00    -0.646 OA
HETATM   13  O           1     -17.327  -9.205  -2.884  0.00  0.00    -0.646 OA
ENDBRANCH   6  11
ENDBRANCH   3   6
ENDBRANCH   1   2
BRANCH   1  14
HETATM   14  C           1     -20.406  -6.049  -5.490  0.00  0.00     0.081 C 
BRANCH  14  15
HETATM   15  C           1     -20.954  -5.369  -6.706  0.00  0.00    -0.056 A 
HETATM   16  C           1     -20.204  -5.330  -7.880  0.00  0.00     0.010 A 
HETATM   17  C           1     -20.714  -4.697  -9.014  0.00  0.00     0.038 A 
HETATM   18  C           1     -21.976  -4.103  -8.972  0.00  0.00     0.081 A 
HETATM   19  C           1     -22.727  -4.143  -7.797  0.00  0.00     0.038 A 
HETATM   20  C           1     -22.216  -4.776  -6.664  0.00  0.00     0.010 A 
BRANCH  18  21
HETATM   21  O           1     -22.472  -3.488 -10.073  0.00  0.00    -0.247 OA
BRANCH  21  22
HETATM   22  P           1     -23.665  -4.221 -10.877  0.00  0.00     0.411 P 
HETATM   23  O           1     -23.228  -4.495 -12.264  0.00  0.00    -0.624 OA
HETATM   24  O           1     -24.003  -5.496 -10.205  0.00  0.00    -0.624 OA
BRANCH  22  25
HETATM   25  O           1     -24.967  -3.265 -10.902  0.00  0.00    -0.300 OA
HETATM   26  H           1     -24.629  -2.392 -10.793  0.00  0.00     0.223 HD
ENDBRANCH  22  25
ENDBRANCH  21  22
ENDBRANCH  18  21
ENDBRANCH  14  15
ENDBRANCH   1  14
BRANCH   1  27
HETATM   27  N           1     -21.891  -6.256  -3.530  0.00  0.00    -0.066 N 
HETATM   28  H           1     -22.823  -6.623  -3.232  0.00  0.00     0.275 HD
HETATM   29  H           1     -21.944  -5.219  -3.641  0.00  0.00     0.275 HD
HETATM   30  H           1     -21.177  -6.492  -2.803  0.00  0.00     0.275 HD
ENDBRANCH   1  27
TORSDOF 11
ENDMDL
MODEL 7
REMARK VINA RESULT:      -6.5     13.614     15.370
REMARK  11 active torsions:
REMARK  status: ('A' for Active; 'I' for Inactive)
REMARK    1  A    between atoms: C_5  and  O_6 
REMARK    2  A    between atoms: C_5  and  C_7 
REMARK    3  A    between atoms: C_7  and  C_8 
REMARK    4  A    between atoms: C_7  and  N_11 
REMARK       I    between atoms: N_11  and  C_12 
REMARK    5  A    between atoms: C_12  and  C_13 
REMARK    6  A    between atoms: C_13  and  C_14 
REMARK    7  A    between atoms: C_13  and  N_26 
REMARK    8  A    between atoms: C_14  and  C_15 
REMARK    9  A    between atoms: C_18  and  O_19 
REMARK   10  A    between atoms: O_19  and  P_20 
REMARK   11  A    between atoms: P_20  and  O_21 
ROOT
HETATM    1  C           1     -33.990  -5.248 -15.339  0.00  0.00     0.278 C 
ENDROOT
BRANCH   1   2
HETATM    2  C           1     -34.476  -4.611 -14.060  0.00  0.00     0.249 C 
HETATM    3  N           1     -34.205  -3.293 -13.806  0.00  0.00    -0.343 N 
HETATM    4  H           1     -33.680  -2.747 -14.476  0.00  0.00     0.163 HD
HETATM    5  O           1     -35.103  -5.263 -13.260  0.00  0.00    -0.271 OA
BRANCH   3   6
HETATM    6  C           1     -34.672  -2.680 -12.577  0.00  0.00     0.214 C 
BRANCH   6   7
HETATM    7  C           1     -33.495  -2.477 -11.633  0.00  0.00     0.147 C 
HETATM    8  C           1     -34.012  -2.118 -10.246  0.00  0.00     0.042 C 
BRANCH   7   9
HETATM    9  O           1     -32.744  -3.658 -11.559  0.00  0.00    -0.393 OA
HETATM   10  H           1     -31.880  -3.416 -11.274  0.00  0.00     0.210 HD
ENDBRANCH   7   9
ENDBRANCH   6   7
BRANCH   6  11
HETATM   11  C           1     -35.303  -1.346 -12.889  0.00  0.00     0.199 C 
HETATM   12  O           1     -36.526  -1.173 -12.696  0.00  0.00    -0.646 OA
HETATM   13  O           1     -34.603  -0.413 -13.340  0.00  0.00    -0.646 OA
ENDBRANCH   6  11
ENDBRANCH   3   6
ENDBRANCH   1   2
BRANCH   1  14
HETATM   14  C           1     -33.495  -4.166 -16.290  0.00  0.00     0.081 C 
BRANCH  14  15
HETATM   15  C           1     -32.162  -4.561 -16.845  0.00  0.00    -0.056 A 
HETATM   16  C           1     -31.789  -5.904 -16.878  0.00  0.00     0.010 A 
HETATM   17  C           1     -30.547  -6.272 -17.395  0.00  0.00     0.038 A 
HETATM   18  C           1     -29.677  -5.295 -17.880  0.00  0.00     0.081 A 
HETATM   19  C           1     -30.050  -3.951 -17.848  0.00  0.00     0.038 A 
HETATM   20  C           1     -31.292  -3.584 -17.330  0.00  0.00     0.010 A 
BRANCH  18  21
HETATM   21  O           1     -28.471  -5.652 -18.383  0.00  0.00    -0.247 OA
BRANCH  21  22
HETATM   22  P           1     -27.267  -5.925 -17.342  0.00  0.00     0.411 P 
HETATM   23  O           1     -26.032  -6.248 -18.091  0.00  0.00    -0.624 OA
HETATM   24  O           1     -27.043  -4.716 -16.518  0.00  0.00    -0.624 OA
BRANCH  22  25
HETATM   25  O           1     -27.654  -7.166 -16.382  0.00  0.00    -0.300 OA
HETATM   26  H           1     -27.040  -7.122 -15.669  0.00  0.00     0.223 HD
ENDBRANCH  22  25
ENDBRANCH  21  22
ENDBRANCH  18  21
ENDBRANCH  14  15
ENDBRANCH   1  14
BRANCH   1  27
HETATM   27  N           1     -35.116  -6.000 -15.981  0.00  0.00    -0.066 N 
HETATM   28  H           1     -35.530  -5.422 -16.746  0.00  0.00     0.275 HD
HETATM   29  H           1     -35.849  -6.209 -15.266  0.00  0.00     0.275 HD
HETATM   30  H           1     -34.755  -6.897 -16.380  0.00  0.00     0.275 HD
ENDBRANCH   1  27
TORSDOF 11
ENDMDL
MODEL 8
REMARK VINA RESULT:      -6.4      3.152      8.736
REMARK  11 active torsions:
REMARK  status: ('A' for Active; 'I' for Inactive)
REMARK    1  A    between atoms: C_5  and  O_6 
REMARK    2  A    between atoms: C_5  and  C_7 
REMARK    3  A    between atoms: C_7  and  C_8 
REMARK    4  A    between atoms: C_7  and  N_11 
REMARK       I    between atoms: N_11  and  C_12 
REMARK    5  A    between atoms: C_12  and  C_13 
REMARK    6  A    between atoms: C_13  and  C_14 
REMARK    7  A    between atoms: C_13  and  N_26 
REMARK    8  A    between atoms: C_14  and  C_15 
REMARK    9  A    between atoms: C_18  and  O_19 
REMARK   10  A    between atoms: O_19  and  P_20 
REMARK   11  A    between atoms: P_20  and  O_21 
ROOT
HETATM    1  C           1     -20.383  -7.296  -5.149  0.00  0.00     0.278 C 
ENDROOT
BRANCH   1   2
HETATM    2  C           1     -20.343  -8.079  -3.859  0.00  0.00     0.249 C 
HETATM    3  N           1     -21.467  -8.179  -3.085  0.00  0.00    -0.343 N 
HETATM    4  H           1     -22.325  -7.729  -3.377  0.00  0.00     0.163 HD
HETATM    5  O           1     -19.319  -8.616  -3.510  0.00  0.00    -0.271 OA
BRANCH   3   6
HETATM    6  C           1     -21.429  -8.931  -1.845  0.00  0.00     0.214 C 
BRANCH   6   7
HETATM    7  C           1     -22.226  -8.192  -0.779  0.00  0.00     0.147 C 
HETATM    8  C           1     -21.518  -8.318   0.564  0.00  0.00     0.042 C 
BRANCH   7   9
HETATM    9  O           1     -22.329  -6.838  -1.126  0.00  0.00    -0.393 OA
HETATM   10  H           1     -22.481  -6.361  -0.328  0.00  0.00     0.210 HD
ENDBRANCH   7   9
ENDBRANCH   6   7
BRANCH   6  11
HETATM   11  C           1     -22.031 -10.296  -2.066  0.00  0.00     0.199 C 
HETATM   12  O           1     -21.423 -11.144  -2.755  0.00  0.00    -0.646 OA
HETATM   13  O           1     -23.139 -10.581  -1.560  0.00  0.00    -0.646 OA
ENDBRANCH   6  11
ENDBRANCH   3   6
ENDBRANCH   1   2
BRANCH   1  14
HETATM   14  C           1     -20.938  -5.904  -4.882  0.00  0.00     0.081 C 
BRANCH  14  15
HETATM   15  C           1     -21.237  -5.227  -6.184  0.00  0.00    -0.056 A 
HETATM   16  C           1     -22.557  -5.085  -6.610  0.00  0.00     0.010 A 
HETATM   17  C           1     -22.836  -4.454  -7.823  0.00  0.00     0.038 A 
HETATM   18  C           1     -21.793  -3.965  -8.609  0.00  0.00     0.081 A 
HETATM   19  C           1     -20.472  -4.106  -8.183  0.00  0.00     0.038 A 
HETATM   20  C           1     -20.194  -4.737  -6.970  0.00  0.00     0.010 A 
BRANCH  18  21
HETATM   21  O           1     -22.063  -3.352  -9.787  0.00  0.00    -0.247 OA
BRANCH  21  22
HETATM   22  P           1     -21.207  -3.793 -11.084  0.00  0.00     0.411 P 
HETATM   23  O           1     -20.426  -5.009 -10.769  0.00  0.00    -0.624 OA
HETATM   24  O           1     -22.127  -4.074 -12.210  0.00  0.00    -0.624 OA
BRANCH  22  25
HETATM   25  O           1     -20.201  -2.598 -11.498  0.00  0.00    -0.300 OA
HETATM   26  H           1     -20.364  -1.915 -10.871  0.00  0.00     0.223 HD
ENDBRANCH  22  25
ENDBRANCH  21  22
ENDBRANCH  18  21
ENDBRANCH  14  15
ENDBRANCH   1  14
BRANCH   1  27
HETATM   27  N           1     -21.263  -8.004  -6.135  0.00  0.00    -0.066 N 
HETATM   28  H           1     -21.937  -7.324  -6.552  0.00  0.00     0.275 HD
HETATM   29  H           1     -21.790  -8.764  -5.649  0.00  0.00     0.275 HD
HETATM   30  H           1     -20.674  -8.420  -6.893  0.00  0.00     0.275 HD
ENDBRANCH   1  27
TORSDOF 11
ENDMDL
MODEL 9
REMARK VINA RESULT:      -6.2     14.003     15.877
REMARK  11 active torsions:
REMARK  status: ('A' for Active; 'I' for Inactive)
REMARK    1  A    between atoms: C_5  and  O_6 
REMARK    2  A    between atoms: C_5  and  C_7 
REMARK    3  A    between atoms: C_7  and  C_8 
REMARK    4  A    between atoms: C_7  and  N_11 
REMARK       I    between atoms: N_11  and  C_12 
REMARK    5  A    between atoms: C_12  and  C_13 
REMARK    6  A    between atoms: C_13  and  C_14 
REMARK    7  A    between atoms: C_13  and  N_26 
REMARK    8  A    between atoms: C_14  and  C_15 
REMARK    9  A    between atoms: C_18  and  O_19 
REMARK   10  A    between atoms: O_19  and  P_20 
REMARK   11  A    between atoms: P_20  and  O_21 
ROOT
HETATM    1  C           1     -34.204  -4.178 -15.477  0.00  0.00     0.278 C 
ENDROOT
BRANCH   1   2
HETATM    2  C           1     -33.066  -4.072 -16.461  0.00  0.00     0.249 C 
HETATM    3  N           1     -31.982  -4.900 -16.346  0.00  0.00    -0.343 N 
HETATM    4  H           1     -31.944  -5.583 -15.601  0.00  0.00     0.163 HD
HETATM    5  O           1     -33.110  -3.256 -17.351  0.00  0.00    -0.271 OA
BRANCH   3   6
HETATM    6  C           1     -30.887  -4.797 -17.292  0.00  0.00     0.214 C 
BRANCH   6   7
HETATM    7  C           1     -29.964  -3.659 -16.879  0.00  0.00     0.147 C 
HETATM    8  C           1     -28.537  -3.983 -17.300  0.00  0.00     0.042 C 
BRANCH   7   9
HETATM    9  O           1     -30.376  -2.473 -17.502  0.00  0.00    -0.393 OA
HETATM   10  H           1     -30.590  -1.863 -16.816  0.00  0.00     0.210 HD
ENDBRANCH   7   9
ENDBRANCH   6   7
BRANCH   6  11
HETATM   11  C           1     -30.112  -6.092 -17.306  0.00  0.00     0.199 C 
HETATM   12  O           1     -29.973  -6.724 -18.376  0.00  0.00    -0.646 OA
HETATM   13  O           1     -29.611  -6.533 -16.249  0.00  0.00    -0.646 OA
ENDBRANCH   6  11
ENDBRANCH   3   6
ENDBRANCH   1   2
BRANCH   1  14
HETATM   14  C           1     -33.650  -4.210 -14.059  0.00  0.00     0.081 C 
BRANCH  14  15
HETATM   15  C           1     -34.219  -3.070 -13.274  0.00  0.00    -0.056 A 
HETATM   16  C           1     -34.945  -2.071 -13.921  0.00  0.00     0.010 A 
HETATM   17  C           1     -35.477  -1.008 -13.190  0.00  0.00     0.038 A 
HETATM   18  C           1     -35.282  -0.946 -11.810  0.00  0.00     0.081 A 
HETATM   19  C           1     -34.557  -1.946 -11.162  0.00  0.00     0.038 A 
HETATM   20  C           1     -34.025  -3.008 -11.894  0.00  0.00     0.010 A 
BRANCH  18  21
HETATM   21  O           1     -35.798   0.086 -11.100  0.00  0.00    -0.247 OA
BRANCH  21  22
HETATM   22  P           1     -37.197  -0.150 -10.329  0.00  0.00     0.411 P 
HETATM   23  O           1     -37.876   1.150 -10.130  0.00  0.00    -0.624 OA
HETATM   24  O           1     -38.062  -1.041 -11.136  0.00  0.00    -0.624 OA
BRANCH  22  25
HETATM   25  O           1     -36.914  -0.833  -8.893  0.00  0.00    -0.300 OA
HETATM   26  H           1     -36.420  -0.192  -8.412  0.00  0.00     0.223 HD
ENDBRANCH  22  25
ENDBRANCH  21  22
ENDBRANCH  18  21
ENDBRANCH  14  15
ENDBRANCH   1  14
BRANCH   1  27
HETATM   27  N           1     -34.975  -5.437 -15.739  0.00  0.00    -0.066 N 
HETATM   28  H           1     -35.982  -5.203 -15.896  0.00  0.00     0.275 HD
HETATM   29  H           1     -34.890  -6.076 -14.917  0.00  0.00     0.275 HD
HETATM   30  H           1     -34.593  -5.911 -16.589  0.00  0.00     0.275 HD
ENDBRANCH   1  27
TORSDOF 11
ENDMDL
