MODEL 1
REMARK VINA RESULT:      -5.4      0.000      0.000
REMARK  8 active torsions:
REMARK  status: ('A' for Active; 'I' for Inactive)
REMARK    1  A    between atoms: C_1  and  C_9 
REMARK    2  A    between atoms: C_1  and  C_20 
REMARK    3  A    between atoms: C_1  and  N_15 
REMARK    4  A    between atoms: N_6  and  C_19 
REMARK    5  A    between atoms: O_7  and  C_11 
REMARK    6  A    between atoms: C_9  and  S_17 
REMARK       I    between atoms: C_10  and  N_15 
REMARK    7  A    between atoms: C_10  and  C_19 
REMARK    8  A    between atoms: C_11  and  C_19 
ROOT
HETATM    1  H           1     -22.382  -5.660  -9.438  0.00  0.00     0.163 HD
HETATM    2  C           1     -21.798  -4.574  -7.776  0.00  0.00     0.251 C 
HETATM    3  O           1     -21.758  -3.476  -7.274  0.00  0.00    -0.271 OA
HETATM    4  N           1     -22.350  -4.740  -9.018  0.00  0.00    -0.344 N 
ENDROOT
BRANCH   2   5
HETATM    5  C           1     -21.238  -5.764  -7.035  0.00  0.00     0.302 C 
BRANCH   5   6
HETATM    6  N           1     -19.867  -6.076  -7.557  0.00  0.00    -0.064 N 
HETATM    7  H           1     -19.176  -5.411  -7.141  0.00  0.00     0.275 HD
HETATM    8  H           1     -19.609  -7.054  -7.294  0.00  0.00     0.275 HD
HETATM    9  H           1     -19.860  -5.982  -8.598  0.00  0.00     0.275 HD
ENDBRANCH   5   6
BRANCH   5  10
HETATM   10  C           1     -21.153  -5.443  -5.549  0.00  0.00     0.153 C 
HETATM   11  C           1     -21.002  -6.736  -4.759  0.00  0.00     0.042 C 
BRANCH  10  12
HETATM   12  O           1     -20.045  -4.618  -5.310  0.00  0.00    -0.393 OA
HETATM   13  H           1     -20.234  -4.124  -4.530  0.00  0.00     0.210 HD
ENDBRANCH  10  12
ENDBRANCH   5  10
ENDBRANCH   2   5
BRANCH   4  14
HETATM   14  C           1     -22.889  -3.597  -9.730  0.00  0.00     0.194 C 
BRANCH  14  15
HETATM   15  C           1     -22.029  -3.311 -10.954  0.00  0.00     0.106 C 
BRANCH  15  16
HETATM   16  S           1     -20.517  -4.313 -10.879  0.00  0.00    -0.180 SA
HETATM   17  H           1     -20.544  -4.704 -12.166  0.00  0.00     0.101 HD
ENDBRANCH  15  16
ENDBRANCH  14  15
BRANCH  14  18
HETATM   18  C           1     -24.302  -3.898 -10.166  0.00  0.00     0.197 C 
HETATM   19  O           1     -24.862  -4.950  -9.787  0.00  0.00    -0.646 OA
HETATM   20  O           1     -24.912  -3.097 -10.906  0.00  0.00    -0.646 OA
ENDBRANCH  14  18
ENDBRANCH   4  14
TORSDOF 8
ENDMDL
MODEL 2
REMARK VINA RESULT:      -4.8     18.266     19.808
REMARK  8 active torsions:
REMARK  status: ('A' for Active; 'I' for Inactive)
REMARK    1  A    between atoms: C_1  and  C_9 
REMARK    2  A    between atoms: C_1  and  C_20 
REMARK    3  A    between atoms: C_1  and  N_15 
REMARK    4  A    between atoms: N_6  and  C_19 
REMARK    5  A    between atoms: O_7  and  C_11 
REMARK    6  A    between atoms: C_9  and  S_17 
REMARK       I    between atoms: C_10  and  N_15 
REMARK    7  A    between atoms: C_10  and  C_19 
REMARK    8  A    between atoms: C_11  and  C_19 
ROOT
HETATM    1  H           1     -10.736   5.819 -21.380  0.00  0.00     0.163 HD
HETATM    2  C           1     -11.837   7.034 -20.118  0.00  0.00     0.251 C 
HETATM    3  O           1     -12.865   7.140 -19.492  0.00  0.00    -0.271 OA
HETATM    4  N           1     -11.597   5.906 -20.856  0.00  0.00    -0.344 N 
ENDROOT
BRANCH   2   5
HETATM    5  C           1     -10.817   8.146 -20.087  0.00  0.00     0.302 C 
BRANCH   5   6
HETATM    6  N           1     -10.283   8.295 -18.693  0.00  0.00    -0.064 N 
HETATM    7  H           1     -10.974   8.820 -18.110  0.00  0.00     0.275 HD
HETATM    8  H           1     -10.125   7.349 -18.277  0.00  0.00     0.275 HD
HETATM    9  H           1      -9.379   8.818 -18.720  0.00  0.00     0.275 HD
ENDBRANCH   5   6
BRANCH   5  10
HETATM   10  C           1      -9.672   7.812 -21.034  0.00  0.00     0.153 C 
HETATM   11  C           1      -8.841   9.063 -21.287  0.00  0.00     0.042 C 
BRANCH  10  12
HETATM   12  O           1      -8.862   6.822 -20.460  0.00  0.00    -0.393 OA
HETATM   13  H           1      -8.675   6.194 -21.137  0.00  0.00     0.210 HD
ENDBRANCH  10  12
ENDBRANCH   5  10
ENDBRANCH   2   5
BRANCH   4  14
HETATM   14  C           1     -12.577   4.837 -20.886  0.00  0.00     0.194 C 
BRANCH  14  15
HETATM   15  C           1     -13.232   4.789 -22.259  0.00  0.00     0.106 C 
BRANCH  15  16
HETATM   16  S           1     -15.005   5.143 -22.097  0.00  0.00    -0.180 SA
HETATM   17  H           1     -15.424   4.104 -22.843  0.00  0.00     0.101 HD
ENDBRANCH  15  16
ENDBRANCH  14  15
BRANCH  14  18
HETATM   18  C           1     -11.892   3.521 -20.607  0.00  0.00     0.197 C 
HETATM   19  O           1     -10.843   3.495 -19.929  0.00  0.00    -0.646 OA
HETATM   20  O           1     -12.375   2.459 -21.054  0.00  0.00    -0.646 OA
ENDBRANCH  14  18
ENDBRANCH   4  14
TORSDOF 8
ENDMDL
MODEL 3
REMARK VINA RESULT:      -4.8     18.156     19.742
REMARK  8 active torsions:
REMARK  status: ('A' for Active; 'I' for Inactive)
REMARK    1  A    between atoms: C_1  and  C_9 
REMARK    2  A    between atoms: C_1  and  C_20 
REMARK    3  A    between atoms: C_1  and  N_15 
REMARK    4  A    between atoms: N_6  and  C_19 
REMARK    5  A    between atoms: O_7  and  C_11 
REMARK    6  A    between atoms: C_9  and  S_17 
REMARK       I    between atoms: C_10  and  N_15 
REMARK    7  A    between atoms: C_10  and  C_19 
REMARK    8  A    between atoms: C_11  and  C_19 
ROOT
HETATM    1  H           1     -11.754   6.276 -21.477  0.00  0.00     0.163 HD
HETATM    2  C           1     -10.542   6.658 -19.843  0.00  0.00     0.251 C 
HETATM    3  O           1     -10.129   6.225 -18.793  0.00  0.00    -0.271 OA
HETATM    4  N           1     -11.409   5.913 -20.597  0.00  0.00    -0.344 N 
ENDROOT
BRANCH   2   5
HETATM    5  C           1     -10.101   8.018 -20.324  0.00  0.00     0.302 C 
BRANCH   5   6
HETATM    6  N           1     -10.636   8.257 -21.705  0.00  0.00    -0.064 N 
HETATM    7  H           1     -11.622   7.916 -21.760  0.00  0.00     0.275 HD
HETATM    8  H           1     -10.610   9.280 -21.916  0.00  0.00     0.275 HD
HETATM    9  H           1     -10.049   7.743 -22.399  0.00  0.00     0.275 HD
ENDBRANCH   5   6
BRANCH   5  10
HETATM   10  C           1     -10.636   9.088 -19.381  0.00  0.00     0.153 C 
HETATM   11  C           1     -12.159   9.069 -19.405  0.00  0.00     0.042 C 
BRANCH  10  12
HETATM   12  O           1     -10.187   8.831 -18.078  0.00  0.00    -0.393 OA
HETATM   13  H           1      -9.671   9.574 -17.814  0.00  0.00     0.210 HD
ENDBRANCH  10  12
ENDBRANCH   5  10
ENDBRANCH   2   5
BRANCH   4  14
HETATM   14  C           1     -11.832   4.605 -20.136  0.00  0.00     0.194 C 
BRANCH  14  15
HETATM   15  C           1     -13.353   4.544 -20.113  0.00  0.00     0.106 C 
BRANCH  15  16
HETATM   16  S           1     -14.011   5.243 -21.653  0.00  0.00    -0.180 SA
HETATM   17  H           1     -13.569   6.495 -21.439  0.00  0.00     0.101 HD
ENDBRANCH  15  16
ENDBRANCH  14  15
BRANCH  14  18
HETATM   18  C           1     -11.299   3.547 -21.071  0.00  0.00     0.197 C 
HETATM   19  O           1     -10.711   3.881 -22.122  0.00  0.00    -0.646 OA
HETATM   20  O           1     -11.445   2.337 -20.793  0.00  0.00    -0.646 OA
ENDBRANCH  14  18
ENDBRANCH   4  14
TORSDOF 8
ENDMDL
MODEL 4
REMARK VINA RESULT:      -4.7      3.054      5.923
REMARK  8 active torsions:
REMARK  status: ('A' for Active; 'I' for Inactive)
REMARK    1  A    between atoms: C_1  and  C_9 
REMARK    2  A    between atoms: C_1  and  C_20 
REMARK    3  A    between atoms: C_1  and  N_15 
REMARK    4  A    between atoms: N_6  and  C_19 
REMARK    5  A    between atoms: O_7  and  C_11 
REMARK    6  A    between atoms: C_9  and  S_17 
REMARK       I    between atoms: C_10  and  N_15 
REMARK    7  A    between atoms: C_10  and  C_19 
REMARK    8  A    between atoms: C_11  and  C_19 
ROOT
HETATM    1  H           1     -20.823  -4.881  -4.408  0.00  0.00     0.163 HD
HETATM    2  C           1     -20.938  -5.610  -6.342  0.00  0.00     0.251 C 
HETATM    3  O           1     -21.152  -6.586  -7.022  0.00  0.00    -0.271 OA
HETATM    4  N           1     -21.003  -5.699  -4.977  0.00  0.00    -0.344 N 
ENDROOT
BRANCH   2   5
HETATM    5  C           1     -20.600  -4.293  -6.996  0.00  0.00     0.302 C 
BRANCH   5   6
HETATM    6  N           1     -19.530  -4.507  -8.025  0.00  0.00    -0.064 N 
HETATM    7  H           1     -19.844  -5.233  -8.709  0.00  0.00     0.275 HD
HETATM    8  H           1     -19.347  -3.610  -8.529  0.00  0.00     0.275 HD
HETATM    9  H           1     -18.653  -4.826  -7.554  0.00  0.00     0.275 HD
ENDBRANCH   5   6
BRANCH   5  10
HETATM   10  C           1     -21.844  -3.727  -7.669  0.00  0.00     0.153 C 
HETATM   11  C           1     -21.792  -4.022  -9.163  0.00  0.00     0.042 C 
BRANCH  10  12
HETATM   12  O           1     -22.987  -4.320  -7.116  0.00  0.00    -0.393 OA
HETATM   13  H           1     -23.435  -3.649  -6.629  0.00  0.00     0.210 HD
ENDBRANCH  10  12
ENDBRANCH   5  10
ENDBRANCH   2   5
BRANCH   4  14
HETATM   14  C           1     -21.327  -6.964  -4.347  0.00  0.00     0.194 C 
BRANCH  14  15
HETATM   15  C           1     -20.149  -7.918  -4.488  0.00  0.00     0.106 C 
BRANCH  15  16
HETATM   16  S           1     -20.755  -9.564  -4.953  0.00  0.00    -0.180 SA
HETATM   17  H           1     -21.814  -9.130  -5.659  0.00  0.00     0.101 HD
ENDBRANCH  15  16
ENDBRANCH  14  15
BRANCH  14  18
HETATM   18  C           1     -21.619  -6.736  -2.884  0.00  0.00     0.197 C 
HETATM   19  O           1     -20.974  -7.360  -2.014  0.00  0.00    -0.646 OA
HETATM   20  O           1     -22.505  -5.924  -2.543  0.00  0.00    -0.646 OA
ENDBRANCH  14  18
ENDBRANCH   4  14
TORSDOF 8
ENDMDL
MODEL 5
REMARK VINA RESULT:      -4.6     18.349     19.915
REMARK  8 active torsions:
REMARK  status: ('A' for Active; 'I' for Inactive)
REMARK    1  A    between atoms: C_1  and  C_9 
REMARK    2  A    between atoms: C_1  and  C_20 
REMARK    3  A    between atoms: C_1  and  N_15 
REMARK    4  A    between atoms: N_6  and  C_19 
REMARK    5  A    between atoms: O_7  and  C_11 
REMARK    6  A    between atoms: C_9  and  S_17 
REMARK       I    between atoms: C_10  and  N_15 
REMARK    7  A    between atoms: C_10  and  C_19 
REMARK    8  A    between atoms: C_11  and  C_19 
ROOT
HETATM    1  H           1     -10.835   6.059 -19.200  0.00  0.00     0.163 HD
HETATM    2  C           1     -12.479   6.063 -20.457  0.00  0.00     0.251 C 
HETATM    3  O           1     -13.083   6.689 -21.297  0.00  0.00    -0.271 OA
HETATM    4  N           1     -11.340   6.583 -19.904  0.00  0.00    -0.344 N 
ENDROOT
BRANCH   2   5
HETATM    5  C           1     -12.981   4.710 -20.018  0.00  0.00     0.302 C 
BRANCH   5   6
HETATM    6  N           1     -14.479   4.683 -20.097  0.00  0.00    -0.064 N 
HETATM    7  H           1     -14.838   3.835 -19.604  0.00  0.00     0.275 HD
HETATM    8  H           1     -14.867   5.540 -19.641  0.00  0.00     0.275 HD
HETATM    9  H           1     -14.774   4.657 -21.099  0.00  0.00     0.275 HD
ENDBRANCH   5   6
BRANCH   5  10
HETATM   10  C           1     -12.407   3.634 -20.931  0.00  0.00     0.153 C 
HETATM   11  C           1     -13.495   3.130 -21.869  0.00  0.00     0.042 C 
BRANCH  10  12
HETATM   12  O           1     -11.354   4.173 -21.684  0.00  0.00    -0.393 OA
HETATM   13  H           1     -11.541   5.089 -21.800  0.00  0.00     0.210 HD
ENDBRANCH  10  12
ENDBRANCH   5  10
ENDBRANCH   2   5
BRANCH   4  14
HETATM   14  C           1     -10.857   7.884 -20.326  0.00  0.00     0.194 C 
BRANCH  14  15
HETATM   15  C           1     -10.977   8.868 -19.171  0.00  0.00     0.106 C 
BRANCH  15  16
HETATM   16  S           1     -12.638   9.599 -19.167  0.00  0.00    -0.180 SA
HETATM   17  H           1     -12.763   9.669 -20.505  0.00  0.00     0.101 HD
ENDBRANCH  15  16
ENDBRANCH  14  15
BRANCH  14  18
HETATM   18  C           1      -9.411   7.771 -20.745  0.00  0.00     0.197 C 
HETATM   19  O           1      -8.800   6.691 -20.593  0.00  0.00    -0.646 OA
HETATM   20  O           1      -8.826   8.756 -21.242  0.00  0.00    -0.646 OA
ENDBRANCH  14  18
ENDBRANCH   4  14
TORSDOF 8
ENDMDL
MODEL 6
REMARK VINA RESULT:      -4.5     18.529     20.101
REMARK  8 active torsions:
REMARK  status: ('A' for Active; 'I' for Inactive)
REMARK    1  A    between atoms: C_1  and  C_9 
REMARK    2  A    between atoms: C_1  and  C_20 
REMARK    3  A    between atoms: C_1  and  N_15 
REMARK    4  A    between atoms: N_6  and  C_19 
REMARK    5  A    between atoms: O_7  and  C_11 
REMARK    6  A    between atoms: C_9  and  S_17 
REMARK       I    between atoms: C_10  and  N_15 
REMARK    7  A    between atoms: C_10  and  C_19 
REMARK    8  A    between atoms: C_11  and  C_19 
ROOT
HETATM    1  H           1     -11.171   7.399 -21.518  0.00  0.00     0.163 HD
HETATM    2  C           1     -12.686   6.726 -20.278  0.00  0.00     0.251 C 
HETATM    3  O           1     -13.452   7.031 -19.395  0.00  0.00    -0.271 OA
HETATM    4  N           1     -11.813   7.655 -20.778  0.00  0.00    -0.344 N 
ENDROOT
BRANCH   2   5
HETATM    5  C           1     -12.692   5.322 -20.831  0.00  0.00     0.302 C 
BRANCH   5   6
HETATM    6  N           1     -11.837   5.267 -22.062  0.00  0.00    -0.064 N 
HETATM    7  H           1     -11.369   4.334 -22.120  0.00  0.00     0.275 HD
HETATM    8  H           1     -12.434   5.409 -22.907  0.00  0.00     0.275 HD
HETATM    9  H           1     -11.112   6.019 -22.017  0.00  0.00     0.275 HD
ENDBRANCH   5   6
BRANCH   5  10
HETATM   10  C           1     -12.138   4.363 -19.785  0.00  0.00     0.153 C 
HETATM   11  C           1     -11.169   3.393 -20.449  0.00  0.00     0.042 C 
BRANCH  10  12
HETATM   12  O           1     -11.464   5.090 -18.794  0.00  0.00    -0.393 OA
HETATM   13  H           1     -11.020   5.799 -19.228  0.00  0.00     0.210 HD
ENDBRANCH  10  12
ENDBRANCH   5  10
ENDBRANCH   2   5
BRANCH   4  14
HETATM   14  C           1     -11.807   9.005 -20.248  0.00  0.00     0.194 C 
BRANCH  14  15
HETATM   15  C           1     -10.373   9.435 -19.972  0.00  0.00     0.106 C 
BRANCH  15  16
HETATM   16  S           1      -9.245   8.512 -21.054  0.00  0.00    -0.180 SA
HETATM   17  H           1      -8.464   9.560 -21.369  0.00  0.00     0.101 HD
ENDBRANCH  15  16
ENDBRANCH  14  15
BRANCH  14  18
HETATM   18  C           1     -12.430   9.942 -21.254  0.00  0.00     0.197 C 
HETATM   19  O           1     -11.814  10.966 -21.618  0.00  0.00    -0.646 OA
HETATM   20  O           1     -13.561   9.693 -21.723  0.00  0.00    -0.646 OA
ENDBRANCH  14  18
ENDBRANCH   4  14
TORSDOF 8
ENDMDL
MODEL 7
REMARK VINA RESULT:      -4.5      3.115      5.743
REMARK  8 active torsions:
REMARK  status: ('A' for Active; 'I' for Inactive)
REMARK    1  A    between atoms: C_1  and  C_9 
REMARK    2  A    between atoms: C_1  and  C_20 
REMARK    3  A    between atoms: C_1  and  N_15 
REMARK    4  A    between atoms: N_6  and  C_19 
REMARK    5  A    between atoms: O_7  and  C_11 
REMARK    6  A    between atoms: C_9  and  S_17 
REMARK       I    between atoms: C_10  and  N_15 
REMARK    7  A    between atoms: C_10  and  C_19 
REMARK    8  A    between atoms: C_11  and  C_19 
ROOT
HETATM    1  H           1     -21.033  -6.766  -7.059  0.00  0.00     0.163 HD
HETATM    2  C           1     -20.447  -4.950  -6.259  0.00  0.00     0.251 C 
HETATM    3  O           1     -20.105  -4.375  -5.253  0.00  0.00    -0.271 OA
HETATM    4  N           1     -20.746  -6.285  -6.216  0.00  0.00    -0.344 N 
ENDROOT
BRANCH   2   5
HETATM    5  C           1     -20.546  -4.196  -7.563  0.00  0.00     0.302 C 
BRANCH   5   6
HETATM    6  N           1     -20.067  -5.071  -8.683  0.00  0.00    -0.064 N 
HETATM    7  H           1     -19.149  -5.497  -8.424  0.00  0.00     0.275 HD
HETATM    8  H           1     -20.766  -5.829  -8.855  0.00  0.00     0.275 HD
HETATM    9  H           1     -19.955  -4.498  -9.549  0.00  0.00     0.275 HD
ENDBRANCH   5   6
BRANCH   5  10
HETATM   10  C           1     -21.996  -3.801  -7.812  0.00  0.00     0.153 C 
HETATM   11  C           1     -22.457  -4.381  -9.143  0.00  0.00     0.042 C 
BRANCH  10  12
HETATM   12  O           1     -22.802  -4.302  -6.780  0.00  0.00    -0.393 OA
HETATM   13  H           1     -22.247  -4.828  -6.230  0.00  0.00     0.210 HD
ENDBRANCH  10  12
ENDBRANCH   5  10
ENDBRANCH   2   5
BRANCH   4  14
HETATM   14  C           1     -20.651  -7.010  -4.964  0.00  0.00     0.194 C 
BRANCH  14  15
HETATM   15  C           1     -21.997  -6.975  -4.254  0.00  0.00     0.106 C 
BRANCH  15  16
HETATM   16  S           1     -21.773  -6.360  -2.561  0.00  0.00    -0.180 SA
HETATM   17  H           1     -21.487  -7.556  -2.015  0.00  0.00     0.101 HD
ENDBRANCH  15  16
ENDBRANCH  14  15
BRANCH  14  18
HETATM   18  C           1     -20.264  -8.442  -5.241  0.00  0.00     0.197 C 
HETATM   19  O           1     -19.139  -8.704  -5.720  0.00  0.00    -0.646 OA
HETATM   20  O           1     -21.068  -9.366  -4.993  0.00  0.00    -0.646 OA
ENDBRANCH  14  18
ENDBRANCH   4  14
TORSDOF 8
ENDMDL
MODEL 8
REMARK VINA RESULT:      -4.5      5.641      8.321
REMARK  8 active torsions:
REMARK  status: ('A' for Active; 'I' for Inactive)
REMARK    1  A    between atoms: C_1  and  C_9 
REMARK    2  A    between atoms: C_1  and  C_20 
REMARK    3  A    between atoms: C_1  and  N_15 
REMARK    4  A    between atoms: N_6  and  C_19 
REMARK    5  A    between atoms: O_7  and  C_11 
REMARK    6  A    between atoms: C_9  and  S_17 
REMARK       I    between atoms: C_10  and  N_15 
REMARK    7  A    between atoms: C_10  and  C_19 
REMARK    8  A    between atoms: C_11  and  C_19 
ROOT
HETATM    1  H           1     -20.291  -7.544  -1.811  0.00  0.00     0.163 HD
HETATM    2  C           1     -21.224  -8.519  -3.379  0.00  0.00     0.251 C 
HETATM    3  O           1     -22.083  -9.314  -3.681  0.00  0.00    -0.271 OA
HETATM    4  N           1     -21.011  -8.209  -2.063  0.00  0.00    -0.344 N 
ENDROOT
BRANCH   2   5
HETATM    5  C           1     -20.385  -7.870  -4.453  0.00  0.00     0.302 C 
BRANCH   5   6
HETATM    6  N           1     -20.483  -8.672  -5.716  0.00  0.00    -0.064 N 
HETATM    7  H           1     -19.954  -9.566  -5.604  0.00  0.00     0.275 HD
HETATM    8  H           1     -21.486  -8.885  -5.916  0.00  0.00     0.275 HD
HETATM    9  H           1     -20.079  -8.124  -6.509  0.00  0.00     0.275 HD
ENDBRANCH   5   6
BRANCH   5  10
HETATM   10  C           1     -20.892  -6.457  -4.708  0.00  0.00     0.153 C 
HETATM   11  C           1     -21.279  -6.315  -6.174  0.00  0.00     0.042 C 
BRANCH  10  12
HETATM   12  O           1     -22.012  -6.209  -3.904  0.00  0.00    -0.393 OA
HETATM   13  H           1     -21.922  -6.746  -3.134  0.00  0.00     0.210 HD
ENDBRANCH  10  12
ENDBRANCH   5  10
ENDBRANCH   2   5
BRANCH   4  14
HETATM   14  C           1     -21.817  -8.832  -1.031  0.00  0.00     0.194 C 
BRANCH  14  15
HETATM   15  C           1     -20.905  -9.483  -0.000  0.00  0.00     0.106 C 
BRANCH  15  16
HETATM   16  S           1     -21.418 -11.205   0.260  0.00  0.00    -0.180 SA
HETATM   17  H           1     -22.470 -10.920   1.049  0.00  0.00     0.101 HD
ENDBRANCH  15  16
ENDBRANCH  14  15
BRANCH  14  18
HETATM   18  C           1     -22.670  -7.784  -0.359  0.00  0.00     0.197 C 
HETATM   19  O           1     -23.314  -8.071   0.674  0.00  0.00    -0.646 OA
HETATM   20  O           1     -22.733  -6.630  -0.835  0.00  0.00    -0.646 OA
ENDBRANCH  14  18
ENDBRANCH   4  14
TORSDOF 8
ENDMDL
MODEL 9
REMARK VINA RESULT:      -4.4      5.178      6.997
REMARK  8 active torsions:
REMARK  status: ('A' for Active; 'I' for Inactive)
REMARK    1  A    between atoms: C_1  and  C_9 
REMARK    2  A    between atoms: C_1  and  C_20 
REMARK    3  A    between atoms: C_1  and  N_15 
REMARK    4  A    between atoms: N_6  and  C_19 
REMARK    5  A    between atoms: O_7  and  C_11 
REMARK    6  A    between atoms: C_9  and  S_17 
REMARK       I    between atoms: C_10  and  N_15 
REMARK    7  A    between atoms: C_10  and  C_19 
REMARK    8  A    between atoms: C_11  and  C_19 
ROOT
HETATM    1  H           1     -22.378  -8.782  -3.650  0.00  0.00     0.163 HD
HETATM    2  C           1     -21.143  -8.423  -2.028  0.00  0.00     0.251 C 
HETATM    3  O           1     -20.100  -7.930  -1.667  0.00  0.00    -0.271 OA
HETATM    4  N           1     -21.505  -8.369  -3.348  0.00  0.00    -0.344 N 
ENDROOT
BRANCH   2   5
HETATM    5  C           1     -22.046  -9.098  -1.026  0.00  0.00     0.302 C 
BRANCH   5   6
HETATM    6  N           1     -21.229  -9.990  -0.139  0.00  0.00    -0.064 N 
HETATM    7  H           1     -21.582 -10.971  -0.212  0.00  0.00     0.275 HD
HETATM    8  H           1     -20.229  -9.958  -0.439  0.00  0.00     0.275 HD
HETATM    9  H           1     -21.306  -9.663   0.850  0.00  0.00     0.275 HD
ENDBRANCH   5   6
BRANCH   5  10
HETATM   10  C           1     -22.743  -8.042  -0.178  0.00  0.00     0.153 C 
HETATM   11  C           1     -22.066  -7.956   1.184  0.00  0.00     0.042 C 
BRANCH  10  12
HETATM   12  O           1     -22.660  -6.797  -0.819  0.00  0.00    -0.393 OA
HETATM   13  H           1     -22.588  -6.969  -1.743  0.00  0.00     0.210 HD
ENDBRANCH  10  12
ENDBRANCH   5  10
ENDBRANCH   2   5
BRANCH   4  14
HETATM   14  C           1     -20.637  -7.720  -4.312  0.00  0.00     0.194 C 
BRANCH  14  15
HETATM   15  C           1     -19.831  -8.774  -5.058  0.00  0.00     0.106 C 
BRANCH  15  16
HETATM   16  S           1     -20.819 -10.288  -5.223  0.00  0.00    -0.180 SA
HETATM   17  H           1     -20.062 -10.845  -6.186  0.00  0.00     0.101 HD
ENDBRANCH  15  16
ENDBRANCH  14  15
BRANCH  14  18
HETATM   18  C           1     -21.475  -6.937  -5.294  0.00  0.00     0.197 C 
HETATM   19  O           1     -22.467  -6.291  -4.892  0.00  0.00    -0.646 OA
HETATM   20  O           1     -21.177  -6.935  -6.507  0.00  0.00    -0.646 OA
ENDBRANCH  14  18
ENDBRANCH   4  14
TORSDOF 8
ENDMDL
