MODEL 1
REMARK VINA RESULT:      -5.3      0.000      0.000
REMARK  7 active torsions:
REMARK  status: ('A' for Active; 'I' for Inactive)
REMARK    1  A    between atoms: N_1  and  C_6 
REMARK    2  A    between atoms: C_3  and  C_16 
REMARK    3  A    between atoms: C_3  and  N_4 
REMARK       I    between atoms: N_4  and  C_5 
REMARK    4  A    between atoms: C_5  and  C_6 
REMARK    5  A    between atoms: C_6  and  C_7 
REMARK    6  A    between atoms: C_7  and  C_8 
REMARK    7  A    between atoms: C_8  and  Se_9 
ROOT
HETATM    1  C           1     -29.355  -6.888 -17.848  0.00  0.00     0.274 C 
ENDROOT
BRANCH   1   2
HETATM    2  N           1     -29.464  -8.195 -18.577  0.00  0.00    -0.067 N 
HETATM    3  H           1     -29.292  -8.040 -19.596  0.00  0.00     0.275 HD
HETATM    4  H           1     -28.755  -8.863 -18.202  0.00  0.00     0.275 HD
HETATM    5  H           1     -30.423  -8.589 -18.442  0.00  0.00     0.275 HD
ENDBRANCH   1   2
BRANCH   1   6
HETATM    6  C           1     -28.240  -6.970 -16.834  0.00  0.00     0.248 C 
HETATM    7  O           1     -28.412  -7.559 -15.793  0.00  0.00    -0.271 OA
HETATM    8  N           1     -27.034  -6.378 -17.094  0.00  0.00    -0.349 N 
HETATM    9  H           1     -26.889  -5.885 -17.966  0.00  0.00     0.163 HD
BRANCH   8  10
HETATM   10  C           1     -25.962  -6.457 -16.121  0.00  0.00     0.235 C 
BRANCH  10  11
HETATM   11  C           1     -24.789  -7.193 -16.720  0.00  0.00     0.191 C 
HETATM   12  O           1     -24.333  -8.209 -16.152  0.00  0.00    -0.647 OA
HETATM   13  O           1     -24.273  -6.787 -17.783  0.00  0.00    -0.647 OA
ENDBRANCH  10  11
ENDBRANCH   8  10
ENDBRANCH   1   6
BRANCH   1  14
HETATM   14  C           1     -30.668  -6.593 -17.136  0.00  0.00     0.042 C 
BRANCH  14  15
HETATM   15  C           1     -30.561  -5.263 -16.402  0.00  0.00     0.003 C 
BRANCH  15  16
HETATM   16 Se           1     -30.504  -3.808 -17.698  0.00  0.00     0.000 Se
HETATM   17  C           1     -28.724  -3.202 -17.184  0.00  0.00     0.000 C 
ENDBRANCH  15  16
ENDBRANCH  14  15
ENDBRANCH   1  14
TORSDOF 7
ENDMDL
MODEL 2
REMARK VINA RESULT:      -5.2      9.418     10.635
REMARK  7 active torsions:
REMARK  status: ('A' for Active; 'I' for Inactive)
REMARK    1  A    between atoms: N_1  and  C_6 
REMARK    2  A    between atoms: C_3  and  C_16 
REMARK    3  A    between atoms: C_3  and  N_4 
REMARK       I    between atoms: N_4  and  C_5 
REMARK    4  A    between atoms: C_5  and  C_6 
REMARK    5  A    between atoms: C_6  and  C_7 
REMARK    6  A    between atoms: C_7  and  C_8 
REMARK    7  A    between atoms: C_8  and  Se_9 
ROOT
HETATM    1  C           1     -34.568  -1.505 -11.862  0.00  0.00     0.274 C 
ENDROOT
BRANCH   1   2
HETATM    2  N           1     -35.250  -1.468 -10.526  0.00  0.00    -0.067 N 
HETATM    3  H           1     -34.530  -1.443  -9.768  0.00  0.00     0.275 HD
HETATM    4  H           1     -35.850  -0.615 -10.464  0.00  0.00     0.275 HD
HETATM    5  H           1     -35.842  -2.322 -10.414  0.00  0.00     0.275 HD
ENDBRANCH   1   2
BRANCH   1   6
HETATM    6  C           1     -35.518  -1.007 -12.924  0.00  0.00     0.248 C 
HETATM    7  O           1     -36.711  -1.123 -12.770  0.00  0.00    -0.271 OA
HETATM    8  N           1     -35.028  -0.424 -14.061  0.00  0.00    -0.349 N 
HETATM    9  H           1     -34.029  -0.326 -14.190  0.00  0.00     0.163 HD
BRANCH   8  10
HETATM   10  C           1     -35.941   0.055 -15.081  0.00  0.00     0.235 C 
BRANCH  10  11
HETATM   11  C           1     -35.825  -0.815 -16.309  0.00  0.00     0.191 C 
HETATM   12  O           1     -36.738  -0.815 -17.163  0.00  0.00    -0.647 OA
HETATM   13  O           1     -34.817  -1.535 -16.473  0.00  0.00    -0.647 OA
ENDBRANCH  10  11
ENDBRANCH   8  10
ENDBRANCH   1   6
BRANCH   1  14
HETATM   14  C           1     -34.153  -2.934 -12.180  0.00  0.00     0.042 C 
BRANCH  14  15
HETATM   15  C           1     -34.384  -3.815 -10.960  0.00  0.00     0.003 C 
BRANCH  15  16
HETATM   16 Se           1     -33.467  -5.518 -11.204  0.00  0.00     0.000 Se
HETATM   17  C           1     -34.733  -6.539 -10.129  0.00  0.00     0.000 C 
ENDBRANCH  15  16
ENDBRANCH  14  15
ENDBRANCH   1  14
TORSDOF 7
ENDMDL
MODEL 3
REMARK VINA RESULT:      -5.0      2.816      3.631
REMARK  7 active torsions:
REMARK  status: ('A' for Active; 'I' for Inactive)
REMARK    1  A    between atoms: N_1  and  C_6 
REMARK    2  A    between atoms: C_3  and  C_16 
REMARK    3  A    between atoms: C_3  and  N_4 
REMARK       I    between atoms: N_4  and  C_5 
REMARK    4  A    between atoms: C_5  and  C_6 
REMARK    5  A    between atoms: C_6  and  C_7 
REMARK    6  A    between atoms: C_7  and  C_8 
REMARK    7  A    between atoms: C_8  and  Se_9 
ROOT
HETATM    1  C           1     -27.344  -6.466 -17.093  0.00  0.00     0.274 C 
ENDROOT
BRANCH   1   2
HETATM    2  N           1     -27.014  -7.103 -15.776  0.00  0.00    -0.067 N 
HETATM    3  H           1     -27.894  -7.432 -15.317  0.00  0.00     0.275 HD
HETATM    4  H           1     -26.377  -7.916 -15.931  0.00  0.00     0.275 HD
HETATM    5  H           1     -26.542  -6.402 -15.159  0.00  0.00     0.275 HD
ENDBRANCH   1   2
BRANCH   1   6
HETATM    6  C           1     -26.152  -6.569 -18.013  0.00  0.00     0.248 C 
HETATM    7  O           1     -25.036  -6.422 -17.575  0.00  0.00    -0.271 OA
HETATM    8  N           1     -26.335  -6.829 -19.344  0.00  0.00    -0.349 N 
HETATM    9  H           1     -27.270  -6.953 -19.712  0.00  0.00     0.163 HD
BRANCH   8  10
HETATM   10  C           1     -25.191  -6.928 -20.229  0.00  0.00     0.235 C 
BRANCH  10  11
HETATM   11  C           1     -25.472  -7.945 -21.307  0.00  0.00     0.191 C 
HETATM   12  O           1     -26.538  -8.597 -21.289  0.00  0.00    -0.647 OA
HETATM   13  O           1     -24.639  -8.136 -22.219  0.00  0.00    -0.647 OA
ENDBRANCH  10  11
ENDBRANCH   8  10
ENDBRANCH   1   6
BRANCH   1  14
HETATM   14  C           1     -27.693  -5.001 -16.875  0.00  0.00     0.042 C 
BRANCH  14  15
HETATM   15  C           1     -28.869  -4.620 -17.765  0.00  0.00     0.003 C 
BRANCH  15  16
HETATM   16 Se           1     -30.315  -5.901 -17.516  0.00  0.00     0.000 Se
HETATM   17  C           1     -31.573  -4.591 -16.808  0.00  0.00     0.000 C 
ENDBRANCH  15  16
ENDBRANCH  14  15
ENDBRANCH   1  14
TORSDOF 7
ENDMDL
MODEL 4
REMARK VINA RESULT:      -4.9     10.858     12.453
REMARK  7 active torsions:
REMARK  status: ('A' for Active; 'I' for Inactive)
REMARK    1  A    between atoms: N_1  and  C_6 
REMARK    2  A    between atoms: C_3  and  C_16 
REMARK    3  A    between atoms: C_3  and  N_4 
REMARK       I    between atoms: N_4  and  C_5 
REMARK    4  A    between atoms: C_5  and  C_6 
REMARK    5  A    between atoms: C_6  and  C_7 
REMARK    6  A    between atoms: C_7  and  C_8 
REMARK    7  A    between atoms: C_8  and  Se_9 
ROOT
HETATM    1  C           1     -20.560  -5.430  -7.382  0.00  0.00     0.274 C 
ENDROOT
BRANCH   1   2
HETATM    2  N           1     -19.403  -4.776  -6.687  0.00  0.00    -0.067 N 
HETATM    3  H           1     -18.695  -5.501  -6.429  0.00  0.00     0.275 HD
HETATM    4  H           1     -18.965  -4.074  -7.324  0.00  0.00     0.275 HD
HETATM    5  H           1     -19.743  -4.298  -5.821  0.00  0.00     0.275 HD
ENDBRANCH   1   2
BRANCH   1   6
HETATM    6  C           1     -21.580  -4.382  -7.754  0.00  0.00     0.248 C 
HETATM    7  O           1     -21.504  -3.272  -7.285  0.00  0.00    -0.271 OA
HETATM    8  N           1     -22.592  -4.690  -8.623  0.00  0.00    -0.349 N 
HETATM    9  H           1     -22.656  -5.620  -9.017  0.00  0.00     0.163 HD
BRANCH   8  10
HETATM   10  C           1     -23.572  -3.684  -8.980  0.00  0.00     0.235 C 
BRANCH  10  11
HETATM   11  C           1     -24.173  -4.019 -10.323  0.00  0.00     0.191 C 
HETATM   12  O           1     -25.002  -3.244 -10.848  0.00  0.00    -0.647 OA
HETATM   13  O           1     -23.842  -5.071 -10.911  0.00  0.00    -0.647 OA
ENDBRANCH  10  11
ENDBRANCH   8  10
ENDBRANCH   1   6
BRANCH   1  14
HETATM   14  C           1     -21.197  -6.454  -6.453  0.00  0.00     0.042 C 
BRANCH  14  15
HETATM   15  C           1     -21.315  -5.867  -5.053  0.00  0.00     0.003 C 
BRANCH  15  16
HETATM   16 Se           1     -21.272  -7.305  -3.739  0.00  0.00     0.000 Se
HETATM   17  C           1     -21.990  -6.221  -2.287  0.00  0.00     0.000 C 
ENDBRANCH  15  16
ENDBRANCH  14  15
ENDBRANCH   1  14
TORSDOF 7
ENDMDL
MODEL 5
REMARK VINA RESULT:      -4.7     13.214     14.581
REMARK  7 active torsions:
REMARK  status: ('A' for Active; 'I' for Inactive)
REMARK    1  A    between atoms: N_1  and  C_6 
REMARK    2  A    between atoms: C_3  and  C_16 
REMARK    3  A    between atoms: C_3  and  N_4 
REMARK       I    between atoms: N_4  and  C_5 
REMARK    4  A    between atoms: C_5  and  C_6 
REMARK    5  A    between atoms: C_6  and  C_7 
REMARK    6  A    between atoms: C_7  and  C_8 
REMARK    7  A    between atoms: C_8  and  Se_9 
ROOT
HETATM    1  C           1     -20.537  -6.672  -5.309  0.00  0.00     0.274 C 
ENDROOT
BRANCH   1   2
HETATM    2  N           1     -21.026  -7.753  -6.227  0.00  0.00    -0.067 N 
HETATM    3  H           1     -22.016  -7.559  -6.498  0.00  0.00     0.275 HD
HETATM    4  H           1     -20.429  -7.780  -7.083  0.00  0.00     0.275 HD
HETATM    5  H           1     -20.975  -8.675  -5.735  0.00  0.00     0.275 HD
ENDBRANCH   1   2
BRANCH   1   6
HETATM    6  C           1     -21.584  -6.394  -4.258  0.00  0.00     0.248 C 
HETATM    7  O           1     -22.726  -6.174  -4.586  0.00  0.00    -0.271 OA
HETATM    8  N           1     -21.239  -6.390  -2.934  0.00  0.00    -0.349 N 
HETATM    9  H           1     -20.283  -6.574  -2.658  0.00  0.00     0.163 HD
BRANCH   8  10
HETATM   10  C           1     -22.244  -6.123  -1.923  0.00  0.00     0.235 C 
BRANCH  10  11
HETATM   11  C           1     -22.183  -7.189  -0.856  0.00  0.00     0.191 C 
HETATM   12  O           1     -21.151  -7.880  -0.722  0.00  0.00    -0.647 OA
HETATM   13  O           1     -23.166  -7.380  -0.108  0.00  0.00    -0.647 OA
ENDBRANCH  10  11
ENDBRANCH   8  10
ENDBRANCH   1   6
BRANCH   1  14
HETATM   14  C           1     -20.274  -5.406  -6.112  0.00  0.00     0.042 C 
BRANCH  14  15
HETATM   15  C           1     -20.851  -5.562  -7.513  0.00  0.00     0.003 C 
BRANCH  15  16
HETATM   16 Se           1     -22.066  -4.085  -7.885  0.00  0.00     0.000 Se
HETATM   17  C           1     -22.051  -4.344  -9.816  0.00  0.00     0.000 C 
ENDBRANCH  15  16
ENDBRANCH  14  15
ENDBRANCH   1  14
TORSDOF 7
ENDMDL
MODEL 6
REMARK VINA RESULT:      -4.7      9.179     10.393
REMARK  7 active torsions:
REMARK  status: ('A' for Active; 'I' for Inactive)
REMARK    1  A    between atoms: N_1  and  C_6 
REMARK    2  A    between atoms: C_3  and  C_16 
REMARK    3  A    between atoms: C_3  and  N_4 
REMARK       I    between atoms: N_4  and  C_5 
REMARK    4  A    between atoms: C_5  and  C_6 
REMARK    5  A    between atoms: C_6  and  C_7 
REMARK    6  A    between atoms: C_7  and  C_8 
REMARK    7  A    between atoms: C_8  and  Se_9 
ROOT
HETATM    1  C           1     -33.914  -3.907 -12.054  0.00  0.00     0.274 C 
ENDROOT
BRANCH   1   2
HETATM    2  N           1     -32.426  -4.094 -12.029  0.00  0.00    -0.067 N 
HETATM    3  H           1     -32.082  -4.026 -11.044  0.00  0.00     0.275 HD
HETATM    4  H           1     -32.186  -5.034 -12.416  0.00  0.00     0.275 HD
HETATM    5  H           1     -31.972  -3.351 -12.608  0.00  0.00     0.275 HD
ENDBRANCH   1   2
BRANCH   1   6
HETATM    6  C           1     -34.237  -2.441 -11.895  0.00  0.00     0.248 C 
HETATM    7  O           1     -33.945  -1.865 -10.874  0.00  0.00    -0.271 OA
HETATM    8  N           1     -34.863  -1.764 -12.907  0.00  0.00    -0.349 N 
HETATM    9  H           1     -35.108  -2.246 -13.763  0.00  0.00     0.163 HD
BRANCH   8  10
HETATM   10  C           1     -35.174  -0.356 -12.755  0.00  0.00     0.235 C 
BRANCH  10  11
HETATM   11  C           1     -35.338   0.275 -14.115  0.00  0.00     0.191 C 
HETATM   12  O           1     -36.479   0.560 -14.538  0.00  0.00    -0.647 OA
HETATM   13  O           1     -34.333   0.511 -14.820  0.00  0.00    -0.647 OA
ENDBRANCH  10  11
ENDBRANCH   8  10
ENDBRANCH   1   6
BRANCH   1  14
HETATM   14  C           1     -34.544  -4.693 -10.914  0.00  0.00     0.042 C 
BRANCH  14  15
HETATM   15  C           1     -34.347  -6.184 -11.154  0.00  0.00     0.003 C 
BRANCH  15  16
HETATM   16 Se           1     -34.970  -7.181  -9.600  0.00  0.00     0.000 Se
HETATM   17  C           1     -33.921  -8.775  -9.998  0.00  0.00     0.000 C 
ENDBRANCH  15  16
ENDBRANCH  14  15
ENDBRANCH   1  14
TORSDOF 7
ENDMDL
MODEL 7
REMARK VINA RESULT:      -4.7      1.994      2.524
REMARK  7 active torsions:
REMARK  status: ('A' for Active; 'I' for Inactive)
REMARK    1  A    between atoms: N_1  and  C_6 
REMARK    2  A    between atoms: C_3  and  C_16 
REMARK    3  A    between atoms: C_3  and  N_4 
REMARK       I    between atoms: N_4  and  C_5 
REMARK    4  A    between atoms: C_5  and  C_6 
REMARK    5  A    between atoms: C_6  and  C_7 
REMARK    6  A    between atoms: C_7  and  C_8 
REMARK    7  A    between atoms: C_8  and  Se_9 
ROOT
HETATM    1  C           1     -29.113  -5.980 -16.042  0.00  0.00     0.274 C 
ENDROOT
BRANCH   1   2
HETATM    2  N           1     -29.916  -5.547 -14.852  0.00  0.00    -0.067 N 
HETATM    3  H           1     -29.400  -4.796 -14.338  0.00  0.00     0.275 HD
HETATM    4  H           1     -30.840  -5.179 -15.170  0.00  0.00     0.275 HD
HETATM    5  H           1     -30.064  -6.364 -14.216  0.00  0.00     0.275 HD
ENDBRANCH   1   2
BRANCH   1   6
HETATM    6  C           1     -27.816  -6.596 -15.576  0.00  0.00     0.248 C 
HETATM    7  O           1     -27.830  -7.620 -14.935  0.00  0.00    -0.271 OA
HETATM    8  N           1     -26.625  -5.995 -15.880  0.00  0.00    -0.349 N 
HETATM    9  H           1     -26.612  -5.137 -16.417  0.00  0.00     0.163 HD
BRANCH   8  10
HETATM   10  C           1     -25.379  -6.586 -15.432  0.00  0.00     0.235 C 
BRANCH  10  11
HETATM   11  C           1     -24.702  -7.277 -16.590  0.00  0.00     0.191 C 
HETATM   12  O           1     -24.110  -8.362 -16.411  0.00  0.00    -0.647 OA
HETATM   13  O           1     -24.735  -6.763 -17.730  0.00  0.00    -0.647 OA
ENDBRANCH  10  11
ENDBRANCH   8  10
ENDBRANCH   1   6
BRANCH   1  14
HETATM   14  C           1     -28.816  -4.774 -16.921  0.00  0.00     0.042 C 
BRANCH  14  15
HETATM   15  C           1     -29.313  -5.039 -18.336  0.00  0.00     0.003 C 
BRANCH  15  16
HETATM   16 Se           1     -28.320  -6.528 -19.106  0.00  0.00     0.000 Se
HETATM   17  C           1     -29.764  -7.818 -18.888  0.00  0.00     0.000 C 
ENDBRANCH  15  16
ENDBRANCH  14  15
ENDBRANCH   1  14
TORSDOF 7
ENDMDL
MODEL 8
REMARK VINA RESULT:      -4.7     10.447     12.049
REMARK  7 active torsions:
REMARK  status: ('A' for Active; 'I' for Inactive)
REMARK    1  A    between atoms: N_1  and  C_6 
REMARK    2  A    between atoms: C_3  and  C_16 
REMARK    3  A    between atoms: C_3  and  N_4 
REMARK       I    between atoms: N_4  and  C_5 
REMARK    4  A    between atoms: C_5  and  C_6 
REMARK    5  A    between atoms: C_6  and  C_7 
REMARK    6  A    between atoms: C_7  and  C_8 
REMARK    7  A    between atoms: C_8  and  Se_9 
ROOT
HETATM    1  C           1     -22.201  -4.741  -6.618  0.00  0.00     0.274 C 
ENDROOT
BRANCH   1   2
HETATM    2  N           1     -23.665  -4.947  -6.363  0.00  0.00    -0.067 N 
HETATM    3  H           1     -23.851  -5.964  -6.203  0.00  0.00     0.275 HD
HETATM    4  H           1     -23.952  -4.404  -5.519  0.00  0.00     0.275 HD
HETATM    5  H           1     -24.212  -4.621  -7.192  0.00  0.00     0.275 HD
ENDBRANCH   1   2
BRANCH   1   6
HETATM    6  C           1     -21.992  -4.356  -8.063  0.00  0.00     0.248 C 
HETATM    7  O           1     -20.956  -4.635  -8.618  0.00  0.00    -0.271 OA
HETATM    8  N           1     -22.976  -3.692  -8.743  0.00  0.00    -0.349 N 
HETATM    9  H           1     -23.844  -3.458  -8.278  0.00  0.00     0.163 HD
BRANCH   8  10
HETATM   10  C           1     -22.776  -3.323 -10.131  0.00  0.00     0.235 C 
BRANCH  10  11
HETATM   11  C           1     -23.955  -3.785 -10.951  0.00  0.00     0.191 C 
HETATM   12  O           1     -23.803  -4.668 -11.822  0.00  0.00    -0.647 OA
HETATM   13  O           1     -25.084  -3.284 -10.760  0.00  0.00    -0.647 OA
ENDBRANCH  10  11
ENDBRANCH   8  10
ENDBRANCH   1   6
BRANCH   1  14
HETATM   14  C           1     -21.447  -6.029  -6.321  0.00  0.00     0.042 C 
BRANCH  14  15
HETATM   15  C           1     -21.648  -6.410  -4.860  0.00  0.00     0.003 C 
BRANCH  15  16
HETATM   16 Se           1     -21.337  -8.321  -4.638  0.00  0.00     0.000 Se
HETATM   17  C           1     -21.004  -8.210  -2.720  0.00  0.00     0.000 C 
ENDBRANCH  15  16
ENDBRANCH  14  15
ENDBRANCH   1  14
TORSDOF 7
ENDMDL
MODEL 9
REMARK VINA RESULT:      -4.5     11.135     12.679
REMARK  7 active torsions:
REMARK  status: ('A' for Active; 'I' for Inactive)
REMARK    1  A    between atoms: N_1  and  C_6 
REMARK    2  A    between atoms: C_3  and  C_16 
REMARK    3  A    between atoms: C_3  and  N_4 
REMARK       I    between atoms: N_4  and  C_5 
REMARK    4  A    between atoms: C_5  and  C_6 
REMARK    5  A    between atoms: C_6  and  C_7 
REMARK    6  A    between atoms: C_7  and  C_8 
REMARK    7  A    between atoms: C_8  and  Se_9 
ROOT
HETATM    1  C           1     -21.293  -6.086  -6.957  0.00  0.00     0.274 C 
ENDROOT
BRANCH   1   2
HETATM    2  N           1     -19.811  -6.307  -6.877  0.00  0.00    -0.067 N 
HETATM    3  H           1     -19.326  -5.386  -6.779  0.00  0.00     0.275 HD
HETATM    4  H           1     -19.593  -6.904  -6.048  0.00  0.00     0.275 HD
HETATM    5  H           1     -19.483  -6.783  -7.748  0.00  0.00     0.275 HD
ENDBRANCH   1   2
BRANCH   1   6
HETATM    6  C           1     -21.569  -4.811  -7.717  0.00  0.00     0.248 C 
HETATM    7  O           1     -21.257  -3.745  -7.242  0.00  0.00    -0.271 OA
HETATM    8  N           1     -22.173  -4.862  -8.944  0.00  0.00    -0.349 N 
HETATM    9  H           1     -22.435  -5.755  -9.342  0.00  0.00     0.163 HD
BRANCH   8  10
HETATM   10  C           1     -22.439  -3.638  -9.674  0.00  0.00     0.235 C 
BRANCH  10  11
HETATM   11  C           1     -21.546  -3.570 -10.888  0.00  0.00     0.191 C 
HETATM   12  O           1     -20.694  -4.462 -11.088  0.00  0.00    -0.647 OA
HETATM   13  O           1     -21.659  -2.622 -11.695  0.00  0.00    -0.647 OA
ENDBRANCH  10  11
ENDBRANCH   8  10
ENDBRANCH   1   6
BRANCH   1  14
HETATM   14  C           1     -21.867  -5.975  -5.552  0.00  0.00     0.042 C 
BRANCH  14  15
HETATM   15  C           1     -20.939  -6.672  -4.567  0.00  0.00     0.003 C 
BRANCH  15  16
HETATM   16 Se           1     -21.572  -6.368  -2.749  0.00  0.00     0.000 Se
HETATM   17  C           1     -20.637  -7.901  -1.992  0.00  0.00     0.000 C 
ENDBRANCH  15  16
ENDBRANCH  14  15
ENDBRANCH   1  14
TORSDOF 7
ENDMDL
