MODEL 1
REMARK VINA RESULT:      -8.4      0.000      0.000
REMARK  11 active torsions:
REMARK  status: ('A' for Active; 'I' for Inactive)
REMARK    1  A    between atoms: C_4  and  O_5 
REMARK    2  A    between atoms: O_5  and  P_24 
REMARK    3  A    between atoms: C_6  and  C_22 
REMARK    4  A    between atoms: C_6  and  C_9 
REMARK    5  A    between atoms: C_6  and  N_28 
REMARK    6  A    between atoms: C_9  and  C_25 
REMARK    7  A    between atoms: N_12  and  C_18 
REMARK    8  A    between atoms: C_15  and  C_17 
REMARK    9  A    between atoms: C_17  and  C_18 
REMARK   10  A    between atoms: C_18  and  C_27 
REMARK   11  A    between atoms: P_24  and  O_30 
REMARK       I    between atoms: C_27  and  N_28 
ROOT
HETATM    1  C           1     -32.402  -4.379 -16.417  0.00  0.00     0.189 C 
ENDROOT
BRANCH   1   2
HETATM    2  C           1     -32.499  -3.324 -17.492  0.00  0.00     0.197 C 
HETATM    3  O           1     -31.483  -3.003 -18.146  0.00  0.00    -0.646 OA
HETATM    4  O           1     -33.595  -2.771 -17.728  0.00  0.00    -0.646 OA
ENDBRANCH   1   2
BRANCH   1   5
HETATM    5  C           1     -31.872  -5.673 -17.021  0.00  0.00     0.074 C 
BRANCH   5   6
HETATM    6  C           1     -30.375  -5.669 -16.975  0.00  0.00    -0.056 A 
HETATM    7  C           1     -29.641  -6.116 -18.073  0.00  0.00     0.010 A 
HETATM    8  C           1     -28.247  -6.111 -18.030  0.00  0.00     0.038 A 
HETATM    9  C           1     -27.587  -5.659 -16.888  0.00  0.00     0.081 A 
HETATM   10  C           1     -28.320  -5.211 -15.790  0.00  0.00     0.038 A 
HETATM   11  C           1     -29.715  -5.215 -15.833  0.00  0.00     0.010 A 
BRANCH   9  12
HETATM   12  O           1     -26.233  -5.654 -16.846  0.00  0.00    -0.247 OA
BRANCH  12  13
HETATM   13  P           1     -25.500  -6.730 -15.890  0.00  0.00     0.411 P 
HETATM   14  O           1     -26.503  -7.683 -15.362  0.00  0.00    -0.624 OA
HETATM   15  O           1     -24.481  -7.470 -16.668  0.00  0.00    -0.624 OA
BRANCH  13  16
HETATM   16  O           1     -24.787  -5.961 -14.662  0.00  0.00    -0.300 OA
HETATM   17  H           1     -24.549  -6.641 -14.054  0.00  0.00     0.223 HD
ENDBRANCH  13  16
ENDBRANCH  12  13
ENDBRANCH   9  12
ENDBRANCH   5   6
ENDBRANCH   1   5
BRANCH   1  18
HETATM   18  N           1     -33.716  -4.614 -15.851  0.00  0.00    -0.344 N 
HETATM   19  H           1     -34.324  -5.314 -16.257  0.00  0.00     0.163 HD
HETATM   20  C           1     -34.136  -3.888 -14.770  0.00  0.00     0.249 C 
HETATM   21  O           1     -34.724  -2.845 -14.933  0.00  0.00    -0.271 OA
BRANCH  20  22
HETATM   22  C           1     -33.862  -4.388 -13.373  0.00  0.00     0.275 C 
BRANCH  22  23
HETATM   23  N           1     -32.381  -4.446 -13.144  0.00  0.00    -0.066 N 
HETATM   24  H           1     -31.924  -3.623 -13.598  0.00  0.00     0.275 HD
HETATM   25  H           1     -32.187  -4.428 -12.117  0.00  0.00     0.275 HD
HETATM   26  H           1     -31.999  -5.328 -13.556  0.00  0.00     0.275 HD
ENDBRANCH  22  23
BRANCH  22  27
HETATM   27  C           1     -34.495  -3.443 -12.361  0.00  0.00     0.046 C 
BRANCH  27  28
HETATM   28  C           1     -33.703  -3.486 -11.061  0.00  0.00    -0.020 C 
HETATM   29  C           1     -34.168  -4.668 -10.222  0.00  0.00     0.009 C 
HETATM   30  C           1     -33.926  -2.195 -10.287  0.00  0.00     0.009 C 
ENDBRANCH  27  28
ENDBRANCH  22  27
ENDBRANCH  20  22
ENDBRANCH   1  18
TORSDOF 11
ENDMDL
MODEL 2
REMARK VINA RESULT:      -7.9     12.248     14.633
REMARK  11 active torsions:
REMARK  status: ('A' for Active; 'I' for Inactive)
REMARK    1  A    between atoms: C_4  and  O_5 
REMARK    2  A    between atoms: O_5  and  P_24 
REMARK    3  A    between atoms: C_6  and  C_22 
REMARK    4  A    between atoms: C_6  and  C_9 
REMARK    5  A    between atoms: C_6  and  N_28 
REMARK    6  A    between atoms: C_9  and  C_25 
REMARK    7  A    between atoms: N_12  and  C_18 
REMARK    8  A    between atoms: C_15  and  C_17 
REMARK    9  A    between atoms: C_17  and  C_18 
REMARK   10  A    between atoms: C_18  and  C_27 
REMARK   11  A    between atoms: P_24  and  O_30 
REMARK       I    between atoms: C_27  and  N_28 
ROOT
HETATM    1  C           1     -21.167  -7.844  -5.397  0.00  0.00     0.189 C 
ENDROOT
BRANCH   1   2
HETATM    2  C           1     -20.264  -8.971  -4.958  0.00  0.00     0.197 C 
HETATM    3  O           1     -19.078  -8.734  -4.640  0.00  0.00    -0.646 OA
HETATM    4  O           1     -20.701 -10.141  -4.914  0.00  0.00    -0.646 OA
ENDBRANCH   1   2
BRANCH   1   5
HETATM    5  C           1     -20.350  -6.568  -5.550  0.00  0.00     0.074 C 
BRANCH   5   6
HETATM    6  C           1     -20.933  -5.730  -6.645  0.00  0.00    -0.056 A 
HETATM    7  C           1     -22.173  -5.115  -6.469  0.00  0.00     0.010 A 
HETATM    8  C           1     -22.716  -4.334  -7.489  0.00  0.00     0.038 A 
HETATM    9  C           1     -22.018  -4.168  -8.686  0.00  0.00     0.081 A 
HETATM   10  C           1     -20.778  -4.782  -8.862  0.00  0.00     0.038 A 
HETATM   11  C           1     -20.235  -5.563  -7.841  0.00  0.00     0.010 A 
BRANCH   9  12
HETATM   12  O           1     -22.546  -3.409  -9.677  0.00  0.00    -0.247 OA
BRANCH  12  13
HETATM   13  P           1     -23.550  -4.120 -10.722  0.00  0.00     0.411 P 
HETATM   14  O           1     -22.876  -4.267 -12.032  0.00  0.00    -0.624 OA
HETATM   15  O           1     -23.931  -5.457 -10.212  0.00  0.00    -0.624 OA
BRANCH  13  16
HETATM   16  O           1     -24.876  -3.214 -10.896  0.00  0.00    -0.300 OA
HETATM   17  H           1     -25.497  -3.772 -11.333  0.00  0.00     0.223 HD
ENDBRANCH  13  16
ENDBRANCH  12  13
ENDBRANCH   9  12
ENDBRANCH   5   6
ENDBRANCH   1   5
BRANCH   1  18
HETATM   18  N           1     -22.201  -7.638  -4.401  0.00  0.00    -0.344 N 
HETATM   19  H           1     -23.149  -7.939  -4.585  0.00  0.00     0.163 HD
HETATM   20  C           1     -21.894  -7.036  -3.211  0.00  0.00     0.249 C 
HETATM   21  O           1     -21.973  -5.835  -3.103  0.00  0.00    -0.271 OA
BRANCH  20  22
HETATM   22  C           1     -21.455  -7.871  -2.034  0.00  0.00     0.275 C 
BRANCH  22  23
HETATM   23  N           1     -19.958  -7.842  -1.930  0.00  0.00    -0.066 N 
HETATM   24  H           1     -19.629  -8.674  -1.390  0.00  0.00     0.275 HD
HETATM   25  H           1     -19.542  -7.863  -2.889  0.00  0.00     0.275 HD
HETATM   26  H           1     -19.661  -6.969  -1.439  0.00  0.00     0.275 HD
ENDBRANCH  22  23
BRANCH  22  27
HETATM   27  C           1     -22.063  -7.309  -0.756  0.00  0.00     0.046 C 
BRANCH  27  28
HETATM   28  C           1     -22.441  -8.454   0.174  0.00  0.00    -0.020 C 
HETATM   29  C           1     -21.311  -8.697   1.165  0.00  0.00     0.009 C 
HETATM   30  C           1     -22.679  -9.715  -0.644  0.00  0.00     0.009 C 
ENDBRANCH  27  28
ENDBRANCH  22  27
ENDBRANCH  20  22
ENDBRANCH   1  18
TORSDOF 11
ENDMDL
MODEL 3
REMARK VINA RESULT:      -7.0     14.555     17.026
REMARK  11 active torsions:
REMARK  status: ('A' for Active; 'I' for Inactive)
REMARK    1  A    between atoms: C_4  and  O_5 
REMARK    2  A    between atoms: O_5  and  P_24 
REMARK    3  A    between atoms: C_6  and  C_22 
REMARK    4  A    between atoms: C_6  and  C_9 
REMARK    5  A    between atoms: C_6  and  N_28 
REMARK    6  A    between atoms: C_9  and  C_25 
REMARK    7  A    between atoms: N_12  and  C_18 
REMARK    8  A    between atoms: C_15  and  C_17 
REMARK    9  A    between atoms: C_17  and  C_18 
REMARK   10  A    between atoms: C_18  and  C_27 
REMARK   11  A    between atoms: P_24  and  O_30 
REMARK       I    between atoms: C_27  and  N_28 
ROOT
HETATM    1  C           1     -19.677 -10.580  -2.795  0.00  0.00     0.189 C 
ENDROOT
BRANCH   1   2
HETATM    2  C           1     -18.281 -11.127  -2.967  0.00  0.00     0.197 C 
HETATM    3  O           1     -17.681 -10.980  -4.054  0.00  0.00    -0.646 OA
HETATM    4  O           1     -17.725 -11.728  -2.022  0.00  0.00    -0.646 OA
ENDBRANCH   1   2
BRANCH   1   5
HETATM    5  C           1     -19.602  -9.155  -2.261  0.00  0.00     0.074 C 
BRANCH   5   6
HETATM    6  C           1     -20.269  -8.225  -3.226  0.00  0.00    -0.056 A 
HETATM    7  C           1     -21.024  -7.151  -2.752  0.00  0.00     0.010 A 
HETATM    8  C           1     -21.645  -6.285  -3.651  0.00  0.00     0.038 A 
HETATM    9  C           1     -21.511  -6.492  -5.024  0.00  0.00     0.081 A 
HETATM   10  C           1     -20.757  -7.564  -5.498  0.00  0.00     0.038 A 
HETATM   11  C           1     -20.135  -8.432  -4.599  0.00  0.00     0.010 A 
BRANCH   9  12
HETATM   12  O           1     -22.115  -5.650  -5.898  0.00  0.00    -0.247 OA
BRANCH  12  13
HETATM   13  P           1     -21.176  -4.754  -6.858  0.00  0.00     0.411 P 
HETATM   14  O           1     -19.878  -4.508  -6.190  0.00  0.00    -0.624 OA
HETATM   15  O           1     -20.945  -5.471  -8.132  0.00  0.00    -0.624 OA
BRANCH  13  16
HETATM   16  O           1     -21.903  -3.344  -7.159  0.00  0.00    -0.300 OA
HETATM   17  H           1     -21.251  -2.821  -7.596  0.00  0.00     0.223 HD
ENDBRANCH  13  16
ENDBRANCH  12  13
ENDBRANCH   9  12
ENDBRANCH   5   6
ENDBRANCH   1   5
BRANCH   1  18
HETATM   18  N           1     -20.408 -11.409  -1.856  0.00  0.00    -0.344 N 
HETATM   19  H           1     -19.920 -11.860  -1.093  0.00  0.00     0.163 HD
HETATM   20  C           1     -21.758 -11.582  -2.003  0.00  0.00     0.249 C 
HETATM   21  O           1     -22.181 -12.493  -2.672  0.00  0.00    -0.271 OA
BRANCH  20  22
HETATM   22  C           1     -22.717 -10.632  -1.328  0.00  0.00     0.275 C 
BRANCH  22  23
HETATM   23  N           1     -24.092 -11.232  -1.320  0.00  0.00    -0.066 N 
HETATM   24  H           1     -24.023 -12.261  -1.149  0.00  0.00     0.275 HD
HETATM   25  H           1     -24.660 -10.790  -0.562  0.00  0.00     0.275 HD
HETATM   26  H           1     -24.551 -11.062  -2.244  0.00  0.00     0.275 HD
ENDBRANCH  22  23
BRANCH  22  27
HETATM   27  C           1     -22.264 -10.384   0.105  0.00  0.00     0.046 C 
BRANCH  27  28
HETATM   28  C           1     -21.921  -8.911   0.282  0.00  0.00    -0.020 C 
HETATM   29  C           1     -21.007  -8.744   1.488  0.00  0.00     0.009 C 
HETATM   30  C           1     -23.200  -8.115   0.501  0.00  0.00     0.009 C 
ENDBRANCH  27  28
ENDBRANCH  22  27
ENDBRANCH  20  22
ENDBRANCH   1  18
TORSDOF 11
ENDMDL
MODEL 4
REMARK VINA RESULT:      -7.0     12.778     15.191
REMARK  11 active torsions:
REMARK  status: ('A' for Active; 'I' for Inactive)
REMARK    1  A    between atoms: C_4  and  O_5 
REMARK    2  A    between atoms: O_5  and  P_24 
REMARK    3  A    between atoms: C_6  and  C_22 
REMARK    4  A    between atoms: C_6  and  C_9 
REMARK    5  A    between atoms: C_6  and  N_28 
REMARK    6  A    between atoms: C_9  and  C_25 
REMARK    7  A    between atoms: N_12  and  C_18 
REMARK    8  A    between atoms: C_15  and  C_17 
REMARK    9  A    between atoms: C_17  and  C_18 
REMARK   10  A    between atoms: C_18  and  C_27 
REMARK   11  A    between atoms: P_24  and  O_30 
REMARK       I    between atoms: C_27  and  N_28 
ROOT
HETATM    1  C           1     -20.979  -7.744  -4.156  0.00  0.00     0.189 C 
ENDROOT
BRANCH   1   2
HETATM    2  C           1     -20.439  -8.503  -5.343  0.00  0.00     0.197 C 
HETATM    3  O           1     -21.219  -9.130  -6.092  0.00  0.00    -0.646 OA
HETATM    4  O           1     -19.211  -8.504  -5.578  0.00  0.00    -0.646 OA
ENDBRANCH   1   2
BRANCH   1   5
HETATM    5  C           1     -20.413  -6.330  -4.156  0.00  0.00     0.074 C 
BRANCH   5   6
HETATM    6  C           1     -20.967  -5.571  -5.322  0.00  0.00    -0.056 A 
HETATM    7  C           1     -22.292  -5.761  -5.713  0.00  0.00     0.010 A 
HETATM    8  C           1     -22.808  -5.054  -6.798  0.00  0.00     0.038 A 
HETATM    9  C           1     -21.999  -4.155  -7.492  0.00  0.00     0.081 A 
HETATM   10  C           1     -20.674  -3.964  -7.102  0.00  0.00     0.038 A 
HETATM   11  C           1     -20.157  -4.672  -6.016  0.00  0.00     0.010 A 
BRANCH   9  12
HETATM   12  O           1     -22.500  -3.468  -8.547  0.00  0.00    -0.247 OA
BRANCH  12  13
HETATM   13  P           1     -22.340  -4.114 -10.018  0.00  0.00     0.411 P 
HETATM   14  O           1     -23.358  -5.173 -10.205  0.00  0.00    -0.624 OA
HETATM   15  O           1     -22.530  -3.063 -11.043  0.00  0.00    -0.624 OA
BRANCH  13  16
HETATM   16  O           1     -20.864  -4.752 -10.168  0.00  0.00    -0.300 OA
HETATM   17  H           1     -20.959  -5.651  -9.901  0.00  0.00     0.223 HD
ENDBRANCH  13  16
ENDBRANCH  12  13
ENDBRANCH   9  12
ENDBRANCH   5   6
ENDBRANCH   1   5
BRANCH   1  18
HETATM   18  N           1     -20.589  -8.419  -2.933  0.00  0.00    -0.344 N 
HETATM   19  H           1     -19.970  -7.960  -2.277  0.00  0.00     0.163 HD
HETATM   20  C           1     -21.056  -9.678  -2.668  0.00  0.00     0.249 C 
HETATM   21  O           1     -20.436 -10.645  -3.043  0.00  0.00    -0.271 OA
BRANCH  20  22
HETATM   22  C           1     -22.347  -9.858  -1.907  0.00  0.00     0.275 C 
BRANCH  22  23
HETATM   23  N           1     -23.047 -11.091  -2.396  0.00  0.00    -0.066 N 
HETATM   24  H           1     -22.648 -11.932  -1.921  0.00  0.00     0.275 HD
HETATM   25  H           1     -24.068 -11.021  -2.178  0.00  0.00     0.275 HD
HETATM   26  H           1     -22.917 -11.179  -3.429  0.00  0.00     0.275 HD
ENDBRANCH  22  23
BRANCH  22  27
HETATM   27  C           1     -22.045 -10.002  -0.421  0.00  0.00     0.046 C 
BRANCH  27  28
HETATM   28  C           1     -21.893  -8.621   0.203  0.00  0.00    -0.020 C 
HETATM   29  C           1     -21.023  -8.720   1.448  0.00  0.00     0.009 C 
HETATM   30  C           1     -23.264  -8.081   0.583  0.00  0.00     0.009 C 
ENDBRANCH  27  28
ENDBRANCH  22  27
ENDBRANCH  20  22
ENDBRANCH   1  18
TORSDOF 11
ENDMDL
MODEL 5
REMARK VINA RESULT:      -7.0     13.808     16.208
REMARK  11 active torsions:
REMARK  status: ('A' for Active; 'I' for Inactive)
REMARK    1  A    between atoms: C_4  and  O_5 
REMARK    2  A    between atoms: O_5  and  P_24 
REMARK    3  A    between atoms: C_6  and  C_22 
REMARK    4  A    between atoms: C_6  and  C_9 
REMARK    5  A    between atoms: C_6  and  N_28 
REMARK    6  A    between atoms: C_9  and  C_25 
REMARK    7  A    between atoms: N_12  and  C_18 
REMARK    8  A    between atoms: C_15  and  C_17 
REMARK    9  A    between atoms: C_17  and  C_18 
REMARK   10  A    between atoms: C_18  and  C_27 
REMARK   11  A    between atoms: P_24  and  O_30 
REMARK       I    between atoms: C_27  and  N_28 
ROOT
HETATM    1  C           1     -21.254  -7.748  -2.328  0.00  0.00     0.189 C 
ENDROOT
BRANCH   1   2
HETATM    2  C           1     -21.897  -7.395  -1.008  0.00  0.00     0.197 C 
HETATM    3  O           1     -22.729  -6.464  -0.947  0.00  0.00    -0.646 OA
HETATM    4  O           1     -21.597  -8.034   0.023  0.00  0.00    -0.646 OA
ENDBRANCH   1   2
BRANCH   1   5
HETATM    5  C           1     -19.857  -8.302  -2.080  0.00  0.00     0.074 C 
BRANCH   5   6
HETATM    6  C           1     -19.583  -9.412  -3.046  0.00  0.00    -0.056 A 
HETATM    7  C           1     -20.378 -10.559  -3.037  0.00  0.00     0.010 A 
HETATM    8  C           1     -20.123 -11.593  -3.937  0.00  0.00     0.038 A 
HETATM    9  C           1     -19.071 -11.480  -4.847  0.00  0.00     0.081 A 
HETATM   10  C           1     -18.276 -10.335  -4.857  0.00  0.00     0.038 A 
HETATM   11  C           1     -18.532  -9.300  -3.956  0.00  0.00     0.010 A 
BRANCH   9  12
HETATM   12  O           1     -18.823 -12.485  -5.722  0.00  0.00    -0.247 OA
BRANCH  12  13
HETATM   13  P           1     -19.615 -12.477  -7.129  0.00  0.00     0.411 P 
HETATM   14  O           1     -18.740 -11.916  -8.184  0.00  0.00    -0.624 OA
HETATM   15  O           1     -19.996 -13.861  -7.491  0.00  0.00    -0.624 OA
BRANCH  13  16
HETATM   16  O           1     -20.945 -11.571  -6.993  0.00  0.00    -0.300 OA
HETATM   17  H           1     -21.497 -12.039  -6.389  0.00  0.00     0.223 HD
ENDBRANCH  13  16
ENDBRANCH  12  13
ENDBRANCH   9  12
ENDBRANCH   5   6
ENDBRANCH   1   5
BRANCH   1  18
HETATM   18  N           1     -21.162  -6.559  -3.153  0.00  0.00    -0.344 N 
HETATM   19  H           1     -20.703  -5.730  -2.797  0.00  0.00     0.163 HD
HETATM   20  C           1     -21.698  -6.556  -4.412  0.00  0.00     0.249 C 
HETATM   21  O           1     -22.845  -6.217  -4.580  0.00  0.00    -0.271 OA
BRANCH  20  22
HETATM   22  C           1     -20.856  -6.978  -5.590  0.00  0.00     0.275 C 
BRANCH  22  23
HETATM   23  N           1     -21.198  -8.389  -5.970  0.00  0.00    -0.066 N 
HETATM   24  H           1     -21.592  -8.405  -6.938  0.00  0.00     0.275 HD
HETATM   25  H           1     -20.334  -8.977  -5.936  0.00  0.00     0.275 HD
HETATM   26  H           1     -21.904  -8.768  -5.300  0.00  0.00     0.275 HD
ENDBRANCH  22  23
BRANCH  22  27
HETATM   27  C           1     -21.132  -6.055  -6.770  0.00  0.00     0.046 C 
BRANCH  27  28
HETATM   28  C           1     -20.446  -4.715  -6.538  0.00  0.00    -0.020 C 
HETATM   29  C           1     -21.313  -3.598  -7.103  0.00  0.00     0.009 C 
HETATM   30  C           1     -19.094  -4.709  -7.236  0.00  0.00     0.009 C 
ENDBRANCH  27  28
ENDBRANCH  22  27
ENDBRANCH  20  22
ENDBRANCH   1  18
TORSDOF 11
ENDMDL
MODEL 6
REMARK VINA RESULT:      -6.8     15.223     17.232
REMARK  11 active torsions:
REMARK  status: ('A' for Active; 'I' for Inactive)
REMARK    1  A    between atoms: C_4  and  O_5 
REMARK    2  A    between atoms: O_5  and  P_24 
REMARK    3  A    between atoms: C_6  and  C_22 
REMARK    4  A    between atoms: C_6  and  C_9 
REMARK    5  A    between atoms: C_6  and  N_28 
REMARK    6  A    between atoms: C_9  and  C_25 
REMARK    7  A    between atoms: N_12  and  C_18 
REMARK    8  A    between atoms: C_15  and  C_17 
REMARK    9  A    between atoms: C_17  and  C_18 
REMARK   10  A    between atoms: C_18  and  C_27 
REMARK   11  A    between atoms: P_24  and  O_30 
REMARK       I    between atoms: C_27  and  N_28 
ROOT
HETATM    1  C           1     -20.577  -7.426  -4.467  0.00  0.00     0.189 C 
ENDROOT
BRANCH   1   2
HETATM    2  C           1     -20.692  -6.369  -5.538  0.00  0.00     0.197 C 
HETATM    3  O           1     -20.910  -6.701  -6.724  0.00  0.00    -0.646 OA
HETATM    4  O           1     -20.570  -5.162  -5.240  0.00  0.00    -0.646 OA
ENDBRANCH   1   2
BRANCH   1   5
HETATM    5  C           1     -20.343  -8.784  -5.117  0.00  0.00     0.074 C 
BRANCH   5   6
HETATM    6  C           1     -18.981  -9.285  -4.749  0.00  0.00    -0.056 A 
HETATM    7  C           1     -18.653  -9.498  -3.410  0.00  0.00     0.010 A 
HETATM    8  C           1     -17.385  -9.965  -3.068  0.00  0.00     0.038 A 
HETATM    9  C           1     -16.444 -10.221  -4.065  0.00  0.00     0.081 A 
HETATM   10  C           1     -16.771 -10.010  -5.404  0.00  0.00     0.038 A 
HETATM   11  C           1     -18.040  -9.542  -5.746  0.00  0.00     0.010 A 
BRANCH   9  12
HETATM   12  O           1     -15.211 -10.675  -3.732  0.00  0.00    -0.247 OA
BRANCH  12  13
HETATM   13  P           1     -14.824 -12.188  -4.145  0.00  0.00     0.411 P 
HETATM   14  O           1     -14.097 -12.176  -5.434  0.00  0.00    -0.624 OA
HETATM   15  O           1     -13.962 -12.781  -3.098  0.00  0.00    -0.624 OA
BRANCH  13  16
HETATM   16  O           1     -16.172 -13.066  -4.294  0.00  0.00    -0.300 OA
HETATM   17  H           1     -16.000 -13.655  -5.009  0.00  0.00     0.223 HD
ENDBRANCH  13  16
ENDBRANCH  12  13
ENDBRANCH   9  12
ENDBRANCH   5   6
ENDBRANCH   1   5
BRANCH   1  18
HETATM   18  N           1     -21.803  -7.467  -3.695  0.00  0.00    -0.344 N 
HETATM   19  H           1     -22.632  -7.898  -4.083  0.00  0.00     0.163 HD
HETATM   20  C           1     -21.841  -6.919  -2.441  0.00  0.00     0.249 C 
HETATM   21  O           1     -22.143  -5.759  -2.296  0.00  0.00    -0.271 OA
BRANCH  20  22
HETATM   22  C           1     -21.502  -7.765  -1.238  0.00  0.00     0.275 C 
BRANCH  22  23
HETATM   23  N           1     -22.245  -7.252  -0.040  0.00  0.00    -0.066 N 
HETATM   24  H           1     -21.594  -7.194   0.776  0.00  0.00     0.275 HD
HETATM   25  H           1     -22.627  -6.301  -0.249  0.00  0.00     0.275 HD
HETATM   26  H           1     -23.031  -7.902   0.187  0.00  0.00     0.275 HD
ENDBRANCH  22  23
BRANCH  22  27
HETATM   27  C           1     -21.905  -9.210  -1.504  0.00  0.00     0.046 C 
BRANCH  27  28
HETATM   28  C           1     -22.398  -9.846  -0.210  0.00  0.00    -0.020 C 
HETATM   29  C           1     -21.317 -10.760   0.350  0.00  0.00     0.009 C 
HETATM   30  C           1     -23.654 -10.658  -0.490  0.00  0.00     0.009 C 
ENDBRANCH  27  28
ENDBRANCH  22  27
ENDBRANCH  20  22
ENDBRANCH   1  18
TORSDOF 11
ENDMDL
MODEL 7
REMARK VINA RESULT:      -6.8     16.061     17.911
REMARK  11 active torsions:
REMARK  status: ('A' for Active; 'I' for Inactive)
REMARK    1  A    between atoms: C_4  and  O_5 
REMARK    2  A    between atoms: O_5  and  P_24 
REMARK    3  A    between atoms: C_6  and  C_22 
REMARK    4  A    between atoms: C_6  and  C_9 
REMARK    5  A    between atoms: C_6  and  N_28 
REMARK    6  A    between atoms: C_9  and  C_25 
REMARK    7  A    between atoms: N_12  and  C_18 
REMARK    8  A    between atoms: C_15  and  C_17 
REMARK    9  A    between atoms: C_17  and  C_18 
REMARK   10  A    between atoms: C_18  and  C_27 
REMARK   11  A    between atoms: P_24  and  O_30 
REMARK       I    between atoms: C_27  and  N_28 
ROOT
HETATM    1  C           1     -20.955  -7.823  -2.583  0.00  0.00     0.189 C 
ENDROOT
BRANCH   1   2
HETATM    2  C           1     -21.519  -6.466  -2.930  0.00  0.00     0.197 C 
HETATM    3  O           1     -21.200  -5.914  -4.005  0.00  0.00    -0.646 OA
HETATM    4  O           1     -22.304  -5.896  -2.143  0.00  0.00    -0.646 OA
ENDBRANCH   1   2
BRANCH   1   5
HETATM    5  C           1     -20.846  -8.666  -3.847  0.00  0.00     0.074 C 
BRANCH   5   6
HETATM    6  C           1     -19.421  -9.078  -4.049  0.00  0.00    -0.056 A 
HETATM    7  C           1     -18.583  -9.261  -2.949  0.00  0.00     0.010 A 
HETATM    8  C           1     -17.256  -9.646  -3.138  0.00  0.00     0.038 A 
HETATM    9  C           1     -16.766  -9.848  -4.428  0.00  0.00     0.081 A 
HETATM   10  C           1     -17.603  -9.665  -5.529  0.00  0.00     0.038 A 
HETATM   11  C           1     -18.931  -9.281  -5.340  0.00  0.00     0.010 A 
BRANCH   9  12
HETATM   12  O           1     -15.477 -10.221  -4.612  0.00  0.00    -0.247 OA
BRANCH  12  13
HETATM   13  P           1     -15.109 -11.784  -4.440  0.00  0.00     0.411 P 
HETATM   14  O           1     -14.772 -12.058  -3.025  0.00  0.00    -0.624 OA
HETATM   15  O           1     -16.269 -12.612  -4.838  0.00  0.00    -0.624 OA
BRANCH  13  16
HETATM   16  O           1     -13.843 -12.146  -5.376  0.00  0.00    -0.300 OA
HETATM   17  H           1     -13.150 -12.362  -4.775  0.00  0.00     0.223 HD
ENDBRANCH  13  16
ENDBRANCH  12  13
ENDBRANCH   9  12
ENDBRANCH   5   6
ENDBRANCH   1   5
BRANCH   1  18
HETATM   18  N           1     -21.835  -8.483  -1.638  0.00  0.00    -0.344 N 
HETATM   19  H           1     -22.787  -8.701  -1.900  0.00  0.00     0.163 HD
HETATM   20  C           1     -21.377  -8.809  -0.390  0.00  0.00     0.249 C 
HETATM   21  O           1     -21.486  -8.022   0.520  0.00  0.00    -0.271 OA
BRANCH  20  22
HETATM   22  C           1     -20.734 -10.153  -0.150  0.00  0.00     0.275 C 
BRANCH  22  23
HETATM   23  N           1     -20.514 -10.347   1.321  0.00  0.00    -0.066 N 
HETATM   24  H           1     -20.697 -11.345   1.573  0.00  0.00     0.275 HD
HETATM   25  H           1     -19.525 -10.105   1.560  0.00  0.00     0.275 HD
HETATM   26  H           1     -21.164  -9.728   1.855  0.00  0.00     0.275 HD
ENDBRANCH  22  23
BRANCH  22  27
HETATM   27  C           1     -21.645 -11.254  -0.676  0.00  0.00     0.046 C 
BRANCH  27  28
HETATM   28  C           1     -22.829 -11.427   0.266  0.00  0.00    -0.020 C 
HETATM   29  C           1     -22.846 -12.851   0.804  0.00  0.00     0.009 C 
HETATM   30  C           1     -24.123 -11.155  -0.489  0.00  0.00     0.009 C 
ENDBRANCH  27  28
ENDBRANCH  22  27
ENDBRANCH  20  22
ENDBRANCH   1  18
TORSDOF 11
ENDMDL
MODEL 8
REMARK VINA RESULT:      -6.6      1.361      2.139
REMARK  11 active torsions:
REMARK  status: ('A' for Active; 'I' for Inactive)
REMARK    1  A    between atoms: C_4  and  O_5 
REMARK    2  A    between atoms: O_5  and  P_24 
REMARK    3  A    between atoms: C_6  and  C_22 
REMARK    4  A    between atoms: C_6  and  C_9 
REMARK    5  A    between atoms: C_6  and  N_28 
REMARK    6  A    between atoms: C_9  and  C_25 
REMARK    7  A    between atoms: N_12  and  C_18 
REMARK    8  A    between atoms: C_15  and  C_17 
REMARK    9  A    between atoms: C_17  and  C_18 
REMARK   10  A    between atoms: C_18  and  C_27 
REMARK   11  A    between atoms: P_24  and  O_30 
REMARK       I    between atoms: C_27  and  N_28 
ROOT
HETATM    1  C           1     -33.123  -4.227 -15.956  0.00  0.00     0.189 C 
ENDROOT
BRANCH   1   2
HETATM    2  C           1     -33.443  -3.128 -16.940  0.00  0.00     0.197 C 
HETATM    3  O           1     -34.520  -2.500 -16.848  0.00  0.00    -0.646 OA
HETATM    4  O           1     -32.631  -2.848 -17.848  0.00  0.00    -0.646 OA
ENDBRANCH   1   2
BRANCH   1   5
HETATM    5  C           1     -32.945  -5.543 -16.703  0.00  0.00     0.074 C 
BRANCH   5   6
HETATM    6  C           1     -31.493  -5.760 -16.992  0.00  0.00    -0.056 A 
HETATM    7  C           1     -30.557  -4.789 -16.635  0.00  0.00     0.010 A 
HETATM    8  C           1     -29.203  -4.992 -16.904  0.00  0.00     0.038 A 
HETATM    9  C           1     -28.786  -6.167 -17.529  0.00  0.00     0.081 A 
HETATM   10  C           1     -29.720  -7.138 -17.886  0.00  0.00     0.038 A 
HETATM   11  C           1     -31.075  -6.935 -17.617  0.00  0.00     0.010 A 
BRANCH   9  12
HETATM   12  O           1     -27.471  -6.364 -17.790  0.00  0.00    -0.247 OA
BRANCH  12  13
HETATM   13  P           1     -26.453  -6.439 -16.539  0.00  0.00     0.411 P 
HETATM   14  O           1     -26.306  -5.093 -15.941  0.00  0.00    -0.624 OA
HETATM   15  O           1     -26.987  -7.373 -15.523  0.00  0.00    -0.624 OA
BRANCH  13  16
HETATM   16  O           1     -25.013  -6.965 -17.047  0.00  0.00    -0.300 OA
HETATM   17  H           1     -24.792  -6.405 -17.773  0.00  0.00     0.223 HD
ENDBRANCH  13  16
ENDBRANCH  12  13
ENDBRANCH   9  12
ENDBRANCH   5   6
ENDBRANCH   1   5
BRANCH   1  18
HETATM   18  N           1     -34.211  -4.355 -15.006  0.00  0.00    -0.344 N 
HETATM   19  H           1     -35.025  -4.909 -15.240  0.00  0.00     0.163 HD
HETATM   20  C           1     -34.137  -3.726 -13.792  0.00  0.00     0.249 C 
HETATM   21  O           1     -34.561  -2.602 -13.667  0.00  0.00    -0.271 OA
BRANCH  20  22
HETATM   22  C           1     -33.525  -4.437 -12.611  0.00  0.00     0.275 C 
BRANCH  22  23
HETATM   23  N           1     -32.977  -3.425 -11.647  0.00  0.00    -0.066 N 
HETATM   24  H           1     -33.343  -3.622 -10.688  0.00  0.00     0.275 HD
HETATM   25  H           1     -31.933  -3.482 -11.639  0.00  0.00     0.275 HD
HETATM   26  H           1     -33.273  -2.468 -11.943  0.00  0.00     0.275 HD
ENDBRANCH  22  23
BRANCH  22  27
HETATM   27  C           1     -34.588  -5.276 -11.914  0.00  0.00     0.046 C 
BRANCH  27  28
HETATM   28  C           1     -34.044  -5.785 -10.586  0.00  0.00    -0.020 C 
HETATM   29  C           1     -32.914  -6.772 -10.845  0.00  0.00     0.009 C 
HETATM   30  C           1     -35.157  -6.480  -9.815  0.00  0.00     0.009 C 
ENDBRANCH  27  28
ENDBRANCH  22  27
ENDBRANCH  20  22
ENDBRANCH   1  18
TORSDOF 11
ENDMDL
MODEL 9
REMARK VINA RESULT:      -6.6     15.871     18.370
REMARK  11 active torsions:
REMARK  status: ('A' for Active; 'I' for Inactive)
REMARK    1  A    between atoms: C_4  and  O_5 
REMARK    2  A    between atoms: O_5  and  P_24 
REMARK    3  A    between atoms: C_6  and  C_22 
REMARK    4  A    between atoms: C_6  and  C_9 
REMARK    5  A    between atoms: C_6  and  N_28 
REMARK    6  A    between atoms: C_9  and  C_25 
REMARK    7  A    between atoms: N_12  and  C_18 
REMARK    8  A    between atoms: C_15  and  C_17 
REMARK    9  A    between atoms: C_17  and  C_18 
REMARK   10  A    between atoms: C_18  and  C_27 
REMARK   11  A    between atoms: P_24  and  O_30 
REMARK       I    between atoms: C_27  and  N_28 
ROOT
HETATM    1  C           1     -20.903  -8.125  -4.131  0.00  0.00     0.189 C 
ENDROOT
BRANCH   1   2
HETATM    2  C           1     -21.284  -7.041  -5.110  0.00  0.00     0.197 C 
HETATM    3  O           1     -21.118  -7.220  -6.336  0.00  0.00    -0.646 OA
HETATM    4  O           1     -21.765  -5.965  -4.695  0.00  0.00    -0.646 OA
ENDBRANCH   1   2
BRANCH   1   5
HETATM    5  C           1     -21.150  -7.635  -2.710  0.00  0.00     0.074 C 
BRANCH   5   6
HETATM    6  C           1     -21.865  -8.697  -1.934  0.00  0.00    -0.056 A 
HETATM    7  C           1     -22.261  -8.454  -0.619  0.00  0.00     0.010 A 
HETATM    8  C           1     -22.927  -9.443   0.104  0.00  0.00     0.038 A 
HETATM    9  C           1     -23.198 -10.677  -0.489  0.00  0.00     0.081 A 
HETATM   10  C           1     -22.802 -10.921  -1.804  0.00  0.00     0.038 A 
HETATM   11  C           1     -22.136  -9.930  -2.527  0.00  0.00     0.010 A 
BRANCH   9  12
HETATM   12  O           1     -23.845 -11.638   0.213  0.00  0.00    -0.247 OA
BRANCH  12  13
HETATM   13  P           1     -22.994 -12.918   0.708  0.00  0.00     0.411 P 
HETATM   14  O           1     -23.570 -13.436   1.970  0.00  0.00    -0.624 OA
HETATM   15  O           1     -23.044 -13.975  -0.326  0.00  0.00    -0.624 OA
BRANCH  13  16
HETATM   16  O           1     -21.459 -12.480   0.956  0.00  0.00    -0.300 OA
HETATM   17  H           1     -21.082 -12.418   0.094  0.00  0.00     0.223 HD
ENDBRANCH  13  16
ENDBRANCH  12  13
ENDBRANCH   9  12
ENDBRANCH   5   6
ENDBRANCH   1   5
BRANCH   1  18
HETATM   18  N           1     -19.499  -8.449  -4.292  0.00  0.00    -0.344 N 
HETATM   19  H           1     -18.791  -7.777  -4.025  0.00  0.00     0.163 HD
HETATM   20  C           1     -19.130  -9.663  -4.806  0.00  0.00     0.249 C 
HETATM   21  O           1     -18.987  -9.796  -5.998  0.00  0.00    -0.271 OA
BRANCH  20  22
HETATM   22  C           1     -18.905 -10.835  -3.883  0.00  0.00     0.275 C 
BRANCH  22  23
HETATM   23  N           1     -18.063 -11.864  -4.578  0.00  0.00    -0.066 N 
HETATM   24  H           1     -18.522 -12.800  -4.504  0.00  0.00     0.275 HD
HETATM   25  H           1     -17.960 -11.606  -5.586  0.00  0.00     0.275 HD
HETATM   26  H           1     -17.120 -11.902  -4.130  0.00  0.00     0.275 HD
ENDBRANCH  22  23
BRANCH  22  27
HETATM   27  C           1     -18.190 -10.361  -2.624  0.00  0.00     0.046 C 
BRANCH  27  28
HETATM   28  C           1     -16.706 -10.683  -2.731  0.00  0.00    -0.020 C 
HETATM   29  C           1     -16.245 -11.381  -1.458  0.00  0.00     0.009 C 
HETATM   30  C           1     -15.918  -9.394  -2.917  0.00  0.00     0.009 C 
ENDBRANCH  27  28
ENDBRANCH  22  27
ENDBRANCH  20  22
ENDBRANCH   1  18
TORSDOF 11
ENDMDL
