MODEL 1
REMARK VINA RESULT:      -5.6      0.000      0.000
REMARK  8 active torsions:
REMARK  status: ('A' for Active; 'I' for Inactive)
REMARK    1  A    between atoms: C_6  and  C_11 
REMARK    2  A    between atoms: C_6  and  C_19 
REMARK    3  A    between atoms: C_6  and  N_20 
REMARK    4  A    between atoms: S_7  and  C_15 
REMARK    5  A    between atoms: N_8  and  C_9 
REMARK    6  A    between atoms: C_9  and  C_10 
REMARK    7  A    between atoms: C_9  and  C_15 
REMARK       I    between atoms: C_10  and  N_20 
REMARK    8  A    between atoms: C_11  and  C_13 
REMARK       I    between atoms: N_12  and  C_13 
ROOT
HETATM    1  H           1     -35.348  -1.996 -13.934  0.00  0.00     0.163 HD
HETATM    2  O           1     -33.770  -2.213 -11.231  0.00  0.00    -0.271 OA
HETATM    3  C           1     -34.271  -2.582 -12.266  0.00  0.00     0.249 C 
HETATM    4  N           1     -34.929  -1.687 -13.067  0.00  0.00    -0.344 N 
ENDROOT
BRANCH   4   5
HETATM    5  C           1     -35.024  -0.295 -12.670  0.00  0.00     0.194 C 
BRANCH   5   6
HETATM    6  C           1     -35.036   0.586 -13.914  0.00  0.00     0.138 C 
BRANCH   6   7
HETATM    7  C           1     -35.613  -0.190 -15.073  0.00  0.00     0.217 C 
HETATM    8  N           1     -36.950  -0.104 -15.356  0.00  0.00    -0.370 N 
HETATM    9  H           1     -37.551   0.479 -14.788  0.00  0.00     0.159 HD
HETATM   10  H           1     -37.336  -0.624 -16.133  0.00  0.00     0.159 HD
HETATM   11  O           1     -34.895  -0.886 -15.751  0.00  0.00    -0.274 OA
ENDBRANCH   6   7
ENDBRANCH   5   6
BRANCH   5  12
HETATM   12  C           1     -36.297  -0.080 -11.889  0.00  0.00     0.197 C 
HETATM   13  O           1     -36.265   0.527 -10.796  0.00  0.00    -0.646 OA
HETATM   14  O           1     -37.383  -0.509 -12.334  0.00  0.00    -0.646 OA
ENDBRANCH   5  12
ENDBRANCH   4   5
BRANCH   3  15
HETATM   15  C           1     -34.172  -4.030 -12.678  0.00  0.00     0.283 C 
BRANCH  15  16
HETATM   16  N           1     -33.640  -4.116 -14.078  0.00  0.00    -0.066 N 
HETATM   17  H           1     -32.638  -4.409 -14.054  0.00  0.00     0.275 HD
HETATM   18  H           1     -34.195  -4.818 -14.619  0.00  0.00     0.275 HD
HETATM   19  H           1     -33.718  -3.181 -14.538  0.00  0.00     0.275 HD
ENDBRANCH  15  16
BRANCH  15  20
HETATM   20  C           1     -33.230  -4.764 -11.733  0.00  0.00     0.113 C 
BRANCH  20  21
HETATM   21  S           1     -34.166  -5.988 -10.775  0.00  0.00    -0.180 SA
HETATM   22  H           1     -35.227  -6.031 -11.600  0.00  0.00     0.101 HD
ENDBRANCH  20  21
ENDBRANCH  15  20
ENDBRANCH   3  15
TORSDOF 8
ENDMDL
MODEL 2
REMARK VINA RESULT:      -5.4     12.028     13.883
REMARK  8 active torsions:
REMARK  status: ('A' for Active; 'I' for Inactive)
REMARK    1  A    between atoms: C_6  and  C_11 
REMARK    2  A    between atoms: C_6  and  C_19 
REMARK    3  A    between atoms: C_6  and  N_20 
REMARK    4  A    between atoms: S_7  and  C_15 
REMARK    5  A    between atoms: N_8  and  C_9 
REMARK    6  A    between atoms: C_9  and  C_10 
REMARK    7  A    between atoms: C_9  and  C_15 
REMARK       I    between atoms: C_10  and  N_20 
REMARK    8  A    between atoms: C_11  and  C_13 
REMARK       I    between atoms: N_12  and  C_13 
ROOT
HETATM    1  H           1     -23.468  -5.393  -8.636  0.00  0.00     0.163 HD
HETATM    2  O           1     -21.506  -3.176  -7.595  0.00  0.00    -0.271 OA
HETATM    3  C           1     -22.160  -4.191  -7.572  0.00  0.00     0.249 C 
HETATM    4  N           1     -22.921  -4.541  -8.655  0.00  0.00    -0.344 N 
ENDROOT
BRANCH   4   5
HETATM    5  C           1     -22.942  -3.692  -9.830  0.00  0.00     0.194 C 
BRANCH   5   6
HETATM    6  C           1     -22.242  -4.404 -10.981  0.00  0.00     0.138 C 
BRANCH   6   7
HETATM    7  C           1     -20.767  -4.084 -10.948  0.00  0.00     0.217 C 
HETATM    8  N           1     -20.295  -2.965 -11.579  0.00  0.00    -0.370 N 
HETATM    9  H           1     -20.934  -2.352 -12.069  0.00  0.00     0.159 HD
HETATM   10  H           1     -19.306  -2.751 -11.557  0.00  0.00     0.159 HD
HETATM   11  O           1     -20.004  -4.816 -10.363  0.00  0.00    -0.274 OA
ENDBRANCH   6   7
ENDBRANCH   5   6
BRANCH   5  12
HETATM   12  C           1     -24.372  -3.399 -10.214  0.00  0.00     0.197 C 
HETATM   13  O           1     -24.795  -3.725 -11.344  0.00  0.00    -0.646 OA
HETATM   14  O           1     -25.133  -2.832  -9.401  0.00  0.00    -0.646 OA
ENDBRANCH   5  12
ENDBRANCH   4   5
BRANCH   3  15
HETATM   15  C           1     -22.138  -5.075  -6.349  0.00  0.00     0.283 C 
BRANCH  15  16
HETATM   16  N           1     -23.540  -5.476  -5.997  0.00  0.00    -0.066 N 
HETATM   17  H           1     -23.963  -6.004  -6.793  0.00  0.00     0.275 HD
HETATM   18  H           1     -23.526  -6.083  -5.146  0.00  0.00     0.275 HD
HETATM   19  H           1     -24.110  -4.621  -5.807  0.00  0.00     0.275 HD
ENDBRANCH  15  16
BRANCH  15  20
HETATM   20  C           1     -21.312  -6.321  -6.638  0.00  0.00     0.113 C 
BRANCH  20  21
HETATM   21  S           1     -21.020  -7.226  -5.092  0.00  0.00    -0.180 SA
HETATM   22  H           1     -22.226  -7.818  -5.045  0.00  0.00     0.101 HD
ENDBRANCH  20  21
ENDBRANCH  15  20
ENDBRANCH   3  15
TORSDOF 8
ENDMDL
MODEL 3
REMARK VINA RESULT:      -4.8     14.344     16.404
REMARK  8 active torsions:
REMARK  status: ('A' for Active; 'I' for Inactive)
REMARK    1  A    between atoms: C_6  and  C_11 
REMARK    2  A    between atoms: C_6  and  C_19 
REMARK    3  A    between atoms: C_6  and  N_20 
REMARK    4  A    between atoms: S_7  and  C_15 
REMARK    5  A    between atoms: N_8  and  C_9 
REMARK    6  A    between atoms: C_9  and  C_10 
REMARK    7  A    between atoms: C_9  and  C_15 
REMARK       I    between atoms: C_10  and  N_20 
REMARK    8  A    between atoms: C_11  and  C_13 
REMARK       I    between atoms: N_12  and  C_13 
ROOT
HETATM    1  H           1     -20.753  -4.609  -4.472  0.00  0.00     0.163 HD
HETATM    2  O           1     -21.815  -7.500  -5.073  0.00  0.00    -0.271 OA
HETATM    3  C           1     -21.436  -6.562  -4.412  0.00  0.00     0.249 C 
HETATM    4  N           1     -21.070  -5.394  -5.026  0.00  0.00    -0.344 N 
ENDROOT
BRANCH   4   5
HETATM    5  C           1     -21.137  -5.284  -6.471  0.00  0.00     0.194 C 
BRANCH   5   6
HETATM    6  C           1     -21.567  -3.873  -6.851  0.00  0.00     0.138 C 
BRANCH   6   7
HETATM    7  C           1     -22.421  -3.925  -8.095  0.00  0.00     0.217 C 
HETATM    8  N           1     -23.780  -4.058  -7.987  0.00  0.00    -0.370 N 
HETATM    9  H           1     -24.211  -4.121  -7.074  0.00  0.00     0.159 HD
HETATM   10  H           1     -24.351  -4.093  -8.821  0.00  0.00     0.159 HD
HETATM   11  O           1     -21.905  -3.851  -9.185  0.00  0.00    -0.274 OA
ENDBRANCH   6   7
ENDBRANCH   5   6
BRANCH   5  12
HETATM   12  C           1     -19.778  -5.572  -7.060  0.00  0.00     0.197 C 
HETATM   13  O           1     -19.406  -6.754  -7.225  0.00  0.00    -0.646 OA
HETATM   14  O           1     -19.025  -4.628  -7.384  0.00  0.00    -0.646 OA
ENDBRANCH   5  12
ENDBRANCH   4   5
BRANCH   3  15
HETATM   15  C           1     -21.367  -6.677  -2.909  0.00  0.00     0.283 C 
BRANCH  15  16
HETATM   16  N           1     -22.480  -5.881  -2.295  0.00  0.00    -0.066 N 
HETATM   17  H           1     -22.453  -4.903  -2.662  0.00  0.00     0.275 HD
HETATM   18  H           1     -23.397  -6.319  -2.539  0.00  0.00     0.275 HD
HETATM   19  H           1     -22.365  -5.865  -1.257  0.00  0.00     0.275 HD
ENDBRANCH  15  16
BRANCH  15  20
HETATM   20  C           1     -21.506  -8.139  -2.505  0.00  0.00     0.113 C 
BRANCH  20  21
HETATM   21  S           1     -19.859  -8.864  -2.274  0.00  0.00    -0.180 SA
HETATM   22  H           1     -20.258  -9.866  -1.471  0.00  0.00     0.101 HD
ENDBRANCH  20  21
ENDBRANCH  15  20
ENDBRANCH   3  15
TORSDOF 8
ENDMDL
MODEL 4
REMARK VINA RESULT:      -4.6      1.560      1.810
REMARK  8 active torsions:
REMARK  status: ('A' for Active; 'I' for Inactive)
REMARK    1  A    between atoms: C_6  and  C_11 
REMARK    2  A    between atoms: C_6  and  C_19 
REMARK    3  A    between atoms: C_6  and  N_20 
REMARK    4  A    between atoms: S_7  and  C_15 
REMARK    5  A    between atoms: N_8  and  C_9 
REMARK    6  A    between atoms: C_9  and  C_10 
REMARK    7  A    between atoms: C_9  and  C_15 
REMARK       I    between atoms: C_10  and  N_20 
REMARK    8  A    between atoms: C_11  and  C_13 
REMARK       I    between atoms: N_12  and  C_13 
ROOT
HETATM    1  H           1     -35.683  -3.430 -12.942  0.00  0.00     0.163 HD
HETATM    2  O           1     -33.294  -2.804 -11.006  0.00  0.00    -0.271 OA
HETATM    3  C           1     -34.069  -3.474 -11.647  0.00  0.00     0.249 C 
HETATM    4  N           1     -35.035  -2.868 -12.404  0.00  0.00    -0.344 N 
ENDROOT
BRANCH   4   5
HETATM    5  C           1     -35.129  -1.421 -12.437  0.00  0.00     0.194 C 
BRANCH   5   6
HETATM    6  C           1     -35.603  -0.976 -13.814  0.00  0.00     0.138 C 
BRANCH   6   7
HETATM    7  C           1     -35.204   0.462 -14.043  0.00  0.00     0.217 C 
HETATM    8  N           1     -35.986   1.273 -14.821  0.00  0.00    -0.370 N 
HETATM    9  H           1     -36.831   0.909 -15.243  0.00  0.00     0.159 HD
HETATM   10  H           1     -35.719   2.237 -14.974  0.00  0.00     0.159 HD
HETATM   11  O           1     -34.196   0.896 -13.540  0.00  0.00    -0.274 OA
ENDBRANCH   6   7
ENDBRANCH   5   6
BRANCH   5  12
HETATM   12  C           1     -36.114  -0.958 -11.391  0.00  0.00     0.197 C 
HETATM   13  O           1     -37.340  -1.122 -11.570  0.00  0.00    -0.646 OA
HETATM   14  O           1     -35.702  -0.411 -10.345  0.00  0.00    -0.646 OA
ENDBRANCH   5  12
ENDBRANCH   4   5
BRANCH   3  15
HETATM   15  C           1     -33.971  -4.979 -11.613  0.00  0.00     0.283 C 
BRANCH  15  16
HETATM   16  N           1     -32.564  -5.395 -11.926  0.00  0.00    -0.066 N 
HETATM   17  H           1     -32.576  -6.153 -12.645  0.00  0.00     0.275 HD
HETATM   18  H           1     -32.032  -4.574 -12.295  0.00  0.00     0.275 HD
HETATM   19  H           1     -32.104  -5.748 -11.057  0.00  0.00     0.275 HD
ENDBRANCH  15  16
BRANCH  15  20
HETATM   20  C           1     -34.351  -5.482 -10.226  0.00  0.00     0.113 C 
BRANCH  20  21
HETATM   21  S           1     -34.744  -7.251 -10.310  0.00  0.00    -0.180 SA
HETATM   22  H           1     -35.388  -7.197 -11.490  0.00  0.00     0.101 HD
ENDBRANCH  20  21
ENDBRANCH  15  20
ENDBRANCH   3  15
TORSDOF 8
ENDMDL
MODEL 5
REMARK VINA RESULT:      -4.5     25.309     26.336
REMARK  8 active torsions:
REMARK  status: ('A' for Active; 'I' for Inactive)
REMARK    1  A    between atoms: C_6  and  C_11 
REMARK    2  A    between atoms: C_6  and  C_19 
REMARK    3  A    between atoms: C_6  and  N_20 
REMARK    4  A    between atoms: S_7  and  C_15 
REMARK    5  A    between atoms: N_8  and  C_9 
REMARK    6  A    between atoms: C_9  and  C_10 
REMARK    7  A    between atoms: C_9  and  C_15 
REMARK       I    between atoms: C_10  and  N_20 
REMARK    8  A    between atoms: C_11  and  C_13 
REMARK       I    between atoms: N_12  and  C_13 
ROOT
HETATM    1  H           1     -11.308   7.481 -19.380  0.00  0.00     0.163 HD
HETATM    2  O           1     -13.046   8.422 -21.817  0.00  0.00    -0.271 OA
HETATM    3  C           1     -12.394   8.518 -20.805  0.00  0.00     0.249 C 
HETATM    4  N           1     -11.854   7.400 -20.228  0.00  0.00    -0.344 N 
ENDROOT
BRANCH   4   5
HETATM    5  C           1     -12.065   6.099 -20.833  0.00  0.00     0.194 C 
BRANCH   5   6
HETATM    6  C           1     -10.723   5.399 -21.009  0.00  0.00     0.138 C 
BRANCH   6   7
HETATM    7  C           1      -9.705   6.026 -20.087  0.00  0.00     0.217 C 
HETATM    8  N           1      -9.481   5.488 -18.848  0.00  0.00    -0.370 N 
HETATM    9  H           1      -9.998   4.671 -18.550  0.00  0.00     0.159 HD
HETATM   10  H           1      -8.799   5.908 -18.230  0.00  0.00     0.159 HD
HETATM   11  O           1      -9.088   7.002 -20.442  0.00  0.00    -0.274 OA
ENDBRANCH   6   7
ENDBRANCH   5   6
BRANCH   5  12
HETATM   12  C           1     -12.954   5.267 -19.942  0.00  0.00     0.197 C 
HETATM   13  O           1     -14.188   5.465 -19.931  0.00  0.00    -0.646 OA
HETATM   14  O           1     -12.456   4.381 -19.215  0.00  0.00    -0.646 OA
ENDBRANCH   5  12
ENDBRANCH   4   5
BRANCH   3  15
HETATM   15  C           1     -12.175   9.872 -20.175  0.00  0.00     0.283 C 
BRANCH  15  16
HETATM   16  N           1     -12.544  10.945 -21.156  0.00  0.00    -0.066 N 
HETATM   17  H           1     -12.276  11.878 -20.770  0.00  0.00     0.275 HD
HETATM   18  H           1     -12.037  10.782 -22.056  0.00  0.00     0.275 HD
HETATM   19  H           1     -13.574  10.922 -21.327  0.00  0.00     0.275 HD
ENDBRANCH  15  16
BRANCH  15  20
HETATM   20  C           1     -13.047  10.001 -18.932  0.00  0.00     0.113 C 
BRANCH  20  21
HETATM   21  S           1     -14.251  11.336 -19.173  0.00  0.00    -0.180 SA
HETATM   22  H           1     -15.238  10.553 -19.643  0.00  0.00     0.101 HD
ENDBRANCH  20  21
ENDBRANCH  15  20
ENDBRANCH   3  15
TORSDOF 8
ENDMDL
MODEL 6
REMARK VINA RESULT:      -4.5     15.488     17.524
REMARK  8 active torsions:
REMARK  status: ('A' for Active; 'I' for Inactive)
REMARK    1  A    between atoms: C_6  and  C_11 
REMARK    2  A    between atoms: C_6  and  C_19 
REMARK    3  A    between atoms: C_6  and  N_20 
REMARK    4  A    between atoms: S_7  and  C_15 
REMARK    5  A    between atoms: N_8  and  C_9 
REMARK    6  A    between atoms: C_9  and  C_10 
REMARK    7  A    between atoms: C_9  and  C_15 
REMARK       I    between atoms: C_10  and  N_20 
REMARK    8  A    between atoms: C_11  and  C_13 
REMARK       I    between atoms: N_12  and  C_13 
ROOT
HETATM    1  H           1     -19.873  -6.849  -4.841  0.00  0.00     0.163 HD
HETATM    2  O           1     -22.594  -5.554  -5.716  0.00  0.00    -0.271 OA
HETATM    3  C           1     -21.403  -5.751  -5.702  0.00  0.00     0.249 C 
HETATM    4  N           1     -20.872  -6.684  -4.852  0.00  0.00    -0.344 N 
ENDROOT
BRANCH   4   5
HETATM    5  C           1     -21.741  -7.435  -3.967  0.00  0.00     0.194 C 
BRANCH   5   6
HETATM    6  C           1     -21.336  -8.903  -3.986  0.00  0.00     0.138 C 
BRANCH   6   7
HETATM    7  C           1     -19.925  -9.029  -4.508  0.00  0.00     0.217 C 
HETATM    8  N           1     -18.872  -9.067  -3.633  0.00  0.00    -0.370 N 
HETATM    9  H           1     -19.040  -9.012  -2.637  0.00  0.00     0.159 HD
HETATM   10  H           1     -17.927  -9.151  -3.984  0.00  0.00     0.159 HD
HETATM   11  O           1     -19.725  -9.095  -5.698  0.00  0.00    -0.274 OA
ENDBRANCH   6   7
ENDBRANCH   5   6
BRANCH   5  12
HETATM   12  C           1     -21.616  -6.896  -2.563  0.00  0.00     0.197 C 
HETATM   13  O           1     -22.293  -5.906  -2.211  0.00  0.00    -0.646 OA
HETATM   14  O           1     -20.837  -7.440  -1.752  0.00  0.00    -0.646 OA
ENDBRANCH   5  12
ENDBRANCH   4   5
BRANCH   3  15
HETATM   15  C           1     -20.498  -4.969  -6.623  0.00  0.00     0.283 C 
BRANCH  15  16
HETATM   16  N           1     -20.008  -5.866  -7.721  0.00  0.00    -0.066 N 
HETATM   17  H           1     -19.062  -6.237  -7.473  0.00  0.00     0.275 HD
HETATM   18  H           1     -20.672  -6.664  -7.842  0.00  0.00     0.275 HD
HETATM   19  H           1     -19.946  -5.324  -8.612  0.00  0.00     0.275 HD
ENDBRANCH  15  16
BRANCH  15  20
HETATM   20  C           1     -21.272  -3.805  -7.227  0.00  0.00     0.113 C 
BRANCH  20  21
HETATM   21  S           1     -21.723  -4.201  -8.940  0.00  0.00    -0.180 SA
HETATM   22  H           1     -20.517  -3.929  -9.469  0.00  0.00     0.101 HD
ENDBRANCH  20  21
ENDBRANCH  15  20
ENDBRANCH   3  15
TORSDOF 8
ENDMDL
MODEL 7
REMARK VINA RESULT:      -4.5     15.483     17.486
REMARK  8 active torsions:
REMARK  status: ('A' for Active; 'I' for Inactive)
REMARK    1  A    between atoms: C_6  and  C_11 
REMARK    2  A    between atoms: C_6  and  C_19 
REMARK    3  A    between atoms: C_6  and  N_20 
REMARK    4  A    between atoms: S_7  and  C_15 
REMARK    5  A    between atoms: N_8  and  C_9 
REMARK    6  A    between atoms: C_9  and  C_10 
REMARK    7  A    between atoms: C_9  and  C_15 
REMARK       I    between atoms: C_10  and  N_20 
REMARK    8  A    between atoms: C_11  and  C_13 
REMARK       I    between atoms: N_12  and  C_13 
ROOT
HETATM    1  H           1     -21.470  -7.300  -6.747  0.00  0.00     0.163 HD
HETATM    2  O           1     -20.399  -4.544  -5.696  0.00  0.00    -0.271 OA
HETATM    3  C           1     -20.900  -5.330  -6.464  0.00  0.00     0.249 C 
HETATM    4  N           1     -21.049  -6.642  -6.103  0.00  0.00    -0.344 N 
ENDROOT
BRANCH   4   5
HETATM    5  C           1     -20.604  -7.088  -4.797  0.00  0.00     0.194 C 
BRANCH   5   6
HETATM    6  C           1     -21.809  -7.529  -3.975  0.00  0.00     0.138 C 
BRANCH   6   7
HETATM    7  C           1     -21.729  -6.917  -2.598  0.00  0.00     0.217 C 
HETATM    8  N           1     -20.965  -7.510  -1.629  0.00  0.00    -0.370 N 
HETATM    9  H           1     -20.453  -8.358  -1.836  0.00  0.00     0.159 HD
HETATM   10  H           1     -20.911  -7.100  -0.705  0.00  0.00     0.159 HD
HETATM   11  O           1     -22.340  -5.904  -2.350  0.00  0.00    -0.274 OA
ENDBRANCH   6   7
ENDBRANCH   5   6
BRANCH   5  12
HETATM   12  C           1     -19.654  -8.249  -4.959  0.00  0.00     0.197 C 
HETATM   13  O           1     -19.382  -8.976  -3.979  0.00  0.00    -0.646 OA
HETATM   14  O           1     -19.140  -8.483  -6.074  0.00  0.00    -0.646 OA
ENDBRANCH   5  12
ENDBRANCH   4   5
BRANCH   3  15
HETATM   15  C           1     -21.363  -4.865  -7.823  0.00  0.00     0.283 C 
BRANCH  15  16
HETATM   16  N           1     -22.157  -3.600  -7.675  0.00  0.00    -0.066 N 
HETATM   17  H           1     -22.273  -3.377  -6.660  0.00  0.00     0.275 HD
HETATM   18  H           1     -21.653  -2.815  -8.147  0.00  0.00     0.275 HD
HETATM   19  H           1     -23.097  -3.725  -8.112  0.00  0.00     0.275 HD
ENDBRANCH  15  16
BRANCH  15  20
HETATM   20  C           1     -20.153  -4.603  -8.710  0.00  0.00     0.113 C 
BRANCH  20  21
HETATM   21  S           1     -20.710  -4.166 -10.381  0.00  0.00    -0.180 SA
HETATM   22  H           1     -21.104  -2.916 -10.075  0.00  0.00     0.101 HD
ENDBRANCH  20  21
ENDBRANCH  15  20
ENDBRANCH   3  15
TORSDOF 8
ENDMDL
MODEL 8
REMARK VINA RESULT:      -4.4     17.384     18.976
REMARK  8 active torsions:
REMARK  status: ('A' for Active; 'I' for Inactive)
REMARK    1  A    between atoms: C_6  and  C_11 
REMARK    2  A    between atoms: C_6  and  C_19 
REMARK    3  A    between atoms: C_6  and  N_20 
REMARK    4  A    between atoms: S_7  and  C_15 
REMARK    5  A    between atoms: N_8  and  C_9 
REMARK    6  A    between atoms: C_9  and  C_10 
REMARK    7  A    between atoms: C_9  and  C_15 
REMARK       I    between atoms: C_10  and  N_20 
REMARK    8  A    between atoms: C_11  and  C_13 
REMARK       I    between atoms: N_12  and  C_13 
ROOT
HETATM    1  H           1     -22.142  -8.152  -2.773  0.00  0.00     0.163 HD
HETATM    2  O           1     -19.138  -8.973  -3.159  0.00  0.00    -0.271 OA
HETATM    3  C           1     -20.204  -8.472  -3.427  0.00  0.00     0.249 C 
HETATM    4  N           1     -21.249  -8.572  -2.548  0.00  0.00    -0.344 N 
ENDROOT
BRANCH   4   5
HETATM    5  C           1     -21.076  -9.281  -1.295  0.00  0.00     0.194 C 
BRANCH   5   6
HETATM    6  C           1     -21.203  -8.299  -0.137  0.00  0.00     0.138 C 
BRANCH   6   7
HETATM    7  C           1     -22.530  -7.585  -0.227  0.00  0.00     0.217 C 
HETATM    8  N           1     -23.567  -7.963   0.584  0.00  0.00    -0.370 N 
HETATM    9  H           1     -23.444  -8.721   1.243  0.00  0.00     0.159 HD
HETATM   10  H           1     -24.456  -7.484   0.524  0.00  0.00     0.159 HD
HETATM   11  O           1     -22.677  -6.680  -1.014  0.00  0.00    -0.274 OA
ENDBRANCH   6   7
ENDBRANCH   5   6
BRANCH   5  12
HETATM   12  C           1     -22.136 -10.348  -1.170  0.00  0.00     0.197 C 
HETATM   13  O           1     -22.808 -10.681  -2.170  0.00  0.00    -0.646 OA
HETATM   14  O           1     -22.340 -10.899  -0.067  0.00  0.00    -0.646 OA
ENDBRANCH   5  12
ENDBRANCH   4   5
BRANCH   3  15
HETATM   15  C           1     -20.384  -7.734  -4.731  0.00  0.00     0.283 C 
BRANCH  15  16
HETATM   16  N           1     -21.146  -8.598  -5.692  0.00  0.00    -0.066 N 
HETATM   17  H           1     -20.882  -9.599  -5.547  0.00  0.00     0.275 HD
HETATM   18  H           1     -22.172  -8.482  -5.527  0.00  0.00     0.275 HD
HETATM   19  H           1     -20.915  -8.317  -6.672  0.00  0.00     0.275 HD
ENDBRANCH  15  16
BRANCH  15  20
HETATM   20  C           1     -21.159  -6.447  -4.484  0.00  0.00     0.113 C 
BRANCH  20  21
HETATM   21  S           1     -20.544  -5.148  -5.593  0.00  0.00    -0.180 SA
HETATM   22  H           1     -19.262  -5.553  -5.586  0.00  0.00     0.101 HD
ENDBRANCH  20  21
ENDBRANCH  15  20
ENDBRANCH   3  15
TORSDOF 8
ENDMDL
MODEL 9
REMARK VINA RESULT:      -4.2     24.921     25.880
REMARK  8 active torsions:
REMARK  status: ('A' for Active; 'I' for Inactive)
REMARK    1  A    between atoms: C_6  and  C_11 
REMARK    2  A    between atoms: C_6  and  C_19 
REMARK    3  A    between atoms: C_6  and  N_20 
REMARK    4  A    between atoms: S_7  and  C_15 
REMARK    5  A    between atoms: N_8  and  C_9 
REMARK    6  A    between atoms: C_9  and  C_10 
REMARK    7  A    between atoms: C_9  and  C_15 
REMARK       I    between atoms: C_10  and  N_20 
REMARK    8  A    between atoms: C_11  and  C_13 
REMARK       I    between atoms: N_12  and  C_13 
ROOT
HETATM    1  H           1     -11.878   5.414 -19.879  0.00  0.00     0.163 HD
HETATM    2  O           1     -12.316   8.132 -21.383  0.00  0.00    -0.271 OA
HETATM    3  C           1     -11.815   7.348 -20.613  0.00  0.00     0.249 C 
HETATM    4  N           1     -12.298   6.070 -20.524  0.00  0.00    -0.344 N 
ENDROOT
BRANCH   4   5
HETATM    5  C           1     -13.412   5.658 -21.356  0.00  0.00     0.194 C 
BRANCH   5   6
HETATM    6  C           1     -12.951   4.569 -22.316  0.00  0.00     0.138 C 
BRANCH   6   7
HETATM    7  C           1     -11.764   3.847 -21.725  0.00  0.00     0.217 C 
HETATM    8  N           1     -11.953   2.706 -20.991  0.00  0.00    -0.370 N 
HETATM    9  H           1     -12.888   2.347 -20.846  0.00  0.00     0.159 HD
HETATM   10  H           1     -11.158   2.223 -20.595  0.00  0.00     0.159 HD
HETATM   11  O           1     -10.648   4.276 -21.899  0.00  0.00    -0.274 OA
ENDBRANCH   6   7
ENDBRANCH   5   6
BRANCH   5  12
HETATM   12  C           1     -14.521   5.123 -20.483  0.00  0.00     0.197 C 
HETATM   13  O           1     -14.245   4.486 -19.443  0.00  0.00    -0.646 OA
HETATM   14  O           1     -15.714   5.317 -20.799  0.00  0.00    -0.646 OA
ENDBRANCH   5  12
ENDBRANCH   4   5
BRANCH   3  15
HETATM   15  C           1     -10.656   7.778 -19.748  0.00  0.00     0.283 C 
BRANCH  15  16
HETATM   16  N           1      -9.504   6.840 -19.955  0.00  0.00    -0.066 N 
HETATM   17  H           1      -9.842   5.853 -19.895  0.00  0.00     0.275 HD
HETATM   18  H           1      -9.084   7.008 -20.897  0.00  0.00     0.275 HD
HETATM   19  H           1      -8.783   7.006 -19.217  0.00  0.00     0.275 HD
ENDBRANCH  15  16
BRANCH  15  20
HETATM   20  C           1     -10.234   9.191 -20.128  0.00  0.00     0.113 C 
BRANCH  20  21
HETATM   21  S           1      -8.890   9.115 -21.344  0.00  0.00    -0.180 SA
HETATM   22  H           1      -9.481   9.906 -22.257  0.00  0.00     0.101 HD
ENDBRANCH  20  21
ENDBRANCH  15  20
ENDBRANCH   3  15
TORSDOF 8
ENDMDL
