MODEL 1
REMARK VINA RESULT:      -6.3      0.000      0.000
REMARK  8 active torsions:
REMARK  status: ('A' for Active; 'I' for Inactive)
REMARK    1  A    between atoms: C_1  and  C_3 
REMARK    2  A    between atoms: C_1  and  C_15 
REMARK    3  A    between atoms: C_1  and  N_7 
REMARK    4  A    between atoms: C_2  and  C_14 
REMARK    5  A    between atoms: C_2  and  C_16 
REMARK    6  A    between atoms: C_2  and  N_4 
REMARK       I    between atoms: C_3  and  N_4 
REMARK    7  A    between atoms: C_6  and  C_14 
REMARK    8  A    between atoms: C_15  and  O_20 
ROOT
HETATM    1  C           1     -35.895  -0.375 -13.215  0.00  0.00     0.251 C 
HETATM    2  N           1     -35.096  -0.476 -12.108  0.00  0.00    -0.345 N 
HETATM    3  H           1     -34.319   0.162 -11.984  0.00  0.00     0.163 HD
HETATM    4  O           1     -36.822  -1.135 -13.362  0.00  0.00    -0.271 OA
ENDROOT
BRANCH   1   5
HETATM    5  C           1     -35.617   0.686 -14.252  0.00  0.00     0.297 C 
BRANCH   5   6
HETATM    6  C           1     -36.665   0.604 -15.354  0.00  0.00     0.206 C 
BRANCH   6   7
HETATM    7  O           1     -36.660   1.795 -16.093  0.00  0.00    -0.398 OA
HETATM    8  H           1     -37.477   1.830 -16.562  0.00  0.00     0.209 HD
ENDBRANCH   6   7
ENDBRANCH   5   6
BRANCH   5   9
HETATM    9  N           1     -34.255   0.463 -14.840  0.00  0.00    -0.064 N 
HETATM   10  H           1     -33.553   0.373 -14.071  0.00  0.00     0.275 HD
HETATM   11  H           1     -34.262  -0.414 -15.408  0.00  0.00     0.275 HD
HETATM   12  H           1     -34.002   1.273 -15.450  0.00  0.00     0.275 HD
ENDBRANCH   5   9
ENDBRANCH   1   5
BRANCH   2  13
HETATM   13  C           1     -35.363  -1.494 -11.111  0.00  0.00     0.185 C 
BRANCH  13  14
HETATM   14  C           1     -34.049  -1.973 -10.509  0.00  0.00     0.040 C 
BRANCH  14  15
HETATM   15  C           1     -33.928  -3.481 -10.683  0.00  0.00    -0.020 C 
HETATM   16  C           1     -32.845  -3.788 -11.709  0.00  0.00     0.009 C 
HETATM   17  C           1     -35.259  -4.043 -11.165  0.00  0.00     0.009 C 
ENDBRANCH  14  15
ENDBRANCH  13  14
BRANCH  13  18
HETATM   18  C           1     -36.234  -0.917 -10.023  0.00  0.00     0.196 C 
HETATM   19  O           1     -35.712  -0.418  -9.002  0.00  0.00    -0.646 OA
HETATM   20  O           1     -37.478  -0.937 -10.142  0.00  0.00    -0.646 OA
ENDBRANCH  13  18
ENDBRANCH   2  13
TORSDOF 8
ENDMDL
MODEL 2
REMARK VINA RESULT:      -6.1     10.497     12.150
REMARK  8 active torsions:
REMARK  status: ('A' for Active; 'I' for Inactive)
REMARK    1  A    between atoms: C_1  and  C_3 
REMARK    2  A    between atoms: C_1  and  C_15 
REMARK    3  A    between atoms: C_1  and  N_7 
REMARK    4  A    between atoms: C_2  and  C_14 
REMARK    5  A    between atoms: C_2  and  C_16 
REMARK    6  A    between atoms: C_2  and  N_4 
REMARK       I    between atoms: C_3  and  N_4 
REMARK    7  A    between atoms: C_6  and  C_14 
REMARK    8  A    between atoms: C_15  and  O_20 
ROOT
HETATM    1  C           1     -26.299  -6.584 -18.853  0.00  0.00     0.251 C 
HETATM    2  N           1     -27.639  -6.677 -19.121  0.00  0.00    -0.345 N 
HETATM    3  H           1     -27.952  -6.997 -20.029  0.00  0.00     0.163 HD
HETATM    4  O           1     -25.925  -6.203 -17.770  0.00  0.00    -0.271 OA
ENDROOT
BRANCH   1   5
HETATM    5  C           1     -25.291  -6.957 -19.913  0.00  0.00     0.297 C 
BRANCH   5   6
HETATM    6  C           1     -25.951  -7.861 -20.946  0.00  0.00     0.206 C 
BRANCH   6   7
HETATM    7  O           1     -24.963  -8.538 -21.675  0.00  0.00    -0.398 OA
HETATM    8  H           1     -24.175  -8.024 -21.610  0.00  0.00     0.209 HD
ENDBRANCH   6   7
ENDBRANCH   5   6
BRANCH   5   9
HETATM    9  N           1     -24.143  -7.683 -19.276  0.00  0.00    -0.064 N 
HETATM   10  H           1     -24.470  -8.610 -18.922  0.00  0.00     0.275 HD
HETATM   11  H           1     -23.388  -7.828 -19.984  0.00  0.00     0.275 HD
HETATM   12  H           1     -23.772  -7.118 -18.479  0.00  0.00     0.275 HD
ENDBRANCH   5   9
ENDBRANCH   1   5
BRANCH   2  13
HETATM   13  C           1     -28.608  -6.320 -18.104  0.00  0.00     0.185 C 
BRANCH  13  14
HETATM   14  C           1     -29.334  -5.048 -18.519  0.00  0.00     0.040 C 
BRANCH  14  15
HETATM   15  C           1     -29.729  -4.259 -17.278  0.00  0.00    -0.020 C 
HETATM   16  C           1     -31.215  -3.932 -17.335  0.00  0.00     0.009 C 
HETATM   17  C           1     -28.926  -2.966 -17.223  0.00  0.00     0.009 C 
ENDBRANCH  14  15
ENDBRANCH  13  14
BRANCH  13  18
HETATM   18  C           1     -29.605  -7.440 -17.944  0.00  0.00     0.196 C 
HETATM   19  O           1     -29.459  -8.284 -17.034  0.00  0.00    -0.646 OA
HETATM   20  O           1     -30.579  -7.525 -18.723  0.00  0.00    -0.646 OA
ENDBRANCH  13  18
ENDBRANCH   2  13
TORSDOF 8
ENDMDL
MODEL 3
REMARK VINA RESULT:      -6.1     12.241     14.588
REMARK  8 active torsions:
REMARK  status: ('A' for Active; 'I' for Inactive)
REMARK    1  A    between atoms: C_1  and  C_3 
REMARK    2  A    between atoms: C_1  and  C_15 
REMARK    3  A    between atoms: C_1  and  N_7 
REMARK    4  A    between atoms: C_2  and  C_14 
REMARK    5  A    between atoms: C_2  and  C_16 
REMARK    6  A    between atoms: C_2  and  N_4 
REMARK       I    between atoms: C_3  and  N_4 
REMARK    7  A    between atoms: C_6  and  C_14 
REMARK    8  A    between atoms: C_15  and  O_20 
ROOT
HETATM    1  C           1     -22.228  -4.237  -7.567  0.00  0.00     0.251 C 
HETATM    2  N           1     -23.103  -4.557  -8.571  0.00  0.00    -0.345 N 
HETATM    3  H           1     -23.775  -5.303  -8.438  0.00  0.00     0.163 HD
HETATM    4  O           1     -21.427  -3.347  -7.725  0.00  0.00    -0.271 OA
ENDROOT
BRANCH   1   5
HETATM    5  C           1     -22.264  -4.998  -6.264  0.00  0.00     0.297 C 
BRANCH   5   6
HETATM    6  C           1     -21.359  -6.219  -6.364  0.00  0.00     0.206 C 
BRANCH   6   7
HETATM    7  O           1     -20.639  -6.170  -7.566  0.00  0.00    -0.398 OA
HETATM    8  H           1     -19.851  -6.671  -7.433  0.00  0.00     0.209 HD
ENDBRANCH   6   7
ENDBRANCH   5   6
BRANCH   5   9
HETATM    9  N           1     -23.670  -5.441  -5.984  0.00  0.00    -0.064 N 
HETATM   10  H           1     -24.115  -5.770  -6.870  0.00  0.00     0.275 HD
HETATM   11  H           1     -23.655  -6.224  -5.292  0.00  0.00     0.275 HD
HETATM   12  H           1     -24.217  -4.641  -5.596  0.00  0.00     0.275 HD
ENDBRANCH   5   9
ENDBRANCH   1   5
BRANCH   2  13
HETATM   13  C           1     -23.069  -3.826  -9.822  0.00  0.00     0.185 C 
BRANCH  13  14
HETATM   14  C           1     -22.531  -4.730 -10.923  0.00  0.00     0.040 C 
BRANCH  14  15
HETATM   15  C           1     -21.216  -4.167 -11.446  0.00  0.00    -0.020 C 
HETATM   16  C           1     -20.063  -4.718 -10.617  0.00  0.00     0.009 C 
HETATM   17  C           1     -21.237  -2.647 -11.339  0.00  0.00     0.009 C 
ENDBRANCH  14  15
ENDBRANCH  13  14
BRANCH  13  18
HETATM   18  C           1     -24.464  -3.375 -10.179  0.00  0.00     0.196 C 
HETATM   19  O           1     -24.927  -3.612 -11.316  0.00  0.00    -0.646 OA
HETATM   20  O           1     -25.157  -2.764  -9.337  0.00  0.00    -0.646 OA
ENDBRANCH  13  18
ENDBRANCH   2  13
TORSDOF 8
ENDMDL
MODEL 4
REMARK VINA RESULT:      -6.1     10.923     12.448
REMARK  8 active torsions:
REMARK  status: ('A' for Active; 'I' for Inactive)
REMARK    1  A    between atoms: C_1  and  C_3 
REMARK    2  A    between atoms: C_1  and  C_15 
REMARK    3  A    between atoms: C_1  and  N_7 
REMARK    4  A    between atoms: C_2  and  C_14 
REMARK    5  A    between atoms: C_2  and  C_16 
REMARK    6  A    between atoms: C_2  and  N_4 
REMARK       I    between atoms: C_3  and  N_4 
REMARK    7  A    between atoms: C_6  and  C_14 
REMARK    8  A    between atoms: C_15  and  O_20 
ROOT
HETATM    1  C           1     -25.609  -6.727 -19.053  0.00  0.00     0.251 C 
HETATM    2  N           1     -26.706  -6.574 -18.250  0.00  0.00    -0.345 N 
HETATM    3  H           1     -27.620  -6.857 -18.582  0.00  0.00     0.163 HD
HETATM    4  O           1     -24.518  -6.391 -18.657  0.00  0.00    -0.271 OA
ENDROOT
BRANCH   1   5
HETATM    5  C           1     -25.761  -7.315 -20.435  0.00  0.00     0.297 C 
BRANCH   5   6
HETATM    6  C           1     -27.166  -7.882 -20.593  0.00  0.00     0.206 C 
BRANCH   6   7
HETATM    7  O           1     -27.162  -8.875 -21.582  0.00  0.00    -0.398 OA
HETATM    8  H           1     -26.311  -9.280 -21.560  0.00  0.00     0.209 HD
ENDBRANCH   6   7
ENDBRANCH   5   6
BRANCH   5   9
HETATM    9  N           1     -24.757  -8.412 -20.625  0.00  0.00    -0.064 N 
HETATM   10  H           1     -24.122  -8.170 -21.419  0.00  0.00     0.275 HD
HETATM   11  H           1     -24.193  -8.522 -19.752  0.00  0.00     0.275 HD
HETATM   12  H           1     -25.253  -9.306 -20.837  0.00  0.00     0.275 HD
ENDBRANCH   5   9
ENDBRANCH   1   5
BRANCH   2  13
HETATM   13  C           1     -26.560  -6.011 -16.922  0.00  0.00     0.185 C 
BRANCH  13  14
HETATM   14  C           1     -27.819  -5.236 -16.558  0.00  0.00     0.040 C 
BRANCH  14  15
HETATM   15  C           1     -28.897  -5.498 -17.601  0.00  0.00    -0.020 C 
HETATM   16  C           1     -29.413  -4.170 -18.141  0.00  0.00     0.009 C 
HETATM   17  C           1     -30.046  -6.266 -16.961  0.00  0.00     0.009 C 
ENDBRANCH  14  15
ENDBRANCH  13  14
BRANCH  13  18
HETATM   18  C           1     -26.347  -7.122 -15.925  0.00  0.00     0.196 C 
HETATM   19  O           1     -25.192  -7.544 -15.694  0.00  0.00    -0.646 OA
HETATM   20  O           1     -27.325  -7.623 -15.328  0.00  0.00    -0.646 OA
ENDBRANCH  13  18
ENDBRANCH   2  13
TORSDOF 8
ENDMDL
MODEL 5
REMARK VINA RESULT:      -6.1     10.472     12.042
REMARK  8 active torsions:
REMARK  status: ('A' for Active; 'I' for Inactive)
REMARK    1  A    between atoms: C_1  and  C_3 
REMARK    2  A    between atoms: C_1  and  C_15 
REMARK    3  A    between atoms: C_1  and  N_7 
REMARK    4  A    between atoms: C_2  and  C_14 
REMARK    5  A    between atoms: C_2  and  C_16 
REMARK    6  A    between atoms: C_2  and  N_4 
REMARK       I    between atoms: C_3  and  N_4 
REMARK    7  A    between atoms: C_6  and  C_14 
REMARK    8  A    between atoms: C_15  and  O_20 
ROOT
HETATM    1  C           1     -26.457  -6.435 -19.636  0.00  0.00     0.251 C 
HETATM    2  N           1     -26.871  -6.532 -18.335  0.00  0.00    -0.345 N 
HETATM    3  H           1     -26.246  -6.907 -17.632  0.00  0.00     0.163 HD
HETATM    4  O           1     -27.202  -5.987 -20.475  0.00  0.00    -0.271 OA
ENDROOT
BRANCH   1   5
HETATM    5  C           1     -25.072  -6.890 -20.024  0.00  0.00     0.297 C 
BRANCH   5   6
HETATM    6  C           1     -25.172  -7.953 -21.110  0.00  0.00     0.206 C 
BRANCH   6   7
HETATM    7  O           1     -26.456  -8.514 -21.099  0.00  0.00    -0.398 OA
HETATM    8  H           1     -27.062  -7.808 -20.944  0.00  0.00     0.209 HD
ENDBRANCH   6   7
ENDBRANCH   5   6
BRANCH   5   9
HETATM    9  N           1     -24.382  -7.468 -18.823  0.00  0.00    -0.064 N 
HETATM   10  H           1     -25.093  -7.711 -18.096  0.00  0.00     0.275 HD
HETATM   11  H           1     -23.862  -8.330 -19.102  0.00  0.00     0.275 HD
HETATM   12  H           1     -23.713  -6.767 -18.434  0.00  0.00     0.275 HD
ENDBRANCH   5   9
ENDBRANCH   1   5
BRANCH   2  13
HETATM   13  C           1     -28.202  -6.094 -17.962  0.00  0.00     0.185 C 
BRANCH  13  14
HETATM   14  C           1     -28.784  -7.057 -16.936  0.00  0.00     0.040 C 
BRANCH  14  15
HETATM   15  C           1     -30.120  -7.588 -17.437  0.00  0.00    -0.020 C 
HETATM   16  C           1     -29.990  -7.984 -18.902  0.00  0.00     0.009 C 
HETATM   17  C           1     -31.181  -6.505 -17.296  0.00  0.00     0.009 C 
ENDBRANCH  14  15
ENDBRANCH  13  14
BRANCH  13  18
HETATM   18  C           1     -28.128  -4.710 -17.368  0.00  0.00     0.196 C 
HETATM   19  O           1     -27.328  -4.470 -16.437  0.00  0.00    -0.646 OA
HETATM   20  O           1     -28.866  -3.801 -17.806  0.00  0.00    -0.646 OA
ENDBRANCH  13  18
ENDBRANCH   2  13
TORSDOF 8
ENDMDL
MODEL 6
REMARK VINA RESULT:      -5.7      1.584      2.069
REMARK  8 active torsions:
REMARK  status: ('A' for Active; 'I' for Inactive)
REMARK    1  A    between atoms: C_1  and  C_3 
REMARK    2  A    between atoms: C_1  and  C_15 
REMARK    3  A    between atoms: C_1  and  N_7 
REMARK    4  A    between atoms: C_2  and  C_14 
REMARK    5  A    between atoms: C_2  and  C_16 
REMARK    6  A    between atoms: C_2  and  N_4 
REMARK       I    between atoms: C_3  and  N_4 
REMARK    7  A    between atoms: C_6  and  C_14 
REMARK    8  A    between atoms: C_15  and  O_20 
ROOT
HETATM    1  C           1     -36.914  -0.384 -13.527  0.00  0.00     0.251 C 
HETATM    2  N           1     -36.242  -0.409 -12.335  0.00  0.00    -0.345 N 
HETATM    3  H           1     -35.269  -0.132 -12.296  0.00  0.00     0.163 HD
HETATM    4  O           1     -38.075  -0.713 -13.573  0.00  0.00    -0.271 OA
ENDROOT
BRANCH   1   5
HETATM    5  C           1     -36.202   0.052 -14.785  0.00  0.00     0.297 C 
BRANCH   5   6
HETATM    6  C           1     -34.814   0.568 -14.429  0.00  0.00     0.206 C 
BRANCH   6   7
HETATM    7  O           1     -34.923   1.833 -13.835  0.00  0.00    -0.398 OA
HETATM    8  H           1     -34.055   2.202 -13.815  0.00  0.00     0.209 HD
ENDBRANCH   6   7
ENDBRANCH   5   6
BRANCH   5   9
HETATM    9  N           1     -36.986   1.146 -15.448  0.00  0.00    -0.064 N 
HETATM   10  H           1     -36.331   1.879 -15.802  0.00  0.00     0.275 HD
HETATM   11  H           1     -37.529   0.749 -16.248  0.00  0.00     0.275 HD
HETATM   12  H           1     -37.644   1.572 -14.757  0.00  0.00     0.275 HD
ENDBRANCH   5   9
ENDBRANCH   1   5
BRANCH   2  13
HETATM   13  C           1     -36.925  -0.827 -11.126  0.00  0.00     0.185 C 
BRANCH  13  14
HETATM   14  C           1     -36.119  -1.922 -10.441  0.00  0.00     0.040 C 
BRANCH  14  15
HETATM   15  C           1     -34.936  -2.308 -11.319  0.00  0.00    -0.020 C 
HETATM   16  C           1     -35.025  -3.789 -11.666  0.00  0.00     0.009 C 
HETATM   17  C           1     -33.638  -2.039 -10.569  0.00  0.00     0.009 C 
ENDBRANCH  14  15
ENDBRANCH  13  14
BRANCH  13  18
HETATM   18  C           1     -37.067   0.351 -10.195  0.00  0.00     0.196 C 
HETATM   19  O           1     -38.075   1.088 -10.268  0.00  0.00    -0.646 OA
HETATM   20  O           1     -36.177   0.592  -9.351  0.00  0.00    -0.646 OA
ENDBRANCH  13  18
ENDBRANCH   2  13
TORSDOF 8
ENDMDL
MODEL 7
REMARK VINA RESULT:      -5.5      1.479      1.928
REMARK  8 active torsions:
REMARK  status: ('A' for Active; 'I' for Inactive)
REMARK    1  A    between atoms: C_1  and  C_3 
REMARK    2  A    between atoms: C_1  and  C_15 
REMARK    3  A    between atoms: C_1  and  N_7 
REMARK    4  A    between atoms: C_2  and  C_14 
REMARK    5  A    between atoms: C_2  and  C_16 
REMARK    6  A    between atoms: C_2  and  N_4 
REMARK       I    between atoms: C_3  and  N_4 
REMARK    7  A    between atoms: C_6  and  C_14 
REMARK    8  A    between atoms: C_15  and  O_20 
ROOT
HETATM    1  C           1     -35.989  -0.489 -13.461  0.00  0.00     0.251 C 
HETATM    2  N           1     -34.953  -1.326 -13.144  0.00  0.00    -0.345 N 
HETATM    3  H           1     -34.085  -1.275 -13.663  0.00  0.00     0.163 HD
HETATM    4  O           1     -37.025  -0.549 -12.841  0.00  0.00    -0.271 OA
ENDROOT
BRANCH   1   5
HETATM    5  C           1     -35.839   0.507 -14.584  0.00  0.00     0.297 C 
BRANCH   5   6
HETATM    6  C           1     -36.535  -0.024 -15.830  0.00  0.00     0.206 C 
BRANCH   6   7
HETATM    7  O           1     -37.441  -1.031 -15.467  0.00  0.00    -0.398 OA
HETATM    8  H           1     -37.140  -1.387 -14.647  0.00  0.00     0.209 HD
ENDBRANCH   6   7
ENDBRANCH   5   6
BRANCH   5   9
HETATM    9  N           1     -34.382   0.713 -14.877  0.00  0.00    -0.064 N 
HETATM   10  H           1     -33.837   0.667 -13.986  0.00  0.00     0.275 HD
HETATM   11  H           1     -34.049  -0.036 -15.526  0.00  0.00     0.275 HD
HETATM   12  H           1     -34.244   1.648 -15.321  0.00  0.00     0.275 HD
ENDBRANCH   5   9
ENDBRANCH   1   5
BRANCH   2  13
HETATM   13  C           1     -35.097  -2.283 -12.064  0.00  0.00     0.185 C 
BRANCH  13  14
HETATM   14  C           1     -34.270  -3.524 -12.372  0.00  0.00     0.040 C 
BRANCH  14  15
HETATM   15  C           1     -34.857  -4.721 -11.637  0.00  0.00    -0.020 C 
HETATM   16  C           1     -33.897  -5.163 -10.540  0.00  0.00     0.009 C 
HETATM   17  C           1     -35.067  -5.866 -12.619  0.00  0.00     0.009 C 
ENDBRANCH  14  15
ENDBRANCH  13  14
BRANCH  13  18
HETATM   18  C           1     -34.614  -1.664 -10.776  0.00  0.00     0.196 C 
HETATM   19  O           1     -35.434  -1.153  -9.982  0.00  0.00    -0.646 OA
HETATM   20  O           1     -33.395  -1.660 -10.503  0.00  0.00    -0.646 OA
ENDBRANCH  13  18
ENDBRANCH   2  13
TORSDOF 8
ENDMDL
MODEL 8
REMARK VINA RESULT:      -5.3     10.657     12.252
REMARK  8 active torsions:
REMARK  status: ('A' for Active; 'I' for Inactive)
REMARK    1  A    between atoms: C_1  and  C_3 
REMARK    2  A    between atoms: C_1  and  C_15 
REMARK    3  A    between atoms: C_1  and  N_7 
REMARK    4  A    between atoms: C_2  and  C_14 
REMARK    5  A    between atoms: C_2  and  C_16 
REMARK    6  A    between atoms: C_2  and  N_4 
REMARK       I    between atoms: C_3  and  N_4 
REMARK    7  A    between atoms: C_6  and  C_14 
REMARK    8  A    between atoms: C_15  and  O_20 
ROOT
HETATM    1  C           1     -26.367  -6.580 -19.786  0.00  0.00     0.251 C 
HETATM    2  N           1     -26.488  -6.656 -18.424  0.00  0.00    -0.345 N 
HETATM    3  H           1     -25.858  -7.243 -17.892  0.00  0.00     0.163 HD
HETATM    4  O           1     -27.118  -5.879 -20.421  0.00  0.00    -0.271 OA
ENDROOT
BRANCH   1   5
HETATM    5  C           1     -25.297  -7.374 -20.494  0.00  0.00     0.297 C 
BRANCH   5   6
HETATM    6  C           1     -24.129  -7.610 -19.544  0.00  0.00     0.206 C 
BRANCH   6   7
HETATM    7  O           1     -23.750  -6.396 -18.956  0.00  0.00    -0.398 OA
HETATM    8  H           1     -24.541  -5.974 -18.664  0.00  0.00     0.209 HD
ENDBRANCH   6   7
ENDBRANCH   5   6
BRANCH   5   9
HETATM    9  N           1     -24.818  -6.609 -21.692  0.00  0.00    -0.064 N 
HETATM   10  H           1     -24.257  -7.241 -22.308  0.00  0.00     0.275 HD
HETATM   11  H           1     -25.641  -6.246 -22.224  0.00  0.00     0.275 HD
HETATM   12  H           1     -24.222  -5.809 -21.380  0.00  0.00     0.275 HD
ENDBRANCH   5   9
ENDBRANCH   1   5
BRANCH   2  13
HETATM   13  C           1     -27.516  -5.892 -17.744  0.00  0.00     0.185 C 
BRANCH  13  14
HETATM   14  C           1     -28.776  -6.738 -17.618  0.00  0.00     0.040 C 
BRANCH  14  15
HETATM   15  C           1     -29.978  -5.933 -18.096  0.00  0.00    -0.020 C 
HETATM   16  C           1     -29.535  -4.519 -18.445  0.00  0.00     0.009 C 
HETATM   17  C           1     -31.024  -5.879 -16.990  0.00  0.00     0.009 C 
ENDBRANCH  14  15
ENDBRANCH  13  14
BRANCH  13  18
HETATM   18  C           1     -27.029  -5.507 -16.369  0.00  0.00     0.196 C 
HETATM   19  O           1     -27.824  -5.015 -15.539  0.00  0.00    -0.646 OA
HETATM   20  O           1     -25.831  -5.680 -16.059  0.00  0.00    -0.646 OA
ENDBRANCH  13  18
ENDBRANCH   2  13
TORSDOF 8
ENDMDL
MODEL 9
REMARK VINA RESULT:      -5.3     15.042     17.050
REMARK  8 active torsions:
REMARK  status: ('A' for Active; 'I' for Inactive)
REMARK    1  A    between atoms: C_1  and  C_3 
REMARK    2  A    between atoms: C_1  and  C_15 
REMARK    3  A    between atoms: C_1  and  N_7 
REMARK    4  A    between atoms: C_2  and  C_14 
REMARK    5  A    between atoms: C_2  and  C_16 
REMARK    6  A    between atoms: C_2  and  N_4 
REMARK       I    between atoms: C_3  and  N_4 
REMARK    7  A    between atoms: C_6  and  C_14 
REMARK    8  A    between atoms: C_15  and  O_20 
ROOT
HETATM    1  C           1     -20.778  -4.850  -6.090  0.00  0.00     0.251 C 
HETATM    2  N           1     -21.104  -6.180  -6.064  0.00  0.00    -0.345 N 
HETATM    3  H           1     -21.673  -6.576  -6.803  0.00  0.00     0.163 HD
HETATM    4  O           1     -20.099  -4.378  -5.210  0.00  0.00    -0.271 OA
ENDROOT
BRANCH   1   5
HETATM    5  C           1     -21.268  -3.975  -7.217  0.00  0.00     0.297 C 
BRANCH   5   6
HETATM    6  C           1     -22.596  -4.511  -7.735  0.00  0.00     0.206 C 
BRANCH   6   7
HETATM    7  O           1     -23.541  -4.501  -6.700  0.00  0.00    -0.398 OA
HETATM    8  H           1     -23.927  -5.361  -6.672  0.00  0.00     0.209 HD
ENDBRANCH   6   7
ENDBRANCH   5   6
BRANCH   5   9
HETATM    9  N           1     -20.260  -3.981  -8.329  0.00  0.00    -0.064 N 
HETATM   10  H           1     -20.598  -3.373  -9.109  0.00  0.00     0.275 HD
HETATM   11  H           1     -19.348  -3.616  -7.973  0.00  0.00     0.275 HD
HETATM   12  H           1     -20.134  -4.957  -8.679  0.00  0.00     0.275 HD
ENDBRANCH   5   9
ENDBRANCH   1   5
BRANCH   2  13
HETATM   13  C           1     -20.633  -7.022  -4.982  0.00  0.00     0.185 C 
BRANCH  13  14
HETATM   14  C           1     -21.731  -7.168  -3.938  0.00  0.00     0.040 C 
BRANCH  14  15
HETATM   15  C           1     -21.173  -6.831  -2.562  0.00  0.00    -0.020 C 
HETATM   16  C           1     -20.589  -8.089  -1.930  0.00  0.00     0.009 C 
HETATM   17  C           1     -22.290  -6.291  -1.680  0.00  0.00     0.009 C 
ENDBRANCH  14  15
ENDBRANCH  13  14
BRANCH  13  18
HETATM   18  C           1     -20.269  -8.381  -5.525  0.00  0.00     0.196 C 
HETATM   19  O           1     -21.161  -9.235  -5.725  0.00  0.00    -0.646 OA
HETATM   20  O           1     -19.076  -8.656  -5.775  0.00  0.00    -0.646 OA
ENDBRANCH  13  18
ENDBRANCH   2  13
TORSDOF 8
ENDMDL
