MODEL 1
REMARK VINA RESULT:      -7.6      0.000      0.000
REMARK  8 active torsions:
REMARK  status: ('A' for Active; 'I' for Inactive)
REMARK    1  A    between atoms: C_3  and  O_4 
REMARK    2  A    between atoms: O_4  and  P_6 
REMARK    3  A    between atoms: C_5  and  C_21 
REMARK    4  A    between atoms: C_5  and  C_7 
REMARK    5  A    between atoms: C_5  and  N_18 
REMARK    6  A    between atoms: P_6  and  O_8 
REMARK    7  A    between atoms: C_7  and  C_24 
REMARK       I    between atoms: N_18  and  C_25 
REMARK    8  A    between atoms: C_25  and  C_26 
ROOT
HETATM    1  C           1     -33.477  -3.960 -15.832  0.00  0.00     0.189 C 
ENDROOT
BRANCH   1   2
HETATM    2  C           1     -34.241  -2.785 -16.392  0.00  0.00     0.197 C 
HETATM    3  O           1     -35.125  -2.231 -15.705  0.00  0.00    -0.646 OA
HETATM    4  O           1     -33.988  -2.368 -17.542  0.00  0.00    -0.646 OA
ENDBRANCH   1   2
BRANCH   1   5
HETATM    5  C           1     -32.829  -4.735 -16.971  0.00  0.00     0.070 C 
BRANCH   5   6
HETATM    6  C           1     -31.343  -4.745 -16.789  0.00  0.00    -0.073 A 
HETATM    7  C           1     -30.530  -4.010 -17.653  0.00  0.00     0.027 A 
HETATM    8  C           1     -29.146  -4.018 -17.484  0.00  0.00     0.015 A 
HETATM    9  C           1     -28.574  -4.761 -16.451  0.00  0.00     0.078 A 
HETATM   10  C           1     -29.387  -5.495 -15.587  0.00  0.00     0.037 A 
HETATM   11  C           1     -30.771  -5.487 -15.756  0.00  0.00     0.006 A 
BRANCH   9  12
HETATM   12  O           1     -27.229  -4.769 -16.286  0.00  0.00    -0.248 OA
BRANCH  12  13
HETATM   13  P           1     -26.448  -6.168 -16.483  0.00  0.00     0.411 P 
HETATM   14  O           1     -26.954  -7.158 -15.505  0.00  0.00    -0.624 OA
HETATM   15  O           1     -24.999  -5.959 -16.267  0.00  0.00    -0.624 OA
BRANCH  13  16
HETATM   16  O           1     -26.698  -6.717 -17.982  0.00  0.00    -0.300 OA
HETATM   17  H           1     -25.973  -6.389 -18.485  0.00  0.00     0.223 HD
ENDBRANCH  13  16
ENDBRANCH  12  13
ENDBRANCH   9  12
ENDBRANCH   5   6
ENDBRANCH   1   5
BRANCH   1  18
HETATM   18  N           1     -34.387  -4.830 -15.112  0.00  0.00    -0.344 N 
HETATM   19  H           1     -34.993  -5.460 -15.622  0.00  0.00     0.163 HD
HETATM   20  C           1     -34.425  -4.799 -13.744  0.00  0.00     0.252 C 
HETATM   21  O           1     -35.183  -5.525 -13.145  0.00  0.00    -0.271 OA
BRANCH  20  22
HETATM   22  C           1     -33.521  -3.861 -12.985  0.00  0.00     0.345 C 
HETATM   23  C           1     -33.089  -4.476 -11.665  0.00  0.00     0.048 C 
HETATM   24  C           1     -34.082  -3.946 -10.636  0.00  0.00     0.033 C 
HETATM   25  C           1     -35.025  -3.049 -11.420  0.00  0.00     0.271 C 
HETATM   26  N           1     -34.241  -2.654 -12.587  0.00  0.00     0.097 N 
HETATM   27  H           1     -33.590  -1.914 -12.324  0.00  0.00     0.317 HD
ENDBRANCH  20  22
ENDBRANCH   1  18
TORSDOF 8
ENDMDL
MODEL 2
REMARK VINA RESULT:      -6.8     13.096     15.151
REMARK  8 active torsions:
REMARK  status: ('A' for Active; 'I' for Inactive)
REMARK    1  A    between atoms: C_3  and  O_4 
REMARK    2  A    between atoms: O_4  and  P_6 
REMARK    3  A    between atoms: C_5  and  C_21 
REMARK    4  A    between atoms: C_5  and  C_7 
REMARK    5  A    between atoms: C_5  and  N_18 
REMARK    6  A    between atoms: P_6  and  O_8 
REMARK    7  A    between atoms: C_7  and  C_24 
REMARK       I    between atoms: N_18  and  C_25 
REMARK    8  A    between atoms: C_25  and  C_26 
ROOT
HETATM    1  C           1     -20.590  -8.094  -4.649  0.00  0.00     0.189 C 
ENDROOT
BRANCH   1   2
HETATM    2  C           1     -20.904  -9.503  -5.089  0.00  0.00     0.197 C 
HETATM    3  O           1     -20.248 -10.029  -6.014  0.00  0.00    -0.646 OA
HETATM    4  O           1     -21.820 -10.143  -4.530  0.00  0.00    -0.646 OA
ENDBRANCH   1   2
BRANCH   1   5
HETATM    5  C           1     -19.813  -7.379  -5.746  0.00  0.00     0.070 C 
BRANCH   5   6
HETATM    6  C           1     -20.696  -6.368  -6.408  0.00  0.00    -0.073 A 
HETATM    7  C           1     -20.246  -5.682  -7.537  0.00  0.00     0.027 A 
HETATM    8  C           1     -21.068  -4.740  -8.154  0.00  0.00     0.015 A 
HETATM    9  C           1     -22.340  -4.483  -7.643  0.00  0.00     0.078 A 
HETATM   10  C           1     -22.791  -5.169  -6.515  0.00  0.00     0.037 A 
HETATM   11  C           1     -21.968  -6.111  -5.898  0.00  0.00     0.006 A 
BRANCH   9  12
HETATM   12  O           1     -23.140  -3.568  -8.243  0.00  0.00    -0.248 OA
BRANCH  12  13
HETATM   13  P           1     -23.794  -3.949  -9.669  0.00  0.00     0.411 P 
HETATM   14  O           1     -23.610  -5.395  -9.925  0.00  0.00    -0.624 OA
HETATM   15  O           1     -23.132  -3.170 -10.739  0.00  0.00    -0.624 OA
BRANCH  13  16
HETATM   16  O           1     -25.372  -3.604  -9.646  0.00  0.00    -0.300 OA
HETATM   17  H           1     -25.738  -4.182  -8.999  0.00  0.00     0.223 HD
ENDBRANCH  13  16
ENDBRANCH  12  13
ENDBRANCH   9  12
ENDBRANCH   5   6
ENDBRANCH   1   5
BRANCH   1  18
HETATM   18  N           1     -19.792  -8.133  -3.439  0.00  0.00    -0.344 N 
HETATM   19  H           1     -18.787  -8.233  -3.499  0.00  0.00     0.163 HD
HETATM   20  C           1     -20.399  -8.033  -2.216  0.00  0.00     0.252 C 
HETATM   21  O           1     -19.733  -8.065  -1.208  0.00  0.00    -0.271 OA
BRANCH  20  22
HETATM   22  C           1     -21.897  -7.883  -2.126  0.00  0.00     0.345 C 
HETATM   23  C           1     -22.280  -6.931  -1.007  0.00  0.00     0.048 C 
HETATM   24  C           1     -22.551  -7.824   0.199  0.00  0.00     0.033 C 
HETATM   25  C           1     -22.318  -9.241  -0.297  0.00  0.00     0.271 C 
HETATM   26  N           1     -22.523  -9.145  -1.739  0.00  0.00     0.097 N 
HETATM   27  H           1     -23.524  -9.129  -1.939  0.00  0.00     0.317 HD
ENDBRANCH  20  22
ENDBRANCH   1  18
TORSDOF 8
ENDMDL
MODEL 3
REMARK VINA RESULT:      -6.6     15.240     17.348
REMARK  8 active torsions:
REMARK  status: ('A' for Active; 'I' for Inactive)
REMARK    1  A    between atoms: C_3  and  O_4 
REMARK    2  A    between atoms: O_4  and  P_6 
REMARK    3  A    between atoms: C_5  and  C_21 
REMARK    4  A    between atoms: C_5  and  C_7 
REMARK    5  A    between atoms: C_5  and  N_18 
REMARK    6  A    between atoms: P_6  and  O_8 
REMARK    7  A    between atoms: C_7  and  C_24 
REMARK       I    between atoms: N_18  and  C_25 
REMARK    8  A    between atoms: C_25  and  C_26 
ROOT
HETATM    1  C           1     -20.599  -8.930  -4.906  0.00  0.00     0.189 C 
ENDROOT
BRANCH   1   2
HETATM    2  C           1     -21.170 -10.295  -5.201  0.00  0.00     0.197 C 
HETATM    3  O           1     -21.169 -10.734  -6.371  0.00  0.00    -0.646 OA
HETATM    4  O           1     -21.643 -10.988  -4.274  0.00  0.00    -0.646 OA
ENDBRANCH   1   2
BRANCH   1   5
HETATM    5  C           1     -19.690  -9.011  -3.687  0.00  0.00     0.070 C 
BRANCH   5   6
HETATM    6  C           1     -18.326  -9.461  -4.108  0.00  0.00    -0.073 A 
HETATM    7  C           1     -17.367  -9.774  -3.144  0.00  0.00     0.027 A 
HETATM    8  C           1     -16.096 -10.194  -3.536  0.00  0.00     0.015 A 
HETATM    9  C           1     -15.783 -10.300  -4.891  0.00  0.00     0.078 A 
HETATM   10  C           1     -16.742  -9.988  -5.855  0.00  0.00     0.037 A 
HETATM   11  C           1     -18.013  -9.568  -5.463  0.00  0.00     0.006 A 
BRANCH   9  12
HETATM   12  O           1     -14.549 -10.708  -5.273  0.00  0.00    -0.248 OA
BRANCH  12  13
HETATM   13  P           1     -14.224 -12.289  -5.231  0.00  0.00     0.411 P 
HETATM   14  O           1     -15.488 -13.055  -5.325  0.00  0.00    -0.624 OA
HETATM   15  O           1     -13.541 -12.619  -3.961  0.00  0.00    -0.624 OA
BRANCH  13  16
HETATM   16  O           1     -13.269 -12.676  -6.475  0.00  0.00    -0.300 OA
HETATM   17  H           1     -13.097 -11.859  -6.912  0.00  0.00     0.223 HD
ENDBRANCH  13  16
ENDBRANCH  12  13
ENDBRANCH   9  12
ENDBRANCH   5   6
ENDBRANCH   1   5
BRANCH   1  18
HETATM   18  N           1     -21.680  -8.001  -4.641  0.00  0.00    -0.344 N 
HETATM   19  H           1     -22.483  -8.300  -4.102  0.00  0.00     0.163 HD
HETATM   20  C           1     -21.615  -6.720  -5.120  0.00  0.00     0.252 C 
HETATM   21  O           1     -22.516  -5.947  -4.898  0.00  0.00    -0.271 OA
BRANCH  20  22
HETATM   22  C           1     -20.419  -6.275  -5.923  0.00  0.00     0.345 C 
HETATM   23  C           1     -20.117  -4.807  -5.676  0.00  0.00     0.048 C 
HETATM   24  C           1     -20.830  -4.061  -6.799  0.00  0.00     0.033 C 
HETATM   25  C           1     -21.495  -5.142  -7.634  0.00  0.00     0.271 C 
HETATM   26  N           1     -20.702  -6.337  -7.355  0.00  0.00     0.097 N 
HETATM   27  H           1     -19.838  -6.304  -7.896  0.00  0.00     0.317 HD
ENDBRANCH  20  22
ENDBRANCH   1  18
TORSDOF 8
ENDMDL
MODEL 4
REMARK VINA RESULT:      -6.5     16.073     18.198
REMARK  8 active torsions:
REMARK  status: ('A' for Active; 'I' for Inactive)
REMARK    1  A    between atoms: C_3  and  O_4 
REMARK    2  A    between atoms: O_4  and  P_6 
REMARK    3  A    between atoms: C_5  and  C_21 
REMARK    4  A    between atoms: C_5  and  C_7 
REMARK    5  A    between atoms: C_5  and  N_18 
REMARK    6  A    between atoms: P_6  and  O_8 
REMARK    7  A    between atoms: C_7  and  C_24 
REMARK       I    between atoms: N_18  and  C_25 
REMARK    8  A    between atoms: C_25  and  C_26 
ROOT
HETATM    1  C           1     -21.735 -10.460  -0.057  0.00  0.00     0.189 C 
ENDROOT
BRANCH   1   2
HETATM    2  C           1     -20.583 -10.686   0.890  0.00  0.00     0.197 C 
HETATM    3  O           1     -20.412  -9.917   1.861  0.00  0.00    -0.646 OA
HETATM    4  O           1     -19.800 -11.642   0.704  0.00  0.00    -0.646 OA
ENDBRANCH   1   2
BRANCH   1   5
HETATM    5  C           1     -22.314  -9.069   0.168  0.00  0.00     0.070 C 
BRANCH   5   6
HETATM    6  C           1     -21.949  -8.182  -0.981  0.00  0.00    -0.073 A 
HETATM    7  C           1     -22.371  -6.853  -0.996  0.00  0.00     0.027 A 
HETATM    8  C           1     -22.031  -6.025  -2.066  0.00  0.00     0.015 A 
HETATM    9  C           1     -21.268  -6.527  -3.121  0.00  0.00     0.078 A 
HETATM   10  C           1     -20.844  -7.856  -3.104  0.00  0.00     0.037 A 
HETATM   11  C           1     -21.185  -8.684  -2.035  0.00  0.00     0.006 A 
BRANCH   9  12
HETATM   12  O           1     -20.936  -5.724  -4.160  0.00  0.00    -0.248 OA
BRANCH  12  13
HETATM   13  P           1     -21.700  -5.945  -5.565  0.00  0.00     0.411 P 
HETATM   14  O           1     -23.153  -6.088  -5.319  0.00  0.00    -0.624 OA
HETATM   15  O           1     -21.188  -7.171  -6.218  0.00  0.00    -0.624 OA
BRANCH  13  16
HETATM   16  O           1     -21.441  -4.672  -6.525  0.00  0.00    -0.300 OA
HETATM   17  H           1     -22.032  -4.789  -7.249  0.00  0.00     0.223 HD
ENDBRANCH  13  16
ENDBRANCH  12  13
ENDBRANCH   9  12
ENDBRANCH   5   6
ENDBRANCH   1   5
BRANCH   1  18
HETATM   18  N           1     -22.762 -11.455   0.184  0.00  0.00    -0.344 N 
HETATM   19  H           1     -23.323 -11.409   1.025  0.00  0.00     0.163 HD
HETATM   20  C           1     -22.972 -12.456  -0.726  0.00  0.00     0.252 C 
HETATM   21  O           1     -23.828 -13.285  -0.525  0.00  0.00    -0.271 OA
BRANCH  20  22
HETATM   22  C           1     -22.136 -12.524  -1.979  0.00  0.00     0.345 C 
HETATM   23  C           1     -22.767 -13.455  -3.001  0.00  0.00     0.048 C 
HETATM   24  C           1     -22.091 -14.803  -2.780  0.00  0.00     0.033 C 
HETATM   25  C           1     -21.103 -14.572  -1.650  0.00  0.00     0.271 C 
HETATM   26  N           1     -20.839 -13.137  -1.706  0.00  0.00     0.097 N 
HETATM   27  H           1     -20.180 -12.942  -2.460  0.00  0.00     0.317 HD
ENDBRANCH  20  22
ENDBRANCH   1  18
TORSDOF 8
ENDMDL
MODEL 5
REMARK VINA RESULT:      -6.5     13.442     15.596
REMARK  8 active torsions:
REMARK  status: ('A' for Active; 'I' for Inactive)
REMARK    1  A    between atoms: C_3  and  O_4 
REMARK    2  A    between atoms: O_4  and  P_6 
REMARK    3  A    between atoms: C_5  and  C_21 
REMARK    4  A    between atoms: C_5  and  C_7 
REMARK    5  A    between atoms: C_5  and  N_18 
REMARK    6  A    between atoms: P_6  and  O_8 
REMARK    7  A    between atoms: C_7  and  C_24 
REMARK       I    between atoms: N_18  and  C_25 
REMARK    8  A    between atoms: C_25  and  C_26 
ROOT
HETATM    1  C           1     -21.445  -7.334  -3.966  0.00  0.00     0.189 C 
ENDROOT
BRANCH   1   2
HETATM    2  C           1     -21.547  -6.878  -2.532  0.00  0.00     0.197 C 
HETATM    3  O           1     -22.324  -5.949  -2.225  0.00  0.00    -0.646 OA
HETATM    4  O           1     -20.852  -7.429  -1.650  0.00  0.00    -0.646 OA
ENDBRANCH   1   2
BRANCH   1   5
HETATM    5  C           1     -22.552  -6.684  -4.786  0.00  0.00     0.070 C 
BRANCH   5   6
HETATM    6  C           1     -21.946  -5.876  -5.892  0.00  0.00    -0.073 A 
HETATM    7  C           1     -22.684  -4.856  -6.494  0.00  0.00     0.027 A 
HETATM    8  C           1     -22.121  -4.103  -7.524  0.00  0.00     0.015 A 
HETATM    9  C           1     -20.820  -4.369  -7.952  0.00  0.00     0.078 A 
HETATM   10  C           1     -20.082  -5.388  -7.349  0.00  0.00     0.037 A 
HETATM   11  C           1     -20.646  -6.142  -6.319  0.00  0.00     0.006 A 
BRANCH   9  12
HETATM   12  O           1     -20.272  -3.638  -8.952  0.00  0.00    -0.248 OA
BRANCH  12  13
HETATM   13  P           1     -20.610  -4.058 -10.474  0.00  0.00     0.411 P 
HETATM   14  O           1     -19.700  -5.145 -10.899  0.00  0.00    -0.624 OA
HETATM   15  O           1     -20.428  -2.887 -11.361  0.00  0.00    -0.624 OA
BRANCH  13  16
HETATM   16  O           1     -22.139  -4.571 -10.563  0.00  0.00    -0.300 OA
HETATM   17  H           1     -22.418  -4.353 -11.435  0.00  0.00     0.223 HD
ENDBRANCH  13  16
ENDBRANCH  12  13
ENDBRANCH   9  12
ENDBRANCH   5   6
ENDBRANCH   1   5
BRANCH   1  18
HETATM   18  N           1     -21.585  -8.776  -4.026  0.00  0.00    -0.344 N 
HETATM   19  H           1     -22.500  -9.200  -3.935  0.00  0.00     0.163 HD
HETATM   20  C           1     -20.480  -9.564  -4.204  0.00  0.00     0.252 C 
HETATM   21  O           1     -20.597 -10.766  -4.254  0.00  0.00    -0.271 OA
BRANCH  20  22
HETATM   22  C           1     -19.117  -8.933  -4.339  0.00  0.00     0.345 C 
HETATM   23  C           1     -18.222  -9.765  -5.242  0.00  0.00     0.048 C 
HETATM   24  C           1     -17.433 -10.665  -4.298  0.00  0.00     0.033 C 
HETATM   25  C           1     -17.911 -10.295  -2.904  0.00  0.00     0.271 C 
HETATM   26  N           1     -18.415  -8.933  -3.058  0.00  0.00     0.097 N 
HETATM   27  H           1     -17.631  -8.281  -3.075  0.00  0.00     0.317 HD
ENDBRANCH  20  22
ENDBRANCH   1  18
TORSDOF 8
ENDMDL
MODEL 6
REMARK VINA RESULT:      -6.4     15.353     17.658
REMARK  8 active torsions:
REMARK  status: ('A' for Active; 'I' for Inactive)
REMARK    1  A    between atoms: C_3  and  O_4 
REMARK    2  A    between atoms: O_4  and  P_6 
REMARK    3  A    between atoms: C_5  and  C_21 
REMARK    4  A    between atoms: C_5  and  C_7 
REMARK    5  A    between atoms: C_5  and  N_18 
REMARK    6  A    between atoms: P_6  and  O_8 
REMARK    7  A    between atoms: C_7  and  C_24 
REMARK       I    between atoms: N_18  and  C_25 
REMARK    8  A    between atoms: C_25  and  C_26 
ROOT
HETATM    1  C           1     -20.392  -9.749  -2.038  0.00  0.00     0.189 C 
ENDROOT
BRANCH   1   2
HETATM    2  C           1     -20.735  -9.844  -0.572  0.00  0.00     0.197 C 
HETATM    3  O           1     -20.705 -10.951   0.007  0.00  0.00    -0.646 OA
HETATM    4  O           1     -21.050  -8.814   0.063  0.00  0.00    -0.646 OA
ENDBRANCH   1   2
BRANCH   1   5
HETATM    5  C           1     -21.651  -9.439  -2.837  0.00  0.00     0.070 C 
BRANCH   5   6
HETATM    6  C           1     -21.409  -8.249  -3.712  0.00  0.00    -0.073 A 
HETATM    7  C           1     -21.370  -6.970  -3.154  0.00  0.00     0.027 A 
HETATM    8  C           1     -21.144  -5.861  -3.968  0.00  0.00     0.015 A 
HETATM    9  C           1     -20.957  -6.029  -5.340  0.00  0.00     0.078 A 
HETATM   10  C           1     -20.994  -7.308  -5.897  0.00  0.00     0.037 A 
HETATM   11  C           1     -21.221  -8.417  -5.083  0.00  0.00     0.006 A 
BRANCH   9  12
HETATM   12  O           1     -20.736  -4.952  -6.132  0.00  0.00    -0.248 OA
BRANCH  12  13
HETATM   13  P           1     -21.921  -4.484  -7.124  0.00  0.00     0.411 P 
HETATM   14  O           1     -23.231  -4.825  -6.524  0.00  0.00    -0.624 OA
HETATM   15  O           1     -21.778  -5.177  -8.424  0.00  0.00    -0.624 OA
BRANCH  13  16
HETATM   16  O           1     -21.834  -2.887  -7.350  0.00  0.00    -0.300 OA
HETATM   17  H           1     -22.006  -2.761  -8.267  0.00  0.00     0.223 HD
ENDBRANCH  13  16
ENDBRANCH  12  13
ENDBRANCH   9  12
ENDBRANCH   5   6
ENDBRANCH   1   5
BRANCH   1  18
HETATM   18  N           1     -19.835 -11.011  -2.487  0.00  0.00    -0.344 N 
HETATM   19  H           1     -20.259 -11.883  -2.196  0.00  0.00     0.163 HD
HETATM   20  C           1     -18.736 -11.022  -3.303  0.00  0.00     0.252 C 
HETATM   21  O           1     -18.273 -12.074  -3.677  0.00  0.00    -0.271 OA
BRANCH  20  22
HETATM   22  C           1     -18.105  -9.723  -3.737  0.00  0.00     0.345 C 
HETATM   23  C           1     -17.278  -9.917  -4.996  0.00  0.00     0.048 C 
HETATM   24  C           1     -15.854 -10.152  -4.504  0.00  0.00     0.033 C 
HETATM   25  C           1     -15.940 -10.071  -2.989  0.00  0.00     0.271 C 
HETATM   26  N           1     -17.133  -9.263  -2.749  0.00  0.00     0.097 N 
HETATM   27  H           1     -16.909  -8.278  -2.893  0.00  0.00     0.317 HD
ENDBRANCH  20  22
ENDBRANCH   1  18
TORSDOF 8
ENDMDL
MODEL 7
REMARK VINA RESULT:      -6.3     16.341     18.513
REMARK  8 active torsions:
REMARK  status: ('A' for Active; 'I' for Inactive)
REMARK    1  A    between atoms: C_3  and  O_4 
REMARK    2  A    between atoms: O_4  and  P_6 
REMARK    3  A    between atoms: C_5  and  C_21 
REMARK    4  A    between atoms: C_5  and  C_7 
REMARK    5  A    between atoms: C_5  and  N_18 
REMARK    6  A    between atoms: P_6  and  O_8 
REMARK    7  A    between atoms: C_7  and  C_24 
REMARK       I    between atoms: N_18  and  C_25 
REMARK    8  A    between atoms: C_25  and  C_26 
ROOT
HETATM    1  C           1     -21.662  -7.920  -1.896  0.00  0.00     0.189 C 
ENDROOT
BRANCH   1   2
HETATM    2  C           1     -21.996  -6.481  -2.206  0.00  0.00     0.197 C 
HETATM    3  O           1     -22.341  -5.708  -1.287  0.00  0.00    -0.646 OA
HETATM    4  O           1     -21.929  -6.064  -3.383  0.00  0.00    -0.646 OA
ENDBRANCH   1   2
BRANCH   1   5
HETATM    5  C           1     -21.736  -8.146  -0.392  0.00  0.00     0.070 C 
BRANCH   5   6
HETATM    6  C           1     -22.121  -9.567  -0.118  0.00  0.00    -0.073 A 
HETATM    7  C           1     -21.170 -10.465   0.368  0.00  0.00     0.027 A 
HETATM    8  C           1     -21.528 -11.788   0.624  0.00  0.00     0.015 A 
HETATM    9  C           1     -22.836 -12.214   0.394  0.00  0.00     0.078 A 
HETATM   10  C           1     -23.787 -11.316  -0.091  0.00  0.00     0.037 A 
HETATM   11  C           1     -23.429  -9.992  -0.347  0.00  0.00     0.006 A 
BRANCH   9  12
HETATM   12  O           1     -23.185 -13.500   0.643  0.00  0.00    -0.248 OA
BRANCH  12  13
HETATM   13  P           1     -23.321 -14.507  -0.612  0.00  0.00     0.411 P 
HETATM   14  O           1     -22.886 -15.862  -0.206  0.00  0.00    -0.624 OA
HETATM   15  O           1     -22.470 -14.027  -1.723  0.00  0.00    -0.624 OA
BRANCH  13  16
HETATM   16  O           1     -24.862 -14.559  -1.095  0.00  0.00    -0.300 OA
HETATM   17  H           1     -25.048 -13.691  -1.408  0.00  0.00     0.223 HD
ENDBRANCH  13  16
ENDBRANCH  12  13
ENDBRANCH   9  12
ENDBRANCH   5   6
ENDBRANCH   1   5
BRANCH   1  18
HETATM   18  N           1     -20.322  -8.216  -2.364  0.00  0.00    -0.344 N 
HETATM   19  H           1     -19.520  -7.855  -1.862  0.00  0.00     0.163 HD
HETATM   20  C           1     -20.141  -8.983  -3.483  0.00  0.00     0.252 C 
HETATM   21  O           1     -19.024  -9.230  -3.872  0.00  0.00    -0.271 OA
BRANCH  20  22
HETATM   22  C           1     -21.336  -9.521  -4.230  0.00  0.00     0.345 C 
HETATM   23  C           1     -21.805 -10.834  -3.628  0.00  0.00     0.048 C 
HETATM   24  C           1     -21.120 -11.917  -4.454  0.00  0.00     0.033 C 
HETATM   25  C           1     -20.302 -11.166  -5.491  0.00  0.00     0.271 C 
HETATM   26  N           1     -20.976  -9.875  -5.600  0.00  0.00     0.097 N 
HETATM   27  H           1     -21.810  -9.976  -6.179  0.00  0.00     0.317 HD
ENDBRANCH  20  22
ENDBRANCH   1  18
TORSDOF 8
ENDMDL
MODEL 8
REMARK VINA RESULT:      -6.2     17.114     18.903
REMARK  8 active torsions:
REMARK  status: ('A' for Active; 'I' for Inactive)
REMARK    1  A    between atoms: C_3  and  O_4 
REMARK    2  A    between atoms: O_4  and  P_6 
REMARK    3  A    between atoms: C_5  and  C_21 
REMARK    4  A    between atoms: C_5  and  C_7 
REMARK    5  A    between atoms: C_5  and  N_18 
REMARK    6  A    between atoms: P_6  and  O_8 
REMARK    7  A    between atoms: C_7  and  C_24 
REMARK       I    between atoms: N_18  and  C_25 
REMARK    8  A    between atoms: C_25  and  C_26 
ROOT
HETATM    1  C           1     -19.933  -8.478  -4.173  0.00  0.00     0.189 C 
ENDROOT
BRANCH   1   2
HETATM    2  C           1     -20.457  -7.375  -5.060  0.00  0.00     0.197 C 
HETATM    3  O           1     -20.027  -7.255  -6.227  0.00  0.00    -0.646 OA
HETATM    4  O           1     -21.322  -6.583  -4.627  0.00  0.00    -0.646 OA
ENDBRANCH   1   2
BRANCH   1   5
HETATM    5  C           1     -18.903  -9.299  -4.938  0.00  0.00     0.070 C 
BRANCH   5   6
HETATM    6  C           1     -18.122 -10.142  -3.978  0.00  0.00    -0.073 A 
HETATM    7  C           1     -17.245  -9.539  -3.076  0.00  0.00     0.027 A 
HETATM    8  C           1     -16.517 -10.323  -2.181  0.00  0.00     0.015 A 
HETATM    9  C           1     -16.667 -11.710  -2.188  0.00  0.00     0.078 A 
HETATM   10  C           1     -17.545 -12.312  -3.089  0.00  0.00     0.037 A 
HETATM   11  C           1     -18.272 -11.528  -3.984  0.00  0.00     0.006 A 
BRANCH   9  12
HETATM   12  O           1     -15.961 -12.473  -1.318  0.00  0.00    -0.248 OA
BRANCH  12  13
HETATM   13  P           1     -16.538 -12.651   0.179  0.00  0.00     0.411 P 
HETATM   14  O           1     -16.291 -14.035   0.642  0.00  0.00    -0.624 OA
HETATM   15  O           1     -17.994 -12.383   0.181  0.00  0.00    -0.624 OA
BRANCH  13  16
HETATM   16  O           1     -15.795 -11.613   1.169  0.00  0.00    -0.300 OA
HETATM   17  H           1     -14.940 -11.491   0.795  0.00  0.00     0.223 HD
ENDBRANCH  13  16
ENDBRANCH  12  13
ENDBRANCH   9  12
ENDBRANCH   5   6
ENDBRANCH   1   5
BRANCH   1  18
HETATM   18  N           1     -21.029  -9.335  -3.768  0.00  0.00    -0.344 N 
HETATM   19  H           1     -21.504  -9.908  -4.455  0.00  0.00     0.163 HD
HETATM   20  C           1     -21.423  -9.370  -2.457  0.00  0.00     0.252 C 
HETATM   21  O           1     -22.337 -10.085  -2.121  0.00  0.00    -0.271 OA
BRANCH  20  22
HETATM   22  C           1     -20.716  -8.516  -1.434  0.00  0.00     0.345 C 
HETATM   23  C           1     -21.180  -8.860  -0.029  0.00  0.00     0.048 C 
HETATM   24  C           1     -22.291  -7.862   0.277  0.00  0.00     0.033 C 
HETATM   25  C           1     -22.399  -6.994  -0.965  0.00  0.00     0.271 C 
HETATM   26  N           1     -21.083  -7.111  -1.588  0.00  0.00     0.097 N 
HETATM   27  H           1     -20.421  -6.508  -1.098  0.00  0.00     0.317 HD
ENDBRANCH  20  22
ENDBRANCH   1  18
TORSDOF 8
ENDMDL
MODEL 9
REMARK VINA RESULT:      -5.9     16.313     18.163
REMARK  8 active torsions:
REMARK  status: ('A' for Active; 'I' for Inactive)
REMARK    1  A    between atoms: C_3  and  O_4 
REMARK    2  A    between atoms: O_4  and  P_6 
REMARK    3  A    between atoms: C_5  and  C_21 
REMARK    4  A    between atoms: C_5  and  C_7 
REMARK    5  A    between atoms: C_5  and  N_18 
REMARK    6  A    between atoms: P_6  and  O_8 
REMARK    7  A    between atoms: C_7  and  C_24 
REMARK       I    between atoms: N_18  and  C_25 
REMARK    8  A    between atoms: C_25  and  C_26 
ROOT
HETATM    1  C           1     -21.493  -9.206  -0.465  0.00  0.00     0.189 C 
ENDROOT
BRANCH   1   2
HETATM    2  C           1     -21.288  -8.849   0.987  0.00  0.00     0.197 C 
HETATM    3  O           1     -20.601  -9.590   1.722  0.00  0.00    -0.646 OA
HETATM    4  O           1     -21.806  -7.811   1.454  0.00  0.00    -0.646 OA
ENDBRANCH   1   2
BRANCH   1   5
HETATM    5  C           1     -21.149  -8.006  -1.337  0.00  0.00     0.070 C 
BRANCH   5   6
HETATM    6  C           1     -20.470  -8.474  -2.586  0.00  0.00    -0.073 A 
HETATM    7  C           1     -21.115  -8.353  -3.818  0.00  0.00     0.027 A 
HETATM    8  C           1     -20.483  -8.788  -4.982  0.00  0.00     0.015 A 
HETATM    9  C           1     -19.206  -9.344  -4.916  0.00  0.00     0.078 A 
HETATM   10  C           1     -18.560  -9.463  -3.685  0.00  0.00     0.037 A 
HETATM   11  C           1     -19.192  -9.028  -2.521  0.00  0.00     0.006 A 
BRANCH   9  12
HETATM   12  O           1     -18.590  -9.767  -6.047  0.00  0.00    -0.248 OA
BRANCH  12  13
HETATM   13  P           1     -18.504 -11.357  -6.316  0.00  0.00     0.411 P 
HETATM   14  O           1     -17.136 -11.835  -6.011  0.00  0.00    -0.624 OA
HETATM   15  O           1     -18.819 -11.634  -7.735  0.00  0.00    -0.624 OA
BRANCH  13  16
HETATM   16  O           1     -19.564 -12.121  -5.367  0.00  0.00    -0.300 OA
HETATM   17  H           1     -19.962 -12.770  -5.921  0.00  0.00     0.223 HD
ENDBRANCH  13  16
ENDBRANCH  12  13
ENDBRANCH   9  12
ENDBRANCH   5   6
ENDBRANCH   1   5
BRANCH   1  18
HETATM   18  N           1     -22.878  -9.577  -0.680  0.00  0.00    -0.344 N 
HETATM   19  H           1     -23.590  -8.860  -0.742  0.00  0.00     0.163 HD
HETATM   20  C           1     -23.223 -10.897  -0.799  0.00  0.00     0.252 C 
HETATM   21  O           1     -24.377 -11.205  -0.978  0.00  0.00    -0.271 OA
BRANCH  20  22
HETATM   22  C           1     -22.161 -11.965  -0.706  0.00  0.00     0.345 C 
HETATM   23  C           1     -22.669 -13.282  -1.267  0.00  0.00     0.048 C 
HETATM   24  C           1     -23.191 -14.052  -0.060  0.00  0.00     0.033 C 
HETATM   25  C           1     -22.948 -13.139   1.130  0.00  0.00     0.271 C 
HETATM   26  N           1     -21.857 -12.274   0.689  0.00  0.00     0.097 N 
HETATM   27  H           1     -20.973 -12.779   0.763  0.00  0.00     0.317 HD
ENDBRANCH  20  22
ENDBRANCH   1  18
TORSDOF 8
ENDMDL
