MODEL 1
REMARK VINA RESULT:      -5.4      0.000      0.000
REMARK  5 active torsions:
REMARK  status: ('A' for Active; 'I' for Inactive)
REMARK    1  A    between atoms: C_2  and  C_3 
REMARK       I    between atoms: C_3  and  N_4 
REMARK    2  A    between atoms: N_4  and  C_20 
REMARK    3  A    between atoms: C_18  and  O_19 
REMARK    4  A    between atoms: C_18  and  C_20 
REMARK    5  A    between atoms: C_20  and  C_21 
ROOT
HETATM    1  C           1     -11.118   5.409 -20.012  0.00  0.00     0.249 C 
HETATM    2  N           1     -10.650   6.630 -20.418  0.00  0.00    -0.343 N 
HETATM    3  H           1     -10.066   6.700 -21.242  0.00  0.00     0.163 HD
HETATM    4  O           1     -11.815   5.326 -19.029  0.00  0.00    -0.271 OA
ENDROOT
BRANCH   1   5
HETATM    5  C           1     -10.764   4.168 -20.794  0.00  0.00     0.274 C 
HETATM    6  C           1     -10.869   4.460 -22.285  0.00  0.00     0.042 C 
HETATM    7  C           1     -12.292   4.883 -22.622  0.00  0.00     0.003 C 
HETATM    8 Se           1     -13.525   3.448 -22.154  0.00  0.00     0.000 Se
HETATM    9  C           1     -15.119   4.406 -22.737  0.00  0.00     0.000 C 
HETATM   10  H           1     -12.690   3.355 -20.665  0.00  0.00     0.275 HD
HETATM   11  N           1     -11.714   3.064 -20.433  0.00  0.00    -0.067 N 
HETATM   12  H           1     -11.470   2.204 -20.974  0.00  0.00     0.275 HD
HETATM   13  H           1     -11.642   2.863 -19.410  0.00  0.00     0.275 HD
ENDBRANCH   1   5
BRANCH   2  14
HETATM   14  C           1     -10.990   7.823 -19.667  0.00  0.00     0.214 C 
BRANCH  14  15
HETATM   15  C           1     -10.066   8.962 -20.078  0.00  0.00     0.147 C 
HETATM   16  C           1      -9.062   8.454 -21.104  0.00  0.00     0.042 C 
BRANCH  15  17
HETATM   17  O           1     -10.825   9.999 -20.639  0.00  0.00    -0.393 OA
HETATM   18  H           1     -11.521  10.188 -20.033  0.00  0.00     0.210 HD
ENDBRANCH  15  17
ENDBRANCH  14  15
BRANCH  14  19
HETATM   19  C           1     -12.421   8.207 -19.955  0.00  0.00     0.199 C 
HETATM   20  O           1     -13.148   8.642 -19.037  0.00  0.00    -0.646 OA
HETATM   21  O           1     -12.879   8.089 -21.112  0.00  0.00    -0.646 OA
ENDBRANCH  14  19
ENDBRANCH   2  14
TORSDOF 5
ENDMDL
MODEL 2
REMARK VINA RESULT:      -5.0     19.100     20.630
REMARK  5 active torsions:
REMARK  status: ('A' for Active; 'I' for Inactive)
REMARK    1  A    between atoms: C_2  and  C_3 
REMARK       I    between atoms: C_3  and  N_4 
REMARK    2  A    between atoms: N_4  and  C_20 
REMARK    3  A    between atoms: C_18  and  O_19 
REMARK    4  A    between atoms: C_18  and  C_20 
REMARK    5  A    between atoms: C_20  and  C_21 
ROOT
HETATM    1  C           1     -27.213  -6.201 -17.060  0.00  0.00     0.249 C 
HETATM    2  N           1     -26.607  -6.934 -18.045  0.00  0.00    -0.343 N 
HETATM    3  H           1     -26.863  -7.904 -18.184  0.00  0.00     0.163 HD
HETATM    4  O           1     -26.907  -5.044 -16.894  0.00  0.00    -0.271 OA
ENDROOT
BRANCH   1   5
HETATM    5  C           1     -28.262  -6.838 -16.182  0.00  0.00     0.274 C 
HETATM    6  C           1     -29.431  -7.301 -17.042  0.00  0.00     0.042 C 
HETATM    7  C           1     -30.033  -6.106 -17.768  0.00  0.00     0.003 C 
HETATM    8 Se           1     -30.665  -4.803 -16.463  0.00  0.00     0.000 Se
HETATM    9  C           1     -31.311  -3.537 -17.797  0.00  0.00     0.000 C 
HETATM   10  H           1     -29.162  -5.015 -15.677  0.00  0.00     0.275 HD
HETATM   11  N           1     -28.749  -5.834 -15.178  0.00  0.00    -0.067 N 
HETATM   12  H           1     -29.476  -6.274 -14.570  0.00  0.00     0.275 HD
HETATM   13  H           1     -27.947  -5.516 -14.587  0.00  0.00     0.275 HD
ENDBRANCH   1   5
BRANCH   2  14
HETATM   14  C           1     -25.599  -6.322 -18.888  0.00  0.00     0.214 C 
BRANCH  14  15
HETATM   15  C           1     -24.230  -6.886 -18.532  0.00  0.00     0.147 C 
HETATM   16  C           1     -24.263  -7.440 -17.113  0.00  0.00     0.042 C 
BRANCH  15  17
HETATM   17  O           1     -23.901  -7.914 -19.428  0.00  0.00    -0.393 OA
HETATM   18  H           1     -24.198  -8.720 -19.041  0.00  0.00     0.210 HD
ENDBRANCH  15  17
ENDBRANCH  14  15
BRANCH  14  19
HETATM   19  C           1     -25.905  -6.621 -20.335  0.00  0.00     0.199 C 
HETATM   20  O           1     -26.768  -7.476 -20.627  0.00  0.00    -0.646 OA
HETATM   21  O           1     -25.295  -6.013 -21.240  0.00  0.00    -0.646 OA
ENDBRANCH  14  19
ENDBRANCH   2  14
TORSDOF 5
ENDMDL
MODEL 3
REMARK VINA RESULT:      -4.7      2.051      3.133
REMARK  5 active torsions:
REMARK  status: ('A' for Active; 'I' for Inactive)
REMARK    1  A    between atoms: C_2  and  C_3 
REMARK       I    between atoms: C_3  and  N_4 
REMARK    2  A    between atoms: N_4  and  C_20 
REMARK    3  A    between atoms: C_18  and  O_19 
REMARK    4  A    between atoms: C_18  and  C_20 
REMARK    5  A    between atoms: C_20  and  C_21 
ROOT
HETATM    1  C           1     -12.861   6.787 -20.581  0.00  0.00     0.249 C 
HETATM    2  N           1     -11.549   6.910 -20.951  0.00  0.00    -0.343 N 
HETATM    3  H           1     -11.225   6.493 -21.815  0.00  0.00     0.163 HD
HETATM    4  O           1     -13.247   7.285 -19.550  0.00  0.00    -0.271 OA
ENDROOT
BRANCH   1   5
HETATM    5  C           1     -13.825   6.032 -21.462  0.00  0.00     0.274 C 
HETATM    6  C           1     -14.407   4.856 -20.688  0.00  0.00     0.042 C 
HETATM    7  C           1     -13.281   3.927 -20.254  0.00  0.00     0.003 C 
HETATM    8 Se           1     -12.340   3.265 -21.827  0.00  0.00     0.000 Se
HETATM    9  C           1     -11.071   2.186 -20.816  0.00  0.00     0.000 C 
HETATM   10  H           1     -12.329   4.884 -22.374  0.00  0.00     0.275 HD
HETATM   11  N           1     -13.101   5.522 -22.673  0.00  0.00    -0.067 N 
HETATM   12  H           1     -13.767   4.999 -23.284  0.00  0.00     0.275 HD
HETATM   13  H           1     -12.702   6.329 -23.205  0.00  0.00     0.275 HD
ENDBRANCH   1   5
BRANCH   2  14
HETATM   14  C           1     -10.622   7.636 -20.104  0.00  0.00     0.214 C 
BRANCH  14  15
HETATM   15  C           1      -9.494   6.708 -19.674  0.00  0.00     0.147 C 
HETATM   16  C           1     -10.072   5.353 -19.287  0.00  0.00     0.042 C 
BRANCH  15  17
HETATM   17  O           1      -8.592   6.547 -20.736  0.00  0.00    -0.393 OA
HETATM   18  H           1      -7.728   6.664 -20.380  0.00  0.00     0.210 HD
ENDBRANCH  15  17
ENDBRANCH  14  15
BRANCH  14  19
HETATM   19  C           1     -10.050   8.803 -20.871  0.00  0.00     0.199 C 
HETATM   20  O           1      -9.431   9.705 -20.267  0.00  0.00    -0.646 OA
HETATM   21  O           1     -10.195   8.867 -22.111  0.00  0.00    -0.646 OA
ENDBRANCH  14  19
ENDBRANCH   2  14
TORSDOF 5
ENDMDL
MODEL 4
REMARK VINA RESULT:      -4.7     24.316     25.719
REMARK  5 active torsions:
REMARK  status: ('A' for Active; 'I' for Inactive)
REMARK    1  A    between atoms: C_2  and  C_3 
REMARK       I    between atoms: C_3  and  N_4 
REMARK    2  A    between atoms: N_4  and  C_20 
REMARK    3  A    between atoms: C_18  and  O_19 
REMARK    4  A    between atoms: C_18  and  C_20 
REMARK    5  A    between atoms: C_20  and  C_21 
ROOT
HETATM    1  C           1     -20.182  -9.355  -2.564  0.00  0.00     0.249 C 
HETATM    2  N           1     -21.268  -8.850  -1.900  0.00  0.00    -0.343 N 
HETATM    3  H           1     -22.191  -8.924  -2.310  0.00  0.00     0.163 HD
HETATM    4  O           1     -19.080  -9.266  -2.074  0.00  0.00    -0.271 OA
ENDROOT
BRANCH   1   5
HETATM    5  C           1     -20.361 -10.022  -3.905  0.00  0.00     0.274 C 
HETATM    6  C           1     -19.413  -9.391  -4.917  0.00  0.00     0.042 C 
HETATM    7  C           1     -19.721  -7.906  -5.044  0.00  0.00     0.003 C 
HETATM    8 Se           1     -21.561  -7.672  -5.645  0.00  0.00     0.000 Se
HETATM    9  C           1     -21.482  -5.725  -5.656  0.00  0.00     0.000 C 
HETATM   10  H           1     -21.987  -8.822  -4.455  0.00  0.00     0.275 HD
HETATM   11  N           1     -21.777  -9.842  -4.367  0.00  0.00    -0.067 N 
HETATM   12  H           1     -21.902 -10.304  -5.296  0.00  0.00     0.275 HD
HETATM   13  H           1     -22.427 -10.275  -3.673  0.00  0.00     0.275 HD
ENDBRANCH   1   5
BRANCH   2  14
HETATM   14  C           1     -21.096  -8.209  -0.611  0.00  0.00     0.214 C 
BRANCH  14  15
HETATM   15  C           1     -22.066  -7.042  -0.492  0.00  0.00     0.147 C 
HETATM   16  C           1     -22.267  -6.407  -1.862  0.00  0.00     0.042 C 
BRANCH  15  17
HETATM   17  O           1     -23.298  -7.506  -0.007  0.00  0.00    -0.393 OA
HETATM   18  H           1     -23.948  -7.276  -0.648  0.00  0.00     0.210 HD
ENDBRANCH  15  17
ENDBRANCH  14  15
BRANCH  14  19
HETATM   19  C           1     -21.371  -9.206   0.487  0.00  0.00     0.199 C 
HETATM   20  O           1     -20.950  -8.995   1.644  0.00  0.00    -0.646 OA
HETATM   21  O           1     -22.021 -10.245   0.239  0.00  0.00    -0.646 OA
ENDBRANCH  14  19
ENDBRANCH   2  14
TORSDOF 5
ENDMDL
MODEL 5
REMARK VINA RESULT:      -4.7     24.061     25.411
REMARK  5 active torsions:
REMARK  status: ('A' for Active; 'I' for Inactive)
REMARK    1  A    between atoms: C_2  and  C_3 
REMARK       I    between atoms: C_3  and  N_4 
REMARK    2  A    between atoms: N_4  and  C_20 
REMARK    3  A    between atoms: C_18  and  O_19 
REMARK    4  A    between atoms: C_18  and  C_20 
REMARK    5  A    between atoms: C_20  and  C_21 
ROOT
HETATM    1  C           1     -21.518  -9.909  -3.368  0.00  0.00     0.249 C 
HETATM    2  N           1     -21.121  -8.603  -3.464  0.00  0.00    -0.343 N 
HETATM    3  H           1     -20.444  -8.231  -2.809  0.00  0.00     0.163 HD
HETATM    4  O           1     -22.326 -10.353  -4.150  0.00  0.00    -0.271 OA
ENDROOT
BRANCH   1   5
HETATM    5  C           1     -20.947 -10.795  -2.288  0.00  0.00     0.274 C 
HETATM    6  C           1     -22.081 -11.366  -1.448  0.00  0.00     0.042 C 
HETATM    7  C           1     -22.865 -10.228  -0.809  0.00  0.00     0.003 C 
HETATM    8 Se           1     -21.678  -9.180   0.329  0.00  0.00     0.000 Se
HETATM    9  C           1     -23.058  -7.922   0.888  0.00  0.00     0.000 C 
HETATM   10  H           1     -20.573  -9.207  -0.974  0.00  0.00     0.275 HD
HETATM   11  N           1     -20.034  -9.988  -1.413  0.00  0.00    -0.067 N 
HETATM   12  H           1     -19.638 -10.600  -0.664  0.00  0.00     0.275 HD
HETATM   13  H           1     -19.256  -9.596  -1.989  0.00  0.00     0.275 HD
ENDBRANCH   1   5
BRANCH   2  14
HETATM   14  C           1     -21.669  -7.752  -4.502  0.00  0.00     0.214 C 
BRANCH  14  15
HETATM   15  C           1     -21.906  -6.356  -3.940  0.00  0.00     0.147 C 
HETATM   16  C           1     -21.916  -6.417  -2.419  0.00  0.00     0.042 C 
BRANCH  15  17
HETATM   17  O           1     -20.881  -5.501  -4.368  0.00  0.00    -0.393 OA
HETATM   18  H           1     -20.094  -5.778  -3.932  0.00  0.00     0.210 HD
ENDBRANCH  15  17
ENDBRANCH  14  15
BRANCH  14  19
HETATM   19  C           1     -20.697  -7.673  -5.652  0.00  0.00     0.199 C 
HETATM   20  O           1     -21.028  -7.101  -6.713  0.00  0.00    -0.646 OA
HETATM   21  O           1     -19.559  -8.180  -5.545  0.00  0.00    -0.646 OA
ENDBRANCH  14  19
ENDBRANCH   2  14
TORSDOF 5
ENDMDL
MODEL 6
REMARK VINA RESULT:      -4.6      1.444      2.229
REMARK  5 active torsions:
REMARK  status: ('A' for Active; 'I' for Inactive)
REMARK    1  A    between atoms: C_2  and  C_3 
REMARK       I    between atoms: C_3  and  N_4 
REMARK    2  A    between atoms: N_4  and  C_20 
REMARK    3  A    between atoms: C_18  and  O_19 
REMARK    4  A    between atoms: C_18  and  C_20 
REMARK    5  A    between atoms: C_20  and  C_21 
ROOT
HETATM    1  C           1     -11.576   6.365 -20.065  0.00  0.00     0.249 C 
HETATM    2  N           1     -10.880   7.432 -20.566  0.00  0.00    -0.343 N 
HETATM    3  H           1      -9.958   7.295 -20.963  0.00  0.00     0.163 HD
HETATM    4  O           1     -12.675   6.529 -19.592  0.00  0.00    -0.271 OA
ENDROOT
BRANCH   1   5
HETATM    5  C           1     -10.970   4.983 -20.107  0.00  0.00     0.274 C 
HETATM    6  C           1     -10.669   4.603 -21.551  0.00  0.00     0.042 C 
HETATM    7  C           1     -11.960   4.616 -22.359  0.00  0.00     0.003 C 
HETATM    8 Se           1     -13.216   3.334 -21.600  0.00  0.00     0.000 Se
HETATM    9  C           1     -14.623   3.696 -22.898  0.00  0.00     0.000 C 
HETATM   10  H           1     -12.822   4.005 -20.078  0.00  0.00     0.275 HD
HETATM   11  N           1     -11.937   3.996 -19.522  0.00  0.00    -0.067 N 
HETATM   12  H           1     -11.519   3.039 -19.550  0.00  0.00     0.275 HD
HETATM   13  H           1     -12.143   4.256 -18.531  0.00  0.00     0.275 HD
ENDBRANCH   1   5
BRANCH   2  14
HETATM   14  C           1     -11.462   8.760 -20.526  0.00  0.00     0.214 C 
BRANCH  14  15
HETATM   15  C           1     -11.256   9.362 -19.142  0.00  0.00     0.147 C 
HETATM   16  C           1     -12.609   9.572 -18.475  0.00  0.00     0.042 C 
BRANCH  15  17
HETATM   17  O           1     -10.481   8.490 -18.364  0.00  0.00    -0.393 OA
HETATM   18  H           1      -9.617   8.863 -18.315  0.00  0.00     0.210 HD
ENDBRANCH  15  17
ENDBRANCH  14  15
BRANCH  14  19
HETATM   19  C           1     -10.794   9.632 -21.559  0.00  0.00     0.199 C 
HETATM   20  O           1      -9.594   9.446 -21.854  0.00  0.00    -0.646 OA
HETATM   21  O           1     -11.441  10.543 -22.121  0.00  0.00    -0.646 OA
ENDBRANCH  14  19
ENDBRANCH   2  14
TORSDOF 5
ENDMDL
MODEL 7
REMARK VINA RESULT:      -4.6     24.511     25.875
REMARK  5 active torsions:
REMARK  status: ('A' for Active; 'I' for Inactive)
REMARK    1  A    between atoms: C_2  and  C_3 
REMARK       I    between atoms: C_3  and  N_4 
REMARK    2  A    between atoms: N_4  and  C_20 
REMARK    3  A    between atoms: C_18  and  O_19 
REMARK    4  A    between atoms: C_18  and  C_20 
REMARK    5  A    between atoms: C_20  and  C_21 
ROOT
HETATM    1  C           1     -20.883  -7.889  -1.260  0.00  0.00     0.249 C 
HETATM    2  N           1     -21.580  -7.638  -2.411  0.00  0.00    -0.343 N 
HETATM    3  H           1     -22.587  -7.532  -2.381  0.00  0.00     0.163 HD
HETATM    4  O           1     -19.682  -8.014  -1.296  0.00  0.00    -0.271 OA
ENDROOT
BRANCH   1   5
HETATM    5  C           1     -21.615  -8.007   0.054  0.00  0.00     0.274 C 
HETATM    6  C           1     -21.169  -9.274   0.772  0.00  0.00     0.042 C 
HETATM    7  C           1     -21.482 -10.487  -0.094  0.00  0.00     0.003 C 
HETATM    8 Se           1     -23.401 -10.571  -0.426  0.00  0.00     0.000 Se
HETATM    9  C           1     -23.309 -12.189  -1.508  0.00  0.00     0.000 C 
HETATM   10  H           1     -23.307  -8.905  -0.795  0.00  0.00     0.275 HD
HETATM   11  N           1     -23.092  -8.072  -0.201  0.00  0.00    -0.067 N 
HETATM   12  H           1     -23.600  -8.154   0.708  0.00  0.00     0.275 HD
HETATM   13  H           1     -23.399  -7.203  -0.693  0.00  0.00     0.275 HD
ENDBRANCH   1   5
BRANCH   2  14
HETATM   14  C           1     -20.877  -7.524  -3.674  0.00  0.00     0.214 C 
BRANCH  14  15
HETATM   15  C           1     -20.984  -8.838  -4.434  0.00  0.00     0.147 C 
HETATM   16  C           1     -22.121  -9.669  -3.854  0.00  0.00     0.042 C 
BRANCH  15  17
HETATM   17  O           1     -21.240  -8.575  -5.788  0.00  0.00    -0.393 OA
HETATM   18  H           1     -21.850  -7.859  -5.816  0.00  0.00     0.210 HD
ENDBRANCH  15  17
ENDBRANCH  14  15
BRANCH  14  19
HETATM   19  C           1     -21.493  -6.417  -4.494  0.00  0.00     0.199 C 
HETATM   20  O           1     -20.760  -5.619  -5.118  0.00  0.00    -0.646 OA
HETATM   21  O           1     -22.736  -6.297  -4.548  0.00  0.00    -0.646 OA
ENDBRANCH  14  19
ENDBRANCH   2  14
TORSDOF 5
ENDMDL
MODEL 8
REMARK VINA RESULT:      -4.6     24.330     25.765
REMARK  5 active torsions:
REMARK  status: ('A' for Active; 'I' for Inactive)
REMARK    1  A    between atoms: C_2  and  C_3 
REMARK       I    between atoms: C_3  and  N_4 
REMARK    2  A    between atoms: N_4  and  C_20 
REMARK    3  A    between atoms: C_18  and  O_19 
REMARK    4  A    between atoms: C_18  and  C_20 
REMARK    5  A    between atoms: C_20  and  C_21 
ROOT
HETATM    1  C           1     -20.316  -8.755  -3.444  0.00  0.00     0.249 C 
HETATM    2  N           1     -21.432  -8.511  -2.689  0.00  0.00    -0.343 N 
HETATM    3  H           1     -22.331  -8.390  -3.138  0.00  0.00     0.163 HD
HETATM    4  O           1     -19.243  -8.899  -2.908  0.00  0.00    -0.271 OA
ENDROOT
BRANCH   1   5
HETATM    5  C           1     -20.427  -8.843  -4.947  0.00  0.00     0.274 C 
HETATM    6  C           1     -21.195 -10.103  -5.326  0.00  0.00     0.042 C 
HETATM    7  C           1     -20.457 -11.326  -4.799  0.00  0.00     0.003 C 
HETATM    8 Se           1     -18.672 -11.395  -5.579  0.00  0.00     0.000 Se
HETATM    9  C           1     -18.155 -13.032  -4.656  0.00  0.00     0.000 C 
HETATM   10  H           1     -18.547  -9.736  -5.185  0.00  0.00     0.275 HD
HETATM   11  N           1     -19.053  -8.896  -5.546  0.00  0.00    -0.067 N 
HETATM   12  H           1     -19.128  -8.957  -6.587  0.00  0.00     0.275 HD
HETATM   13  H           1     -18.526  -8.032  -5.286  0.00  0.00     0.275 HD
ENDBRANCH   1   5
BRANCH   2  14
HETATM   14  C           1     -21.325  -8.427  -1.245  0.00  0.00     0.214 C 
BRANCH  14  15
HETATM   15  C           1     -21.998  -7.149  -0.762  0.00  0.00     0.147 C 
HETATM   16  C           1     -22.247  -6.227  -1.948  0.00  0.00     0.042 C 
BRANCH  15  17
HETATM   17  O           1     -23.219  -7.467  -0.151  0.00  0.00    -0.393 OA
HETATM   18  H           1     -23.352  -6.839   0.539  0.00  0.00     0.210 HD
ENDBRANCH  15  17
ENDBRANCH  14  15
BRANCH  14  19
HETATM   19  C           1     -22.004  -9.620  -0.621  0.00  0.00     0.199 C 
HETATM   20  O           1     -21.669 -10.004   0.520  0.00  0.00    -0.646 OA
HETATM   21  O           1     -22.903 -10.226  -1.245  0.00  0.00    -0.646 OA
ENDBRANCH  14  19
ENDBRANCH   2  14
TORSDOF 5
ENDMDL
MODEL 9
REMARK VINA RESULT:      -4.6     24.877     26.228
REMARK  5 active torsions:
REMARK  status: ('A' for Active; 'I' for Inactive)
REMARK    1  A    between atoms: C_2  and  C_3 
REMARK       I    between atoms: C_3  and  N_4 
REMARK    2  A    between atoms: N_4  and  C_20 
REMARK    3  A    between atoms: C_18  and  O_19 
REMARK    4  A    between atoms: C_18  and  C_20 
REMARK    5  A    between atoms: C_20  and  C_21 
ROOT
HETATM    1  C           1     -21.625  -8.888  -0.887  0.00  0.00     0.249 C 
HETATM    2  N           1     -21.704  -8.681  -2.238  0.00  0.00    -0.343 N 
HETATM    3  H           1     -22.300  -9.270  -2.806  0.00  0.00     0.163 HD
HETATM    4  O           1     -20.913  -8.185  -0.209  0.00  0.00    -0.271 OA
ENDROOT
BRANCH   1   5
HETATM    5  C           1     -22.427  -9.993  -0.245  0.00  0.00     0.274 C 
HETATM    6  C           1     -21.486 -10.956   0.468  0.00  0.00     0.042 C 
HETATM    7  C           1     -20.512 -11.554  -0.539  0.00  0.00     0.003 C 
HETATM    8 Se           1     -21.506 -12.516  -1.912  0.00  0.00     0.000 Se
HETATM    9  C           1     -19.922 -13.067  -2.904  0.00  0.00     0.000 C 
HETATM   10  H           1     -22.523 -11.144  -1.992  0.00  0.00     0.275 HD
HETATM   11  N           1     -23.191 -10.733  -1.302  0.00  0.00    -0.067 N 
HETATM   12  H           1     -23.747 -11.499  -0.859  0.00  0.00     0.275 HD
HETATM   13  H           1     -23.838 -10.073  -1.791  0.00  0.00     0.275 HD
ENDBRANCH   1   5
BRANCH   2  14
HETATM   14  C           1     -20.933  -7.619  -2.855  0.00  0.00     0.214 C 
BRANCH  14  15
HETATM   15  C           1     -20.303  -8.132  -4.142  0.00  0.00     0.147 C 
HETATM   16  C           1     -19.188  -9.112  -3.805  0.00  0.00     0.042 C 
BRANCH  15  17
HETATM   17  O           1     -21.279  -8.779  -4.914  0.00  0.00    -0.393 OA
HETATM   18  H           1     -22.116  -8.497  -4.589  0.00  0.00     0.210 HD
ENDBRANCH  15  17
ENDBRANCH  14  15
BRANCH  14  19
HETATM   19  C           1     -21.842  -6.455  -3.168  0.00  0.00     0.199 C 
HETATM   20  O           1     -21.980  -6.070  -4.348  0.00  0.00    -0.646 OA
HETATM   21  O           1     -22.456  -5.877  -2.245  0.00  0.00    -0.646 OA
ENDBRANCH  14  19
ENDBRANCH   2  14
TORSDOF 5
ENDMDL
