MODEL 1
REMARK VINA RESULT:      -5.7      0.000      0.000
REMARK  9 active torsions:
REMARK  status: ('A' for Active; 'I' for Inactive)
REMARK    1  A    between atoms: C_4  and  C_25 
REMARK    2  A    between atoms: C_4  and  C_5 
REMARK    3  A    between atoms: C_5  and  Se_6 
REMARK    4  A    between atoms: N_8  and  C_25 
REMARK    5  A    between atoms: C_12  and  C_13 
REMARK    6  A    between atoms: C_12  and  C_17 
REMARK    7  A    between atoms: C_13  and  C_15 
REMARK    8  A    between atoms: C_13  and  N_23 
REMARK       I    between atoms: N_23  and  C_24 
REMARK    9  A    between atoms: C_24  and  C_25 
ROOT
HETATM    1  O           1     -19.377  -7.106  -6.404  0.00  0.00    -0.271 OA
HETATM    2  H           1     -20.561  -4.586  -5.901  0.00  0.00     0.163 HD
HETATM    3  N           1     -20.725  -5.333  -6.563  0.00  0.00    -0.344 N 
HETATM    4  C           1     -20.470  -6.630  -6.208  0.00  0.00     0.249 C 
ENDROOT
BRANCH   3   5
HETATM    5  C           1     -21.232  -5.031  -7.887  0.00  0.00     0.191 C 
BRANCH   5   6
HETATM    6  C           1     -22.368  -4.022  -7.777  0.00  0.00     0.094 C 
BRANCH   6   7
HETATM    7  C           1     -23.224  -4.096  -9.003  0.00  0.00     0.028 A 
HETATM    8  C           1     -24.331  -3.314  -9.231  0.00  0.00     0.114 A 
HETATM    9  N           1     -24.800  -3.711 -10.453  0.00  0.00    -0.360 N 
HETATM   10  H           1     -25.641  -3.327 -10.950  0.00  0.00     0.166 HD
HETATM   11  C           1     -23.973  -4.699 -10.908  0.00  0.00     0.180 A 
HETATM   12  N           1     -23.011  -4.952 -10.051  0.00  0.00    -0.354 N 
ATOM     13  HN          1     -22.263  -5.640 -10.146  1.00  0.00     0.166 HD
ENDBRANCH   6   7
ENDBRANCH   5   6
BRANCH   5  14
HETATM   14  C           1     -20.123  -4.450  -8.729  0.00  0.00     0.197 C 
HETATM   15  O           1     -19.980  -4.817  -9.916  0.00  0.00    -0.646 OA
HETATM   16  O           1     -19.345  -3.603  -8.239  0.00  0.00    -0.646 OA
ENDBRANCH   5  14
ENDBRANCH   3   5
BRANCH   4  17
HETATM   17  C           1     -21.553  -7.466  -5.570  0.00  0.00     0.274 C 
BRANCH  17  18
HETATM   18  C           1     -21.608  -7.173  -4.076  0.00  0.00     0.042 C 
BRANCH  18  19
HETATM   19  C           1     -20.950  -8.314  -3.310  0.00  0.00     0.003 C 
BRANCH  19  20
HETATM   20 Se           1     -21.007  -7.932  -1.399  0.00  0.00     0.000 Se
HETATM   21  C           1     -22.279  -6.465  -1.565  0.00  0.00     0.000 C 
ENDBRANCH  19  20
ENDBRANCH  18  19
ENDBRANCH  17  18
BRANCH  17  22
HETATM   22  N           1     -21.252  -8.920  -5.783  0.00  0.00    -0.067 N 
HETATM   23  H           1     -20.867  -9.059  -6.744  0.00  0.00     0.275 HD
HETATM   24  H           1     -22.129  -9.476  -5.675  0.00  0.00     0.275 HD
HETATM   25  H           1     -20.549  -9.237  -5.077  0.00  0.00     0.275 HD
ENDBRANCH  17  22
ENDBRANCH   4  17
TORSDOF 9
ENDMDL
MODEL 2
REMARK VINA RESULT:      -5.4      3.334      6.756
REMARK  9 active torsions:
REMARK  status: ('A' for Active; 'I' for Inactive)
REMARK    1  A    between atoms: C_4  and  C_25 
REMARK    2  A    between atoms: C_4  and  C_5 
REMARK    3  A    between atoms: C_5  and  Se_6 
REMARK    4  A    between atoms: N_8  and  C_25 
REMARK    5  A    between atoms: C_12  and  C_13 
REMARK    6  A    between atoms: C_12  and  C_17 
REMARK    7  A    between atoms: C_13  and  C_15 
REMARK    8  A    between atoms: C_13  and  N_23 
REMARK       I    between atoms: N_23  and  C_24 
REMARK    9  A    between atoms: C_24  and  C_25 
ROOT
HETATM    1  O           1     -19.614  -6.577  -7.355  0.00  0.00    -0.271 OA
HETATM    2  H           1     -21.744  -8.130  -6.326  0.00  0.00     0.163 HD
HETATM    3  N           1     -20.976  -7.611  -5.919  0.00  0.00    -0.344 N 
HETATM    4  C           1     -20.503  -6.487  -6.542  0.00  0.00     0.249 C 
ENDROOT
BRANCH   3   5
HETATM    5  C           1     -20.377  -8.058  -4.676  0.00  0.00     0.191 C 
BRANCH   5   6
HETATM    6  C           1     -21.447  -8.692  -3.797  0.00  0.00     0.094 C 
BRANCH   6   7
HETATM    7  C           1     -21.777  -7.768  -2.666  0.00  0.00     0.028 A 
HETATM    8  C           1     -21.939  -6.410  -2.790  0.00  0.00     0.114 A 
HETATM    9  N           1     -22.226  -5.970  -1.526  0.00  0.00    -0.360 N 
HETATM   10  H           1     -22.412  -4.977  -1.242  0.00  0.00     0.166 HD
HETATM   11  C           1     -22.228  -7.061  -0.704  0.00  0.00     0.180 A 
HETATM   12  N           1     -21.959  -8.162  -1.366  0.00  0.00    -0.354 N 
ATOM     13  HN          1     -21.898  -9.110  -0.993  1.00  0.00     0.166 HD
ENDBRANCH   6   7
ENDBRANCH   5   6
BRANCH   5  14
HETATM   14  C           1     -19.302  -9.074  -4.974  0.00  0.00     0.197 C 
HETATM   15  O           1     -18.277  -9.128  -4.260  0.00  0.00    -0.646 OA
HETATM   16  O           1     -19.436  -9.861  -5.936  0.00  0.00    -0.646 OA
ENDBRANCH   5  14
ENDBRANCH   3   5
BRANCH   4  17
HETATM   17  C           1     -21.092  -5.138  -6.213  0.00  0.00     0.274 C 
BRANCH  17  18
HETATM   18  C           1     -21.227  -4.317  -7.490  0.00  0.00     0.042 C 
BRANCH  18  19
HETATM   19  C           1     -22.677  -4.335  -7.955  0.00  0.00     0.003 C 
BRANCH  19  20
HETATM   20 Se           1     -22.796  -3.561  -9.741  0.00  0.00     0.000 Se
HETATM   21  C           1     -23.861  -5.018 -10.478  0.00  0.00     0.000 C 
ENDBRANCH  19  20
ENDBRANCH  18  19
ENDBRANCH  17  18
BRANCH  17  22
HETATM   22  N           1     -20.192  -4.420  -5.252  0.00  0.00    -0.067 N 
HETATM   23  H           1     -19.333  -4.098  -5.753  0.00  0.00     0.275 HD
HETATM   24  H           1     -19.922  -5.069  -4.479  0.00  0.00     0.275 HD
HETATM   25  H           1     -20.693  -3.594  -4.854  0.00  0.00     0.275 HD
ENDBRANCH  17  22
ENDBRANCH   4  17
TORSDOF 9
ENDMDL
MODEL 3
REMARK VINA RESULT:      -5.4      1.594      2.238
REMARK  9 active torsions:
REMARK  status: ('A' for Active; 'I' for Inactive)
REMARK    1  A    between atoms: C_4  and  C_25 
REMARK    2  A    between atoms: C_4  and  C_5 
REMARK    3  A    between atoms: C_5  and  Se_6 
REMARK    4  A    between atoms: N_8  and  C_25 
REMARK    5  A    between atoms: C_12  and  C_13 
REMARK    6  A    between atoms: C_12  and  C_17 
REMARK    7  A    between atoms: C_13  and  C_15 
REMARK    8  A    between atoms: C_13  and  N_23 
REMARK       I    between atoms: N_23  and  C_24 
REMARK    9  A    between atoms: C_24  and  C_25 
ROOT
HETATM    1  O           1     -20.799  -5.803  -3.999  0.00  0.00    -0.271 OA
HETATM    2  H           1     -23.082  -5.065  -5.499  0.00  0.00     0.163 HD
HETATM    3  N           1     -22.199  -5.510  -5.714  0.00  0.00    -0.344 N 
HETATM    4  C           1     -21.582  -6.294  -4.778  0.00  0.00     0.249 C 
ENDROOT
BRANCH   3   5
HETATM    5  C           1     -21.588  -5.316  -7.015  0.00  0.00     0.191 C 
BRANCH   5   6
HETATM    6  C           1     -21.914  -3.918  -7.525  0.00  0.00     0.094 C 
BRANCH   6   7
HETATM    7  C           1     -22.843  -4.017  -8.695  0.00  0.00     0.028 A 
HETATM    8  C           1     -22.487  -4.484  -9.937  0.00  0.00     0.114 A 
HETATM    9  N           1     -23.627  -4.399 -10.688  0.00  0.00    -0.360 N 
HETATM   10  H           1     -23.728  -4.673 -11.697  0.00  0.00     0.166 HD
HETATM   11  C           1     -24.610  -3.894  -9.885  0.00  0.00     0.180 A 
HETATM   12  N           1     -24.164  -3.653  -8.674  0.00  0.00    -0.354 N 
ATOM     13  HN          1     -24.689  -3.275  -7.885  1.00  0.00     0.166 HD
ENDBRANCH   6   7
ENDBRANCH   5   6
BRANCH   5  14
HETATM   14  C           1     -20.092  -5.472  -6.895  0.00  0.00     0.197 C 
HETATM   15  O           1     -19.388  -4.500  -6.541  0.00  0.00    -0.646 OA
HETATM   16  O           1     -19.556  -6.571  -7.151  0.00  0.00    -0.646 OA
ENDBRANCH   5  14
ENDBRANCH   3   5
BRANCH   4  17
HETATM   17  C           1     -21.879  -7.772  -4.716  0.00  0.00     0.274 C 
BRANCH  17  18
HETATM   18  C           1     -21.608  -8.287  -3.309  0.00  0.00     0.042 C 
BRANCH  18  19
HETATM   19  C           1     -21.301  -9.778  -3.363  0.00  0.00     0.003 C 
BRANCH  19  20
HETATM   20 Se           1     -19.909 -10.203  -2.066  0.00  0.00     0.000 Se
HETATM   21  C           1     -18.474  -9.370  -3.089  0.00  0.00     0.000 C 
ENDBRANCH  19  20
ENDBRANCH  18  19
ENDBRANCH  17  18
BRANCH  17  22
HETATM   22  N           1     -21.001  -8.499  -5.691  0.00  0.00    -0.067 N 
HETATM   23  H           1     -21.423  -8.449  -6.646  0.00  0.00     0.275 HD
HETATM   24  H           1     -20.912  -9.499  -5.401  0.00  0.00     0.275 HD
HETATM   25  H           1     -20.054  -8.055  -5.705  0.00  0.00     0.275 HD
ENDBRANCH  17  22
ENDBRANCH   4  17
TORSDOF 9
ENDMDL
MODEL 4
REMARK VINA RESULT:      -5.3      3.593      7.287
REMARK  9 active torsions:
REMARK  status: ('A' for Active; 'I' for Inactive)
REMARK    1  A    between atoms: C_4  and  C_25 
REMARK    2  A    between atoms: C_4  and  C_5 
REMARK    3  A    between atoms: C_5  and  Se_6 
REMARK    4  A    between atoms: N_8  and  C_25 
REMARK    5  A    between atoms: C_12  and  C_13 
REMARK    6  A    between atoms: C_12  and  C_17 
REMARK    7  A    between atoms: C_13  and  C_15 
REMARK    8  A    between atoms: C_13  and  N_23 
REMARK       I    between atoms: N_23  and  C_24 
REMARK    9  A    between atoms: C_24  and  C_25 
ROOT
HETATM    1  O           1     -22.785  -6.142  -4.634  0.00  0.00    -0.271 OA
HETATM    2  H           1     -21.121  -5.713  -2.386  0.00  0.00     0.163 HD
HETATM    3  N           1     -21.351  -6.512  -2.963  0.00  0.00    -0.344 N 
HETATM    4  C           1     -21.644  -6.338  -4.288  0.00  0.00     0.249 C 
ENDROOT
BRANCH   3   5
HETATM    5  C           1     -21.368  -7.842  -2.385  0.00  0.00     0.191 C 
BRANCH   5   6
HETATM    6  C           1     -19.938  -8.331  -2.196  0.00  0.00     0.094 C 
BRANCH   6   7
HETATM    7  C           1     -19.553  -9.208  -3.347  0.00  0.00     0.028 A 
HETATM    8  C           1     -20.406 -10.074  -3.987  0.00  0.00     0.114 A 
HETATM    9  N           1     -19.646 -10.663  -4.961  0.00  0.00    -0.360 N 
HETATM   10  H           1     -19.971 -11.386  -5.650  0.00  0.00     0.166 HD
HETATM   11  C           1     -18.388 -10.139  -4.872  0.00  0.00     0.180 A 
HETATM   12  N           1     -18.303  -9.256  -3.904  0.00  0.00    -0.354 N 
ATOM     13  HN          1     -17.480  -8.720  -3.627  1.00  0.00     0.166 HD
ENDBRANCH   6   7
ENDBRANCH   5   6
BRANCH   5  14
HETATM   14  C           1     -22.067  -7.799  -1.049  0.00  0.00     0.197 C 
HETATM   15  O           1     -22.754  -6.803  -0.733  0.00  0.00    -0.646 OA
HETATM   16  O           1     -21.957  -8.759  -0.256  0.00  0.00    -0.646 OA
ENDBRANCH   5  14
ENDBRANCH   3   5
BRANCH   4  17
HETATM   17  C           1     -20.542  -6.387  -5.318  0.00  0.00     0.274 C 
BRANCH  17  18
HETATM   18  C           1     -20.376  -5.012  -5.952  0.00  0.00     0.042 C 
BRANCH  18  19
HETATM   19  C           1     -20.635  -5.108  -7.451  0.00  0.00     0.003 C 
BRANCH  19  20
HETATM   20 Se           1     -22.345  -4.271  -7.870  0.00  0.00     0.000 Se
HETATM   21  C           1     -22.122  -4.407  -9.802  0.00  0.00     0.000 C 
ENDBRANCH  19  20
ENDBRANCH  18  19
ENDBRANCH  17  18
BRANCH  17  22
HETATM   22  N           1     -20.896  -7.386  -6.380  0.00  0.00    -0.067 N 
HETATM   23  H           1     -21.612  -6.976  -7.021  0.00  0.00     0.275 HD
HETATM   24  H           1     -21.283  -8.247  -5.932  0.00  0.00     0.275 HD
HETATM   25  H           1     -20.040  -7.633  -6.926  0.00  0.00     0.275 HD
ENDBRANCH  17  22
ENDBRANCH   4  17
TORSDOF 9
ENDMDL
MODEL 5
REMARK VINA RESULT:      -5.1      3.940      6.027
REMARK  9 active torsions:
REMARK  status: ('A' for Active; 'I' for Inactive)
REMARK    1  A    between atoms: C_4  and  C_25 
REMARK    2  A    between atoms: C_4  and  C_5 
REMARK    3  A    between atoms: C_5  and  Se_6 
REMARK    4  A    between atoms: N_8  and  C_25 
REMARK    5  A    between atoms: C_12  and  C_13 
REMARK    6  A    between atoms: C_12  and  C_17 
REMARK    7  A    between atoms: C_13  and  C_15 
REMARK    8  A    between atoms: C_13  and  N_23 
REMARK       I    between atoms: N_23  and  C_24 
REMARK    9  A    between atoms: C_24  and  C_25 
ROOT
HETATM    1  O           1     -21.920  -5.603  -2.393  0.00  0.00    -0.271 OA
HETATM    2  H           1     -22.705  -7.372  -4.457  0.00  0.00     0.163 HD
HETATM    3  N           1     -21.834  -7.168  -3.984  0.00  0.00    -0.344 N 
HETATM    4  C           1     -21.844  -6.776  -2.672  0.00  0.00     0.249 C 
ENDROOT
BRANCH   3   5
HETATM    5  C           1     -20.577  -7.291  -4.695  0.00  0.00     0.191 C 
BRANCH   5   6
HETATM    6  C           1     -20.464  -8.690  -5.287  0.00  0.00     0.094 C 
BRANCH   6   7
HETATM    7  C           1     -19.053  -9.175  -5.160  0.00  0.00     0.028 A 
HETATM    8  C           1     -18.392  -9.345  -3.968  0.00  0.00     0.114 A 
HETATM    9  N           1     -17.147  -9.796  -4.314  0.00  0.00    -0.360 N 
HETATM   10  H           1     -16.367 -10.034  -3.654  0.00  0.00     0.166 HD
HETATM   11  C           1     -17.107  -9.879  -5.677  0.00  0.00     0.180 A 
HETATM   12  N           1     -18.246  -9.510  -6.215  0.00  0.00    -0.354 N 
ATOM     13  HN          1     -18.481  -9.479  -7.208  1.00  0.00     0.166 HD
ENDBRANCH   6   7
ENDBRANCH   5   6
BRANCH   5  14
HETATM   14  C           1     -20.525  -6.269  -5.803  0.00  0.00     0.197 C 
HETATM   15  O           1     -20.636  -6.632  -6.995  0.00  0.00    -0.646 OA
HETATM   16  O           1     -20.368  -5.059  -5.530  0.00  0.00    -0.646 OA
ENDBRANCH   5  14
ENDBRANCH   3   5
BRANCH   4  17
HETATM   17  C           1     -21.760  -7.808  -1.575  0.00  0.00     0.274 C 
BRANCH  17  18
HETATM   18  C           1     -22.523  -7.314  -0.353  0.00  0.00     0.042 C 
BRANCH  18  19
HETATM   19  C           1     -22.804  -8.485   0.580  0.00  0.00     0.003 C 
BRANCH  19  20
HETATM   20 Se           1     -23.098 -10.099  -0.473  0.00  0.00     0.000 Se
HETATM   21  C           1     -21.652 -11.104   0.363  0.00  0.00     0.000 C 
ENDBRANCH  19  20
ENDBRANCH  18  19
ENDBRANCH  17  18
BRANCH  17  22
HETATM   22  N           1     -20.323  -8.033  -1.209  0.00  0.00    -0.067 N 
HETATM   23  H           1     -19.973  -8.896  -1.683  0.00  0.00     0.275 HD
HETATM   24  H           1     -20.241  -8.145  -0.174  0.00  0.00     0.275 HD
HETATM   25  H           1     -19.753  -7.212  -1.516  0.00  0.00     0.275 HD
ENDBRANCH  17  22
ENDBRANCH   4  17
TORSDOF 9
ENDMDL
MODEL 6
REMARK VINA RESULT:      -5.0      1.727      2.190
REMARK  9 active torsions:
REMARK  status: ('A' for Active; 'I' for Inactive)
REMARK    1  A    between atoms: C_4  and  C_25 
REMARK    2  A    between atoms: C_4  and  C_5 
REMARK    3  A    between atoms: C_5  and  Se_6 
REMARK    4  A    between atoms: N_8  and  C_25 
REMARK    5  A    between atoms: C_12  and  C_13 
REMARK    6  A    between atoms: C_12  and  C_17 
REMARK    7  A    between atoms: C_13  and  C_15 
REMARK    8  A    between atoms: C_13  and  N_23 
REMARK       I    between atoms: N_23  and  C_24 
REMARK    9  A    between atoms: C_24  and  C_25 
ROOT
HETATM    1  O           1     -20.935  -5.814  -3.790  0.00  0.00    -0.271 OA
HETATM    2  H           1     -23.214  -5.466  -5.430  0.00  0.00     0.163 HD
HETATM    3  N           1     -22.274  -5.810  -5.577  0.00  0.00    -0.344 N 
HETATM    4  C           1     -21.613  -6.448  -4.563  0.00  0.00     0.249 C 
ENDROOT
BRANCH   3   5
HETATM    5  C           1     -21.628  -5.627  -6.862  0.00  0.00     0.191 C 
BRANCH   5   6
HETATM    6  C           1     -22.068  -4.301  -7.467  0.00  0.00     0.094 C 
BRANCH   6   7
HETATM    7  C           1     -21.805  -4.311  -8.940  0.00  0.00     0.028 A 
HETATM    8  C           1     -22.748  -4.589  -9.900  0.00  0.00     0.114 A 
HETATM    9  N           1     -22.083  -4.488 -11.091  0.00  0.00    -0.360 N 
HETATM   10  H           1     -22.493  -4.637 -12.046  0.00  0.00     0.166 HD
HETATM   11  C           1     -20.787  -4.158 -10.810  0.00  0.00     0.180 A 
HETATM   12  N           1     -20.591  -4.044  -9.516  0.00  0.00    -0.354 N 
ATOM     13  HN          1     -19.719  -3.807  -9.041  1.00  0.00     0.166 HD
ENDBRANCH   6   7
ENDBRANCH   5   6
BRANCH   5  14
HETATM   14  C           1     -20.131  -5.623  -6.675  0.00  0.00     0.197 C 
HETATM   15  O           1     -19.478  -6.679  -6.827  0.00  0.00    -0.646 OA
HETATM   16  O           1     -19.543  -4.565  -6.365  0.00  0.00    -0.646 OA
ENDBRANCH   5  14
ENDBRANCH   3   5
BRANCH   4  17
HETATM   17  C           1     -21.731  -7.945  -4.408  0.00  0.00     0.274 C 
BRANCH  17  18
HETATM   18  C           1     -20.866  -8.406  -3.243  0.00  0.00     0.042 C 
BRANCH  18  19
HETATM   19  C           1     -21.752  -8.987  -2.149  0.00  0.00     0.003 C 
BRANCH  19  20
HETATM   20 Se           1     -21.205  -8.272  -0.420  0.00  0.00     0.000 Se
HETATM   21  C           1     -23.016  -8.170   0.294  0.00  0.00     0.000 C 
ENDBRANCH  19  20
ENDBRANCH  18  19
ENDBRANCH  17  18
BRANCH  17  22
HETATM   22  N           1     -21.269  -8.614  -5.669  0.00  0.00    -0.067 N 
HETATM   23  H           1     -20.464  -8.083  -6.071  0.00  0.00     0.275 HD
HETATM   24  H           1     -22.053  -8.635  -6.359  0.00  0.00     0.275 HD
HETATM   25  H           1     -20.968  -9.592  -5.454  0.00  0.00     0.275 HD
ENDBRANCH  17  22
ENDBRANCH   4  17
TORSDOF 9
ENDMDL
MODEL 7
REMARK VINA RESULT:      -4.9      4.706      6.961
REMARK  9 active torsions:
REMARK  status: ('A' for Active; 'I' for Inactive)
REMARK    1  A    between atoms: C_4  and  C_25 
REMARK    2  A    between atoms: C_4  and  C_5 
REMARK    3  A    between atoms: C_5  and  Se_6 
REMARK    4  A    between atoms: N_8  and  C_25 
REMARK    5  A    between atoms: C_12  and  C_13 
REMARK    6  A    between atoms: C_12  and  C_17 
REMARK    7  A    between atoms: C_13  and  C_15 
REMARK    8  A    between atoms: C_13  and  N_23 
REMARK       I    between atoms: N_23  and  C_24 
REMARK    9  A    between atoms: C_24  and  C_25 
ROOT
HETATM    1  O           1     -19.195 -10.325  -4.755  0.00  0.00    -0.271 OA
HETATM    2  H           1     -19.149  -7.500  -4.912  0.00  0.00     0.163 HD
HETATM    3  N           1     -19.685  -8.177  -4.386  0.00  0.00    -0.344 N 
HETATM    4  C           1     -19.116  -9.368  -4.022  0.00  0.00     0.249 C 
ENDROOT
BRANCH   3   5
HETATM    5  C           1     -21.057  -7.887  -4.018  0.00  0.00     0.191 C 
BRANCH   5   6
HETATM    6  C           1     -21.073  -7.019  -2.766  0.00  0.00     0.094 C 
BRANCH   6   7
HETATM    7  C           1     -21.780  -7.744  -1.663  0.00  0.00     0.028 A 
HETATM    8  C           1     -22.396  -7.133  -0.598  0.00  0.00     0.114 A 
HETATM    9  N           1     -22.903  -8.158   0.153  0.00  0.00    -0.360 N 
HETATM   10  H           1     -23.442  -8.064   1.049  0.00  0.00     0.166 HD
HETATM   11  C           1     -22.580  -9.326  -0.476  0.00  0.00     0.180 A 
HETATM   12  N           1     -21.899  -9.106  -1.578  0.00  0.00    -0.354 N 
ATOM     13  HN          1     -21.538  -9.801  -2.231  1.00  0.00     0.166 HD
ENDBRANCH   6   7
ENDBRANCH   5   6
BRANCH   5  14
HETATM   14  C           1     -21.736  -7.154  -5.148  0.00  0.00     0.197 C 
HETATM   15  O           1     -21.384  -7.363  -6.330  0.00  0.00    -0.646 OA
HETATM   16  O           1     -22.649  -6.336  -4.903  0.00  0.00    -0.646 OA
ENDBRANCH   5  14
ENDBRANCH   3   5
BRANCH   4  17
HETATM   17  C           1     -18.387  -9.484  -2.706  0.00  0.00     0.274 C 
BRANCH  17  18
HETATM   18  C           1     -16.885  -9.418  -2.948  0.00  0.00     0.042 C 
BRANCH  18  19
HETATM   19  C           1     -16.218 -10.653  -2.357  0.00  0.00     0.003 C 
BRANCH  19  20
HETATM   20 Se           1     -15.452 -11.728  -3.791  0.00  0.00     0.000 Se
HETATM   21  C           1     -15.604 -10.330  -5.141  0.00  0.00     0.000 C 
ENDBRANCH  19  20
ENDBRANCH  18  19
ENDBRANCH  17  18
BRANCH  17  22
HETATM   22  N           1     -18.730 -10.794  -2.060  0.00  0.00    -0.067 N 
HETATM   23  H           1     -18.144 -10.926  -1.205  0.00  0.00     0.275 HD
HETATM   24  H           1     -18.545 -11.572  -2.732  0.00  0.00     0.275 HD
HETATM   25  H           1     -19.741 -10.797  -1.793  0.00  0.00     0.275 HD
ENDBRANCH  17  22
ENDBRANCH   4  17
TORSDOF 9
ENDMDL
MODEL 8
REMARK VINA RESULT:      -4.9      3.268      6.508
REMARK  9 active torsions:
REMARK  status: ('A' for Active; 'I' for Inactive)
REMARK    1  A    between atoms: C_4  and  C_25 
REMARK    2  A    between atoms: C_4  and  C_5 
REMARK    3  A    between atoms: C_5  and  Se_6 
REMARK    4  A    between atoms: N_8  and  C_25 
REMARK    5  A    between atoms: C_12  and  C_13 
REMARK    6  A    between atoms: C_12  and  C_17 
REMARK    7  A    between atoms: C_13  and  C_15 
REMARK    8  A    between atoms: C_13  and  N_23 
REMARK       I    between atoms: N_23  and  C_24 
REMARK    9  A    between atoms: C_24  and  C_25 
ROOT
HETATM    1  O           1     -23.801  -4.844  -6.240  0.00  0.00    -0.271 OA
HETATM    2  H           1     -21.451  -3.317  -5.849  0.00  0.00     0.163 HD
HETATM    3  N           1     -21.645  -4.283  -6.079  0.00  0.00    -0.344 N 
HETATM    4  C           1     -22.761  -4.603  -6.805  0.00  0.00     0.249 C 
ENDROOT
BRANCH   3   5
HETATM    5  C           1     -20.742  -5.329  -5.640  0.00  0.00     0.191 C 
BRANCH   5   6
HETATM    6  C           1     -21.529  -6.611  -5.401  0.00  0.00     0.094 C 
BRANCH   6   7
HETATM    7  C           1     -21.621  -6.874  -3.930  0.00  0.00     0.028 A 
HETATM    8  C           1     -21.118  -7.988  -3.303  0.00  0.00     0.114 A 
HETATM    9  N           1     -21.423  -7.818  -1.980  0.00  0.00    -0.360 N 
HETATM   10  H           1     -21.189  -8.480  -1.199  0.00  0.00     0.166 HD
HETATM   11  C           1     -22.086  -6.630  -1.862  0.00  0.00     0.180 A 
HETATM   12  N           1     -22.221  -6.037  -3.025  0.00  0.00    -0.354 N 
ATOM     13  HN          1     -22.675  -5.143  -3.216  1.00  0.00     0.166 HD
ENDBRANCH   6   7
ENDBRANCH   5   6
BRANCH   5  14
HETATM   14  C           1     -19.698  -5.569  -6.703  0.00  0.00     0.197 C 
HETATM   15  O           1     -19.637  -6.677  -7.280  0.00  0.00    -0.646 OA
HETATM   16  O           1     -18.894  -4.662  -7.005  0.00  0.00    -0.646 OA
ENDBRANCH   5  14
ENDBRANCH   3   5
BRANCH   4  17
HETATM   17  C           1     -22.692  -4.652  -8.312  0.00  0.00     0.274 C 
BRANCH  17  18
HETATM   18  C           1     -21.647  -3.660  -8.806  0.00  0.00     0.042 C 
BRANCH  18  19
HETATM   19  C           1     -20.823  -4.299  -9.916  0.00  0.00     0.003 C 
BRANCH  19  20
HETATM   20 Se           1     -21.282  -3.477 -11.623  0.00  0.00     0.000 Se
HETATM   21  C           1     -22.723  -4.726 -12.024  0.00  0.00     0.000 C 
ENDBRANCH  19  20
ENDBRANCH  18  19
ENDBRANCH  17  18
BRANCH  17  22
HETATM   22  N           1     -24.031  -4.292  -8.884  0.00  0.00    -0.067 N 
HETATM   23  H           1     -24.014  -4.421  -9.921  0.00  0.00     0.275 HD
HETATM   24  H           1     -24.248  -3.294  -8.661  0.00  0.00     0.275 HD
HETATM   25  H           1     -24.765  -4.909  -8.469  0.00  0.00     0.275 HD
ENDBRANCH  17  22
ENDBRANCH   4  17
TORSDOF 9
ENDMDL
MODEL 9
REMARK VINA RESULT:      -4.9      2.637      4.130
REMARK  9 active torsions:
REMARK  status: ('A' for Active; 'I' for Inactive)
REMARK    1  A    between atoms: C_4  and  C_25 
REMARK    2  A    between atoms: C_4  and  C_5 
REMARK    3  A    between atoms: C_5  and  Se_6 
REMARK    4  A    between atoms: N_8  and  C_25 
REMARK    5  A    between atoms: C_12  and  C_13 
REMARK    6  A    between atoms: C_12  and  C_17 
REMARK    7  A    between atoms: C_13  and  C_15 
REMARK    8  A    between atoms: C_13  and  N_23 
REMARK       I    between atoms: N_23  and  C_24 
REMARK    9  A    between atoms: C_24  and  C_25 
ROOT
HETATM    1  O           1     -21.555  -5.420  -2.405  0.00  0.00    -0.271 OA
HETATM    2  H           1     -23.597  -6.532  -4.016  0.00  0.00     0.163 HD
HETATM    3  N           1     -22.587  -6.587  -4.005  0.00  0.00    -0.344 N 
HETATM    4  C           1     -21.910  -6.498  -2.818  0.00  0.00     0.249 C 
ENDROOT
BRANCH   3   5
HETATM    5  C           1     -21.857  -6.759  -5.245  0.00  0.00     0.191 C 
BRANCH   5   6
HETATM    6  C           1     -21.022  -5.515  -5.519  0.00  0.00     0.094 C 
BRANCH   6   7
HETATM    7  C           1     -21.362  -4.973  -6.873  0.00  0.00     0.028 A 
HETATM    8  C           1     -20.626  -5.198  -8.011  0.00  0.00     0.114 A 
HETATM    9  N           1     -21.288  -4.524  -9.000  0.00  0.00    -0.360 N 
HETATM   10  H           1     -21.009  -4.473 -10.011  0.00  0.00     0.166 HD
HETATM   11  C           1     -22.378  -3.930  -8.432  0.00  0.00     0.180 A 
HETATM   12  N           1     -22.448  -4.184  -7.146  0.00  0.00    -0.354 N 
ATOM     13  HN          1     -23.160  -3.863  -6.489  1.00  0.00     0.166 HD
ENDBRANCH   6   7
ENDBRANCH   5   6
BRANCH   5  14
HETATM   14  C           1     -20.949  -7.960  -5.131  0.00  0.00     0.197 C 
HETATM   15  O           1     -19.714  -7.801  -5.015  0.00  0.00    -0.646 OA
HETATM   16  O           1     -21.432  -9.112  -5.154  0.00  0.00    -0.646 OA
ENDBRANCH   5  14
ENDBRANCH   3   5
BRANCH   4  17
HETATM   17  C           1     -21.609  -7.747  -2.026  0.00  0.00     0.274 C 
BRANCH  17  18
HETATM   18  C           1     -22.306  -7.671  -0.673  0.00  0.00     0.042 C 
BRANCH  18  19
HETATM   19  C           1     -22.539  -9.079  -0.141  0.00  0.00     0.003 C 
BRANCH  19  20
HETATM   20 Se           1     -22.567 -10.340  -1.626  0.00  0.00     0.000 Se
HETATM   21  C           1     -21.168 -11.483  -0.895  0.00  0.00     0.000 C 
ENDBRANCH  19  20
ENDBRANCH  18  19
ENDBRANCH  17  18
BRANCH  17  22
HETATM   22  N           1     -20.128  -7.862  -1.818  0.00  0.00    -0.067 N 
HETATM   23  H           1     -19.839  -8.861  -1.911  0.00  0.00     0.275 HD
HETATM   24  H           1     -19.883  -7.515  -0.864  0.00  0.00     0.275 HD
HETATM   25  H           1     -19.630  -7.287  -2.536  0.00  0.00     0.275 HD
ENDBRANCH  17  22
ENDBRANCH   4  17
TORSDOF 9
ENDMDL
