MODEL 1
REMARK VINA RESULT:      -5.2      0.000      0.000
REMARK  8 active torsions:
REMARK  status: ('A' for Active; 'I' for Inactive)
REMARK    1  A    between atoms: N_2  and  C_17 
REMARK       I    between atoms: N_2  and  C_3 
REMARK    2  A    between atoms: C_3  and  C_4 
REMARK    3  A    between atoms: C_4  and  C_5 
REMARK    4  A    between atoms: C_4  and  N_7 
REMARK    5  A    between atoms: C_5  and  Se_6 
REMARK    6  A    between atoms: O_15  and  C_16 
REMARK    7  A    between atoms: C_16  and  C_17 
REMARK    8  A    between atoms: C_17  and  C_18 
ROOT
HETATM    1  N           1     -22.114  -4.839  -9.072  0.00  0.00    -0.343 N 
HETATM    2  C           1     -21.651  -4.559  -7.815  0.00  0.00     0.249 C 
HETATM    3  O           1     -21.604  -3.415  -7.428  0.00  0.00    -0.271 OA
HETATM    4  H           1     -22.153  -5.797  -9.394  0.00  0.00     0.163 HD
ENDROOT
BRANCH   2   5
HETATM    5  C           1     -21.199  -5.679  -6.910  0.00  0.00     0.274 C 
BRANCH   5   6
HETATM    6  C           1     -20.894  -5.124  -5.525  0.00  0.00     0.045 C 
BRANCH   6   7
HETATM    7 Se           1     -21.492  -6.390  -4.171  0.00  0.00     0.000 Se
HETATM    8  H           1     -21.842  -5.350  -3.188  0.00  0.00     0.000 HD
ENDBRANCH   6   7
ENDBRANCH   5   6
BRANCH   5   9
HETATM    9  N           1     -19.962  -6.312  -7.477  0.00  0.00    -0.067 N 
HETATM   10  H           1     -19.117  -5.824  -7.103  0.00  0.00     0.275 HD
HETATM   11  H           1     -19.931  -7.320  -7.204  0.00  0.00     0.275 HD
HETATM   12  H           1     -19.978  -6.234  -8.519  0.00  0.00     0.275 HD
ENDBRANCH   5   9
ENDBRANCH   2   5
BRANCH   1  13
HETATM   13  C           1     -22.547  -3.762  -9.940  0.00  0.00     0.209 C 
BRANCH  13  14
HETATM   14  C           1     -21.784  -3.834 -11.257  0.00  0.00     0.200 C 
BRANCH  14  15
HETATM   15  O           1     -22.578  -4.465 -12.225  0.00  0.00    -0.398 OA
HETATM   16  H           1     -23.457  -4.488 -11.886  0.00  0.00     0.209 HD
ENDBRANCH  14  15
ENDBRANCH  13  14
BRANCH  13  17
HETATM   17  C           1     -24.027  -3.897 -10.208  0.00  0.00     0.198 C 
HETATM   18  O           1     -24.660  -2.946 -10.716  0.00  0.00    -0.646 OA
HETATM   19  O           1     -24.619  -4.960  -9.923  0.00  0.00    -0.646 OA
ENDBRANCH  13  17
ENDBRANCH   1  13
TORSDOF 8
ENDMDL
MODEL 2
REMARK VINA RESULT:      -4.6      1.863      2.327
REMARK  8 active torsions:
REMARK  status: ('A' for Active; 'I' for Inactive)
REMARK    1  A    between atoms: N_2  and  C_17 
REMARK       I    between atoms: N_2  and  C_3 
REMARK    2  A    between atoms: C_3  and  C_4 
REMARK    3  A    between atoms: C_4  and  C_5 
REMARK    4  A    between atoms: C_4  and  N_7 
REMARK    5  A    between atoms: C_5  and  Se_6 
REMARK    6  A    between atoms: O_15  and  C_16 
REMARK    7  A    between atoms: C_16  and  C_17 
REMARK    8  A    between atoms: C_17  and  C_18 
ROOT
HETATM    1  N           1     -22.621  -4.333  -9.199  0.00  0.00    -0.343 N 
HETATM    2  C           1     -21.800  -4.804  -8.210  0.00  0.00     0.249 C 
HETATM    3  O           1     -20.843  -5.485  -8.492  0.00  0.00    -0.271 OA
HETATM    4  H           1     -23.421  -3.762  -8.963  0.00  0.00     0.163 HD
ENDROOT
BRANCH   2   5
HETATM    5  C           1     -22.091  -4.473  -6.767  0.00  0.00     0.274 C 
BRANCH   5   6
HETATM    6  C           1     -21.128  -5.235  -5.866  0.00  0.00     0.045 C 
BRANCH   6   7
HETATM    7 Se           1     -22.092  -6.645  -4.928  0.00  0.00     0.000 Se
HETATM    8  H           1     -21.139  -7.703  -5.301  0.00  0.00     0.000 HD
ENDBRANCH   6   7
ENDBRANCH   5   6
BRANCH   5   9
HETATM    9  N           1     -23.500  -4.868  -6.438  0.00  0.00    -0.067 N 
HETATM   10  H           1     -23.806  -4.377  -5.568  0.00  0.00     0.275 HD
HETATM   11  H           1     -24.130  -4.601  -7.228  0.00  0.00     0.275 HD
HETATM   12  H           1     -23.546  -5.902  -6.290  0.00  0.00     0.275 HD
ENDBRANCH   5   9
ENDBRANCH   2   5
BRANCH   1  13
HETATM   13  C           1     -22.341  -4.652 -10.586  0.00  0.00     0.209 C 
BRANCH  13  14
HETATM   14  C           1     -23.651  -4.763 -11.355  0.00  0.00     0.200 C 
BRANCH  14  15
HETATM   15  O           1     -23.388  -4.756 -12.732  0.00  0.00    -0.398 OA
HETATM   16  H           1     -22.789  -5.463 -12.900  0.00  0.00     0.209 HD
ENDBRANCH  14  15
ENDBRANCH  13  14
BRANCH  13  17
HETATM   17  C           1     -21.493  -3.560 -11.192  0.00  0.00     0.198 C 
HETATM   18  O           1     -22.022  -2.492 -11.565  0.00  0.00    -0.646 OA
HETATM   19  O           1     -20.260  -3.725 -11.320  0.00  0.00    -0.646 OA
ENDBRANCH  13  17
ENDBRANCH   1  13
TORSDOF 8
ENDMDL
MODEL 3
REMARK VINA RESULT:      -4.2      3.130      5.612
REMARK  8 active torsions:
REMARK  status: ('A' for Active; 'I' for Inactive)
REMARK    1  A    between atoms: N_2  and  C_17 
REMARK       I    between atoms: N_2  and  C_3 
REMARK    2  A    between atoms: C_3  and  C_4 
REMARK    3  A    between atoms: C_4  and  C_5 
REMARK    4  A    between atoms: C_4  and  N_7 
REMARK    5  A    between atoms: C_5  and  Se_6 
REMARK    6  A    between atoms: O_15  and  C_16 
REMARK    7  A    between atoms: C_16  and  C_17 
REMARK    8  A    between atoms: C_17  and  C_18 
ROOT
HETATM    1  N           1     -22.131  -5.626  -7.095  0.00  0.00    -0.343 N 
HETATM    2  C           1     -22.214  -4.404  -7.707  0.00  0.00     0.249 C 
HETATM    3  O           1     -21.688  -3.439  -7.206  0.00  0.00    -0.271 OA
HETATM    4  H           1     -22.571  -6.433  -7.515  0.00  0.00     0.163 HD
ENDROOT
BRANCH   2   5
HETATM    5  C           1     -22.963  -4.263  -9.010  0.00  0.00     0.274 C 
BRANCH   5   6
HETATM    6  C           1     -22.123  -3.462  -9.996  0.00  0.00     0.045 C 
BRANCH   6   7
HETATM    7 Se           1     -20.488  -4.440 -10.402  0.00  0.00     0.000 Se
HETATM    8  H           1     -21.175  -5.506 -11.151  0.00  0.00     0.000 HD
ENDBRANCH   6   7
ENDBRANCH   5   6
BRANCH   5   9
HETATM    9  N           1     -24.261  -3.551  -8.766  0.00  0.00    -0.067 N 
HETATM   10  H           1     -24.539  -3.665  -7.765  0.00  0.00     0.275 HD
HETATM   11  H           1     -24.145  -2.534  -8.980  0.00  0.00     0.275 HD
HETATM   12  H           1     -25.001  -3.954  -9.382  0.00  0.00     0.275 HD
ENDBRANCH   5   9
ENDBRANCH   2   5
BRANCH   1  13
HETATM   13  C           1     -21.412  -5.760  -5.843  0.00  0.00     0.209 C 
BRANCH  13  14
HETATM   14  C           1     -22.334  -6.360  -4.790  0.00  0.00     0.200 C 
BRANCH  14  15
HETATM   15  O           1     -21.891  -5.989  -3.513  0.00  0.00    -0.398 OA
HETATM   16  H           1     -21.462  -5.156  -3.603  0.00  0.00     0.209 HD
ENDBRANCH  14  15
ENDBRANCH  13  14
BRANCH  13  17
HETATM   17  C           1     -20.220  -6.665  -6.043  0.00  0.00     0.198 C 
HETATM   18  O           1     -19.915  -7.500  -5.165  0.00  0.00    -0.646 OA
HETATM   19  O           1     -19.538  -6.579  -7.087  0.00  0.00    -0.646 OA
ENDBRANCH  13  17
ENDBRANCH   1  13
TORSDOF 8
ENDMDL
MODEL 4
REMARK VINA RESULT:      -4.1      4.365      6.848
REMARK  8 active torsions:
REMARK  status: ('A' for Active; 'I' for Inactive)
REMARK    1  A    between atoms: N_2  and  C_17 
REMARK       I    between atoms: N_2  and  C_3 
REMARK    2  A    between atoms: C_3  and  C_4 
REMARK    3  A    between atoms: C_4  and  C_5 
REMARK    4  A    between atoms: C_4  and  N_7 
REMARK    5  A    between atoms: C_5  and  Se_6 
REMARK    6  A    between atoms: O_15  and  C_16 
REMARK    7  A    between atoms: C_16  and  C_17 
REMARK    8  A    between atoms: C_17  and  C_18 
ROOT
HETATM    1  N           1     -22.034  -6.129  -4.495  0.00  0.00    -0.343 N 
HETATM    2  C           1     -21.367  -5.464  -5.489  0.00  0.00     0.249 C 
HETATM    3  O           1     -20.204  -5.170  -5.344  0.00  0.00    -0.271 OA
HETATM    4  H           1     -23.006  -6.376  -4.616  0.00  0.00     0.163 HD
ENDROOT
BRANCH   2   5
HETATM    5  C           1     -22.084  -5.100  -6.765  0.00  0.00     0.274 C 
BRANCH   5   6
HETATM    6  C           1     -21.469  -3.836  -7.352  0.00  0.00     0.045 C 
BRANCH   6   7
HETATM    7 Se           1     -20.483  -4.284  -8.971  0.00  0.00     0.000 Se
HETATM    8  H           1     -19.533  -3.166  -8.841  0.00  0.00     0.000 HD
ENDBRANCH   6   7
ENDBRANCH   5   6
BRANCH   5   9
HETATM    9  N           1     -23.535  -4.859  -6.472  0.00  0.00    -0.067 N 
HETATM   10  H           1     -24.097  -5.679  -6.794  0.00  0.00     0.275 HD
HETATM   11  H           1     -23.665  -4.731  -5.443  0.00  0.00     0.275 HD
HETATM   12  H           1     -23.854  -3.999  -6.973  0.00  0.00     0.275 HD
ENDBRANCH   5   9
ENDBRANCH   2   5
BRANCH   1  13
HETATM   13  C           1     -21.344  -6.478  -3.269  0.00  0.00     0.209 C 
BRANCH  13  14
HETATM   14  C           1     -22.229  -6.143  -2.075  0.00  0.00     0.200 C 
BRANCH  14  15
HETATM   15  O           1     -22.265  -7.236  -1.197  0.00  0.00    -0.398 OA
HETATM   16  H           1     -23.167  -7.370  -0.963  0.00  0.00     0.209 HD
ENDBRANCH  14  15
ENDBRANCH  13  14
BRANCH  13  17
HETATM   17  C           1     -21.036  -7.956  -3.268  0.00  0.00     0.198 C 
HETATM   18  O           1     -21.803  -8.755  -3.848  0.00  0.00    -0.646 OA
HETATM   19  O           1     -20.014  -8.381  -2.686  0.00  0.00    -0.646 OA
ENDBRANCH  13  17
ENDBRANCH   1  13
TORSDOF 8
ENDMDL
MODEL 5
REMARK VINA RESULT:      -4.1      3.105      4.427
REMARK  8 active torsions:
REMARK  status: ('A' for Active; 'I' for Inactive)
REMARK    1  A    between atoms: N_2  and  C_17 
REMARK       I    between atoms: N_2  and  C_3 
REMARK    2  A    between atoms: C_3  and  C_4 
REMARK    3  A    between atoms: C_4  and  C_5 
REMARK    4  A    between atoms: C_4  and  N_7 
REMARK    5  A    between atoms: C_5  and  Se_6 
REMARK    6  A    between atoms: O_15  and  C_16 
REMARK    7  A    between atoms: C_16  and  C_17 
REMARK    8  A    between atoms: C_17  and  C_18 
ROOT
HETATM    1  N           1     -21.591  -5.906  -5.614  0.00  0.00    -0.343 N 
HETATM    2  C           1     -21.428  -7.218  -5.259  0.00  0.00     0.249 C 
HETATM    3  O           1     -21.223  -8.053  -6.108  0.00  0.00    -0.271 OA
HETATM    4  H           1     -21.762  -5.208  -4.903  0.00  0.00     0.163 HD
ENDROOT
BRANCH   2   5
HETATM    5  C           1     -21.502  -7.622  -3.807  0.00  0.00     0.274 C 
BRANCH   5   6
HETATM    6  C           1     -21.566  -6.375  -2.934  0.00  0.00     0.045 C 
BRANCH   6   7
HETATM    7 Se           1     -22.234  -6.851  -1.167  0.00  0.00     0.000 Se
HETATM    8  H           1     -23.176  -7.865  -1.669  0.00  0.00     0.000 HD
ENDBRANCH   6   7
ENDBRANCH   5   6
BRANCH   5   9
HETATM    9  N           1     -20.284  -8.420  -3.447  0.00  0.00    -0.067 N 
HETATM   10  H           1     -19.516  -7.773  -3.155  0.00  0.00     0.275 HD
HETATM   11  H           1     -20.513  -9.067  -2.659  0.00  0.00     0.275 HD
HETATM   12  H           1     -19.975  -8.976  -4.276  0.00  0.00     0.275 HD
ENDBRANCH   5   9
ENDBRANCH   2   5
BRANCH   1  13
HETATM   13  C           1     -21.520  -5.520  -7.009  0.00  0.00     0.209 C 
BRANCH  13  14
HETATM   14  C           1     -22.577  -4.461  -7.297  0.00  0.00     0.200 C 
BRANCH  14  15
HETATM   15  O           1     -21.962  -3.207  -7.422  0.00  0.00    -0.398 OA
HETATM   16  H           1     -21.743  -2.922  -6.551  0.00  0.00     0.209 HD
ENDBRANCH  14  15
ENDBRANCH  13  14
BRANCH  13  17
HETATM   17  C           1     -20.151  -4.957  -7.306  0.00  0.00     0.198 C 
HETATM   18  O           1     -19.766  -4.841  -8.489  0.00  0.00    -0.646 OA
HETATM   19  O           1     -19.402  -4.608  -6.368  0.00  0.00    -0.646 OA
ENDBRANCH  13  17
ENDBRANCH   1  13
TORSDOF 8
ENDMDL
MODEL 6
REMARK VINA RESULT:      -4.0      2.119      2.730
REMARK  8 active torsions:
REMARK  status: ('A' for Active; 'I' for Inactive)
REMARK    1  A    between atoms: N_2  and  C_17 
REMARK       I    between atoms: N_2  and  C_3 
REMARK    2  A    between atoms: C_3  and  C_4 
REMARK    3  A    between atoms: C_4  and  C_5 
REMARK    4  A    between atoms: C_4  and  N_7 
REMARK    5  A    between atoms: C_5  and  Se_6 
REMARK    6  A    between atoms: O_15  and  C_16 
REMARK    7  A    between atoms: C_16  and  C_17 
REMARK    8  A    between atoms: C_17  and  C_18 
ROOT
HETATM    1  N           1     -22.414  -4.325  -8.222  0.00  0.00    -0.343 N 
HETATM    2  C           1     -21.678  -5.185  -7.453  0.00  0.00     0.249 C 
HETATM    3  O           1     -21.329  -6.251  -7.903  0.00  0.00    -0.271 OA
HETATM    4  H           1     -22.706  -3.433  -7.845  0.00  0.00     0.163 HD
ENDROOT
BRANCH   2   5
HETATM    5  C           1     -21.303  -4.803  -6.042  0.00  0.00     0.274 C 
BRANCH   5   6
HETATM    6  C           1     -19.789  -4.852  -5.887  0.00  0.00     0.045 C 
BRANCH   6   7
HETATM    7 Se           1     -18.947  -4.194  -7.517  0.00  0.00     0.000 Se
HETATM    8  H           1     -19.149  -2.774  -7.186  0.00  0.00     0.000 HD
ENDBRANCH   6   7
ENDBRANCH   5   6
BRANCH   5   9
HETATM    9  N           1     -21.934  -5.764  -5.079  0.00  0.00    -0.067 N 
HETATM   10  H           1     -22.502  -6.465  -5.607  0.00  0.00     0.275 HD
HETATM   11  H           1     -21.187  -6.257  -4.540  0.00  0.00     0.275 HD
HETATM   12  H           1     -22.552  -5.240  -4.419  0.00  0.00     0.275 HD
ENDBRANCH   5   9
ENDBRANCH   2   5
BRANCH   1  13
HETATM   13  C           1     -22.775  -4.693  -9.577  0.00  0.00     0.209 C 
BRANCH  13  14
HETATM   14  C           1     -24.235  -4.338  -9.828  0.00  0.00     0.200 C 
BRANCH  14  15
HETATM   15  O           1     -24.594  -3.243  -9.029  0.00  0.00    -0.398 OA
HETATM   16  H           1     -24.152  -2.490  -9.381  0.00  0.00     0.209 HD
ENDBRANCH  14  15
ENDBRANCH  13  14
BRANCH  13  17
HETATM   17  C           1     -21.900  -3.943 -10.552  0.00  0.00     0.198 C 
HETATM   18  O           1     -22.344  -2.937 -11.145  0.00  0.00    -0.646 OA
HETATM   19  O           1     -20.730  -4.330 -10.767  0.00  0.00    -0.646 OA
ENDBRANCH  13  17
ENDBRANCH   1  13
TORSDOF 8
ENDMDL
MODEL 7
REMARK VINA RESULT:      -3.8      3.188      5.527
REMARK  8 active torsions:
REMARK  status: ('A' for Active; 'I' for Inactive)
REMARK    1  A    between atoms: N_2  and  C_17 
REMARK       I    between atoms: N_2  and  C_3 
REMARK    2  A    between atoms: C_3  and  C_4 
REMARK    3  A    between atoms: C_4  and  C_5 
REMARK    4  A    between atoms: C_4  and  N_7 
REMARK    5  A    between atoms: C_5  and  Se_6 
REMARK    6  A    between atoms: O_15  and  C_16 
REMARK    7  A    between atoms: C_16  and  C_17 
REMARK    8  A    between atoms: C_17  and  C_18 
ROOT
HETATM    1  N           1     -21.456  -5.391  -6.995  0.00  0.00    -0.343 N 
HETATM    2  C           1     -22.445  -4.555  -7.438  0.00  0.00     0.249 C 
HETATM    3  O           1     -23.489  -4.480  -6.834  0.00  0.00    -0.271 OA
HETATM    4  H           1     -20.583  -5.453  -7.500  0.00  0.00     0.163 HD
ENDROOT
BRANCH   2   5
HETATM    5  C           1     -22.232  -3.725  -8.680  0.00  0.00     0.274 C 
BRANCH   5   6
HETATM    6  C           1     -23.557  -3.552  -9.410  0.00  0.00     0.045 C 
BRANCH   6   7
HETATM    7 Se           1     -23.749  -4.952 -10.751  0.00  0.00     0.000 Se
HETATM    8  H           1     -25.220  -4.920 -10.742  0.00  0.00     0.000 HD
ENDBRANCH   6   7
ENDBRANCH   5   6
BRANCH   5   9
HETATM    9  N           1     -21.253  -4.418  -9.581  0.00  0.00    -0.067 N 
HETATM   10  H           1     -20.453  -4.781  -9.015  0.00  0.00     0.275 HD
HETATM   11  H           1     -21.728  -5.214 -10.064  0.00  0.00     0.275 HD
HETATM   12  H           1     -20.897  -3.742 -10.294  0.00  0.00     0.275 HD
ENDBRANCH   5   9
ENDBRANCH   2   5
BRANCH   1  13
HETATM   13  C           1     -21.663  -6.188  -5.802  0.00  0.00     0.209 C 
BRANCH  13  14
HETATM   14  C           1     -21.059  -7.572  -6.005  0.00  0.00     0.200 C 
BRANCH  14  15
HETATM   15  O           1     -19.887  -7.688  -5.244  0.00  0.00    -0.398 OA
HETATM   16  H           1     -19.324  -6.977  -5.497  0.00  0.00     0.209 HD
ENDBRANCH  14  15
ENDBRANCH  13  14
BRANCH  13  17
HETATM   17  C           1     -20.995  -5.516  -4.626  0.00  0.00     0.198 C 
HETATM   18  O           1     -21.372  -5.772  -3.463  0.00  0.00    -0.646 OA
HETATM   19  O           1     -20.065  -4.703  -4.818  0.00  0.00    -0.646 OA
ENDBRANCH  13  17
ENDBRANCH   1  13
TORSDOF 8
ENDMDL
MODEL 8
REMARK VINA RESULT:      -3.8      3.103      5.347
REMARK  8 active torsions:
REMARK  status: ('A' for Active; 'I' for Inactive)
REMARK    1  A    between atoms: N_2  and  C_17 
REMARK       I    between atoms: N_2  and  C_3 
REMARK    2  A    between atoms: C_3  and  C_4 
REMARK    3  A    between atoms: C_4  and  C_5 
REMARK    4  A    between atoms: C_4  and  N_7 
REMARK    5  A    between atoms: C_5  and  Se_6 
REMARK    6  A    between atoms: O_15  and  C_16 
REMARK    7  A    between atoms: C_16  and  C_17 
REMARK    8  A    between atoms: C_17  and  C_18 
ROOT
HETATM    1  N           1     -21.760  -5.233  -8.183  0.00  0.00    -0.343 N 
HETATM    2  C           1     -22.964  -4.603  -8.344  0.00  0.00     0.249 C 
HETATM    3  O           1     -23.534  -4.135  -7.387  0.00  0.00    -0.271 OA
HETATM    4  H           1     -21.282  -5.623  -8.985  0.00  0.00     0.163 HD
ENDROOT
BRANCH   2   5
HETATM    5  C           1     -23.580  -4.491  -9.717  0.00  0.00     0.274 C 
BRANCH   5   6
HETATM    6  C           1     -22.903  -3.366 -10.489  0.00  0.00     0.045 C 
BRANCH   6   7
HETATM    7 Se           1     -21.537  -4.110 -11.661  0.00  0.00     0.000 Se
HETATM    8  H           1     -20.524  -4.226 -10.598  0.00  0.00     0.000 HD
ENDBRANCH   6   7
ENDBRANCH   5   6
BRANCH   5   9
HETATM    9  N           1     -25.045  -4.196  -9.586  0.00  0.00    -0.067 N 
HETATM   10  H           1     -25.331  -3.512 -10.323  0.00  0.00     0.275 HD
HETATM   11  H           1     -25.590  -5.080  -9.701  0.00  0.00     0.275 HD
HETATM   12  H           1     -25.235  -3.791  -8.641  0.00  0.00     0.275 HD
ENDBRANCH   5   9
ENDBRANCH   2   5
BRANCH   1  13
HETATM   13  C           1     -21.169  -5.340  -6.864  0.00  0.00     0.209 C 
BRANCH  13  14
HETATM   14  C           1     -21.810  -6.500  -6.113  0.00  0.00     0.200 C 
BRANCH  14  15
HETATM   15  O           1     -22.683  -6.001  -5.136  0.00  0.00    -0.398 OA
HETATM   16  H           1     -23.437  -6.564  -5.129  0.00  0.00     0.209 HD
ENDBRANCH  14  15
ENDBRANCH  13  14
BRANCH  13  17
HETATM   17  C           1     -19.685  -5.584  -6.994  0.00  0.00     0.198 C 
HETATM   18  O           1     -18.911  -4.628  -7.217  0.00  0.00    -0.646 OA
HETATM   19  O           1     -19.231  -6.743  -6.881  0.00  0.00    -0.646 OA
ENDBRANCH  13  17
ENDBRANCH   1  13
TORSDOF 8
ENDMDL
MODEL 9
REMARK VINA RESULT:      -3.8      3.927      6.216
REMARK  8 active torsions:
REMARK  status: ('A' for Active; 'I' for Inactive)
REMARK    1  A    between atoms: N_2  and  C_17 
REMARK       I    between atoms: N_2  and  C_3 
REMARK    2  A    between atoms: C_3  and  C_4 
REMARK    3  A    between atoms: C_4  and  C_5 
REMARK    4  A    between atoms: C_4  and  N_7 
REMARK    5  A    between atoms: C_5  and  Se_6 
REMARK    6  A    between atoms: O_15  and  C_16 
REMARK    7  A    between atoms: C_16  and  C_17 
REMARK    8  A    between atoms: C_17  and  C_18 
ROOT
HETATM    1  N           1     -20.859  -5.793  -4.973  0.00  0.00    -0.343 N 
HETATM    2  C           1     -20.873  -5.647  -6.334  0.00  0.00     0.249 C 
HETATM    3  O           1     -21.201  -6.573  -7.038  0.00  0.00    -0.271 OA
HETATM    4  H           1     -20.585  -5.018  -4.384  0.00  0.00     0.163 HD
ENDROOT
BRANCH   2   5
HETATM    5  C           1     -20.479  -4.330  -6.955  0.00  0.00     0.274 C 
BRANCH   5   6
HETATM    6  C           1     -21.496  -3.946  -8.022  0.00  0.00     0.045 C 
BRANCH   6   7
HETATM    7 Se           1     -20.720  -4.221  -9.788  0.00  0.00     0.000 Se
HETATM    8  H           1     -21.225  -5.597  -9.923  0.00  0.00     0.000 HD
ENDBRANCH   6   7
ENDBRANCH   5   6
BRANCH   5   9
HETATM    9  N           1     -19.122  -4.458  -7.582  0.00  0.00    -0.067 N 
HETATM   10  H           1     -18.454  -3.813  -7.104  0.00  0.00     0.275 HD
HETATM   11  H           1     -18.786  -5.443  -7.484  0.00  0.00     0.275 HD
HETATM   12  H           1     -19.182  -4.211  -8.596  0.00  0.00     0.275 HD
ENDBRANCH   5   9
ENDBRANCH   2   5
BRANCH   1  13
HETATM   13  C           1     -21.237  -7.060  -4.377  0.00  0.00     0.209 C 
BRANCH  13  14
HETATM   14  C           1     -20.075  -8.039  -4.485  0.00  0.00     0.200 C 
BRANCH  14  15
HETATM   15  O           1     -20.342  -8.973  -5.496  0.00  0.00    -0.398 OA
HETATM   16  H           1     -20.464  -8.487  -6.293  0.00  0.00     0.209 HD
ENDBRANCH  14  15
ENDBRANCH  13  14
BRANCH  13  17
HETATM   17  C           1     -21.582  -6.848  -2.923  0.00  0.00     0.198 C 
HETATM   18  O           1     -21.029  -7.540  -2.041  0.00  0.00    -0.646 OA
HETATM   19  O           1     -22.423  -5.981  -2.600  0.00  0.00    -0.646 OA
ENDBRANCH  13  17
ENDBRANCH   1  13
TORSDOF 8
ENDMDL
