MODEL 1
REMARK VINA RESULT:      -7.4      0.000      0.000
REMARK  9 active torsions:
REMARK  status: ('A' for Active; 'I' for Inactive)
REMARK    1  A    between atoms: C_2  and  C_3 
REMARK    2  A    between atoms: C_2  and  C_17 
REMARK    3  A    between atoms: C_3  and  C_4 
REMARK    4  A    between atoms: C_3  and  N_22 
REMARK       I    between atoms: C_4  and  N_5 
REMARK    5  A    between atoms: N_5  and  C_15 
REMARK    6  A    between atoms: C_8  and  C_15 
REMARK    7  A    between atoms: C_9  and  O_11 
REMARK    8  A    between atoms: C_15  and  C_25 
REMARK    9  A    between atoms: C_24  and  C_25 
ROOT
HETATM    1  C           1     -22.201  -5.405  -6.876  0.00  0.00     0.278 C 
ENDROOT
BRANCH   1   2
HETATM    2  C           1     -21.558  -4.093  -7.307  0.00  0.00     0.081 C 
BRANCH   2   3
HETATM    3  C           1     -21.581  -3.992  -8.801  0.00  0.00    -0.056 A 
HETATM    4  C           1     -20.404  -4.166  -9.529  0.00  0.00     0.010 A 
HETATM    5  C           1     -20.424  -4.073 -10.921  0.00  0.00     0.037 A 
HETATM    6  C           1     -21.622  -3.806 -11.583  0.00  0.00     0.065 A 
HETATM    7  C           1     -22.799  -3.632 -10.855  0.00  0.00     0.037 A 
HETATM    8  C           1     -22.779  -3.726  -9.464  0.00  0.00     0.010 A 
BRANCH   6   9
HETATM    9  O           1     -21.643  -3.715 -12.936  0.00  0.00    -0.361 OA
HETATM   10  H           1     -22.544  -3.471 -13.206  0.00  0.00     0.217 HD
ENDBRANCH   6   9
ENDBRANCH   2   3
ENDBRANCH   1   2
BRANCH   1  11
HETATM   11  C           1     -21.229  -6.188  -6.028  0.00  0.00     0.249 C 
HETATM   12  O           1     -20.041  -6.003  -6.146  0.00  0.00    -0.271 OA
HETATM   13  N           1     -21.692  -7.108  -5.128  0.00  0.00    -0.344 N 
HETATM   14  H           1     -22.688  -7.263  -5.030  0.00  0.00     0.163 HD
BRANCH  13  15
HETATM   15  C           1     -20.758  -7.861  -4.314  0.00  0.00     0.189 C 
BRANCH  15  16
HETATM   16  C           1     -20.598  -9.249  -4.885  0.00  0.00     0.197 C 
HETATM   17  O           1     -21.446 -10.131  -4.630  0.00  0.00    -0.646 OA
HETATM   18  O           1     -19.620  -9.515  -5.615  0.00  0.00    -0.646 OA
ENDBRANCH  15  16
BRANCH  15  19
HETATM   19  C           1     -21.287  -7.958  -2.890  0.00  0.00     0.014 C 
HETATM   20  C           1     -20.152  -8.341  -1.950  0.00  0.00     0.012 C 
BRANCH  19  21
HETATM   21  C           1     -21.862  -6.612  -2.468  0.00  0.00     0.002 C 
HETATM   22  C           1     -22.350  -6.696  -1.028  0.00  0.00     0.005 C 
ENDBRANCH  19  21
ENDBRANCH  15  19
ENDBRANCH  13  15
ENDBRANCH   1  11
BRANCH   1  23
HETATM   23  N           1     -23.439  -5.116  -6.079  0.00  0.00    -0.066 N 
HETATM   24  H           1     -23.503  -4.089  -5.897  0.00  0.00     0.275 HD
HETATM   25  H           1     -23.394  -5.630  -5.170  0.00  0.00     0.275 HD
HETATM   26  H           1     -24.279  -5.428  -6.614  0.00  0.00     0.275 HD
ENDBRANCH   1  23
TORSDOF 9
ENDMDL
MODEL 2
REMARK VINA RESULT:      -7.4     13.570     14.802
REMARK  9 active torsions:
REMARK  status: ('A' for Active; 'I' for Inactive)
REMARK    1  A    between atoms: C_2  and  C_3 
REMARK    2  A    between atoms: C_2  and  C_17 
REMARK    3  A    between atoms: C_3  and  C_4 
REMARK    4  A    between atoms: C_3  and  N_22 
REMARK       I    between atoms: C_4  and  N_5 
REMARK    5  A    between atoms: N_5  and  C_15 
REMARK    6  A    between atoms: C_8  and  C_15 
REMARK    7  A    between atoms: C_9  and  O_11 
REMARK    8  A    between atoms: C_15  and  C_25 
REMARK    9  A    between atoms: C_24  and  C_25 
ROOT
HETATM    1  C           1     -32.983  -4.494 -16.635  0.00  0.00     0.278 C 
ENDROOT
BRANCH   1   2
HETATM    2  C           1     -31.532  -4.475 -16.174  0.00  0.00     0.081 C 
BRANCH   2   3
HETATM    3  C           1     -30.713  -5.364 -17.058  0.00  0.00    -0.056 A 
HETATM    4  C           1     -31.132  -6.669 -17.313  0.00  0.00     0.010 A 
HETATM    5  C           1     -30.371  -7.498 -18.138  0.00  0.00     0.037 A 
HETATM    6  C           1     -29.191  -7.019 -18.708  0.00  0.00     0.065 A 
HETATM    7  C           1     -28.773  -5.713 -18.454  0.00  0.00     0.037 A 
HETATM    8  C           1     -29.534  -4.885 -17.629  0.00  0.00     0.010 A 
BRANCH   6   9
HETATM    9  O           1     -28.451  -7.824 -19.510  0.00  0.00    -0.361 OA
HETATM   10  H           1     -28.459  -8.717 -19.128  0.00  0.00     0.217 HD
ENDBRANCH   6   9
ENDBRANCH   2   3
ENDBRANCH   1   2
BRANCH   1  11
HETATM   11  C           1     -33.894  -4.512 -15.433  0.00  0.00     0.249 C 
HETATM   12  O           1     -35.019  -4.942 -15.534  0.00  0.00    -0.271 OA
HETATM   13  N           1     -33.447  -4.041 -14.228  0.00  0.00    -0.344 N 
HETATM   14  H           1     -32.505  -3.681 -14.144  0.00  0.00     0.163 HD
BRANCH  13  15
HETATM   15  C           1     -34.323  -4.059 -13.072  0.00  0.00     0.189 C 
BRANCH  15  16
HETATM   16  C           1     -34.982  -2.709 -12.921  0.00  0.00     0.197 C 
HETATM   17  O           1     -34.715  -1.789 -13.723  0.00  0.00    -0.646 OA
HETATM   18  O           1     -35.796  -2.513 -11.993  0.00  0.00    -0.646 OA
ENDBRANCH  15  16
BRANCH  15  19
HETATM   19  C           1     -33.510  -4.368 -11.823  0.00  0.00     0.014 C 
HETATM   20  C           1     -32.874  -3.087 -11.301  0.00  0.00     0.012 C 
BRANCH  19  21
HETATM   21  C           1     -34.423  -4.953 -10.754  0.00  0.00     0.002 C 
HETATM   22  C           1     -34.215  -6.459 -10.674  0.00  0.00     0.005 C 
ENDBRANCH  19  21
ENDBRANCH  15  19
ENDBRANCH  13  15
ENDBRANCH   1  11
BRANCH   1  23
HETATM   23  N           1     -33.262  -3.269 -17.455  0.00  0.00    -0.066 N 
HETATM   24  H           1     -33.838  -2.600 -16.896  0.00  0.00     0.275 HD
HETATM   25  H           1     -33.783  -3.541 -18.320  0.00  0.00     0.275 HD
HETATM   26  H           1     -32.360  -2.814 -17.721  0.00  0.00     0.275 HD
ENDBRANCH   1  23
TORSDOF 9
ENDMDL
MODEL 3
REMARK VINA RESULT:      -6.9      1.927      2.652
REMARK  9 active torsions:
REMARK  status: ('A' for Active; 'I' for Inactive)
REMARK    1  A    between atoms: C_2  and  C_3 
REMARK    2  A    between atoms: C_2  and  C_17 
REMARK    3  A    between atoms: C_3  and  C_4 
REMARK    4  A    between atoms: C_3  and  N_22 
REMARK       I    between atoms: C_4  and  N_5 
REMARK    5  A    between atoms: N_5  and  C_15 
REMARK    6  A    between atoms: C_8  and  C_15 
REMARK    7  A    between atoms: C_9  and  O_11 
REMARK    8  A    between atoms: C_15  and  C_25 
REMARK    9  A    between atoms: C_24  and  C_25 
ROOT
HETATM    1  C           1     -20.428  -5.192  -6.419  0.00  0.00     0.278 C 
ENDROOT
BRANCH   1   2
HETATM    2  C           1     -21.181  -3.959  -6.900  0.00  0.00     0.081 C 
BRANCH   2   3
HETATM    3  C           1     -21.452  -4.079  -8.368  0.00  0.00    -0.056 A 
HETATM    4  C           1     -20.416  -3.903  -9.285  0.00  0.00     0.010 A 
HETATM    5  C           1     -20.668  -4.016 -10.653  0.00  0.00     0.037 A 
HETATM    6  C           1     -21.956  -4.306 -11.102  0.00  0.00     0.065 A 
HETATM    7  C           1     -22.992  -4.484 -10.184  0.00  0.00     0.037 A 
HETATM    8  C           1     -22.740  -4.371  -8.817  0.00  0.00     0.010 A 
BRANCH   6   9
HETATM    9  O           1     -22.202  -4.416 -12.431  0.00  0.00    -0.361 OA
HETATM   10  H           1     -22.056  -3.546 -12.836  0.00  0.00     0.217 HD
ENDBRANCH   6   9
ENDBRANCH   2   3
ENDBRANCH   1   2
BRANCH   1  11
HETATM   11  C           1     -21.302  -5.978  -5.473  0.00  0.00     0.249 C 
HETATM   12  O           1     -22.503  -5.856  -5.518  0.00  0.00    -0.271 OA
HETATM   13  N           1     -20.734  -6.830  -4.564  0.00  0.00    -0.344 N 
HETATM   14  H           1     -19.728  -6.932  -4.526  0.00  0.00     0.163 HD
BRANCH  13  15
HETATM   15  C           1     -21.574  -7.585  -3.655  0.00  0.00     0.189 C 
BRANCH  15  16
HETATM   16  C           1     -21.623  -6.886  -2.318  0.00  0.00     0.197 C 
HETATM   17  O           1     -21.018  -7.370  -1.337  0.00  0.00    -0.646 OA
HETATM   18  O           1     -22.267  -5.823  -2.192  0.00  0.00    -0.646 OA
ENDBRANCH  15  16
BRANCH  15  19
HETATM   19  C           1     -20.999  -8.983  -3.474  0.00  0.00     0.014 C 
HETATM   20  C           1     -21.944 -10.005  -4.094  0.00  0.00     0.012 C 
BRANCH  19  21
HETATM   21  C           1     -19.642  -9.067  -4.160  0.00  0.00     0.002 C 
HETATM   22  C           1     -18.566  -9.363  -3.123  0.00  0.00     0.005 C 
ENDBRANCH  19  21
ENDBRANCH  15  19
ENDBRANCH  13  15
ENDBRANCH   1  11
BRANCH   1  23
HETATM   23  N           1     -20.068  -6.049  -7.596  0.00  0.00    -0.066 N 
HETATM   24  H           1     -19.436  -5.515  -8.234  0.00  0.00     0.275 HD
HETATM   25  H           1     -20.938  -6.316  -8.110  0.00  0.00     0.275 HD
HETATM   26  H           1     -19.581  -6.911  -7.264  0.00  0.00     0.275 HD
ENDBRANCH   1  23
TORSDOF 9
ENDMDL
MODEL 4
REMARK VINA RESULT:      -6.8     13.660     15.917
REMARK  9 active torsions:
REMARK  status: ('A' for Active; 'I' for Inactive)
REMARK    1  A    between atoms: C_2  and  C_3 
REMARK    2  A    between atoms: C_2  and  C_17 
REMARK    3  A    between atoms: C_3  and  C_4 
REMARK    4  A    between atoms: C_3  and  N_22 
REMARK       I    between atoms: C_4  and  N_5 
REMARK    5  A    between atoms: N_5  and  C_15 
REMARK    6  A    between atoms: C_8  and  C_15 
REMARK    7  A    between atoms: C_9  and  O_11 
REMARK    8  A    between atoms: C_15  and  C_25 
REMARK    9  A    between atoms: C_24  and  C_25 
ROOT
HETATM    1  C           1     -36.691  -0.834 -10.952  0.00  0.00     0.278 C 
ENDROOT
BRANCH   1   2
HETATM    2  C           1     -36.205   0.371 -11.747  0.00  0.00     0.081 C 
BRANCH   2   3
HETATM    3  C           1     -36.331   0.087 -13.212  0.00  0.00    -0.056 A 
HETATM    4  C           1     -37.592  -0.069 -13.786  0.00  0.00     0.010 A 
HETATM    5  C           1     -37.710  -0.333 -15.151  0.00  0.00     0.037 A 
HETATM    6  C           1     -36.566  -0.440 -15.941  0.00  0.00     0.065 A 
HETATM    7  C           1     -35.304  -0.283 -15.367  0.00  0.00     0.037 A 
HETATM    8  C           1     -35.186  -0.019 -14.003  0.00  0.00     0.010 A 
BRANCH   6   9
HETATM    9  O           1     -36.679  -0.696 -17.268  0.00  0.00    -0.361 OA
HETATM   10  H           1     -37.258  -1.469 -17.375  0.00  0.00     0.217 HD
ENDBRANCH   6   9
ENDBRANCH   2   3
ENDBRANCH   1   2
BRANCH   1  11
HETATM   11  C           1     -35.546  -1.794 -10.742  0.00  0.00     0.249 C 
HETATM   12  O           1     -34.576  -1.447 -10.112  0.00  0.00    -0.271 OA
HETATM   13  N           1     -35.608  -3.057 -11.265  0.00  0.00    -0.344 N 
HETATM   14  H           1     -36.421  -3.347 -11.792  0.00  0.00     0.163 HD
BRANCH  13  15
HETATM   15  C           1     -34.507  -3.980 -11.062  0.00  0.00     0.189 C 
BRANCH  15  16
HETATM   16  C           1     -33.523  -3.844 -12.198  0.00  0.00     0.197 C 
HETATM   17  O           1     -32.331  -4.185 -12.037  0.00  0.00    -0.646 OA
HETATM   18  O           1     -33.900  -3.393 -13.301  0.00  0.00    -0.646 OA
ENDBRANCH  15  16
BRANCH  15  19
HETATM   19  C           1     -35.040  -5.406 -11.022  0.00  0.00     0.014 C 
HETATM   20  C           1     -35.086  -5.971 -12.436  0.00  0.00     0.012 C 
BRANCH  19  21
HETATM   21  C           1     -34.125  -6.266 -10.162  0.00  0.00     0.002 C 
HETATM   22  C           1     -34.720  -7.661 -10.024  0.00  0.00     0.005 C 
ENDBRANCH  19  21
ENDBRANCH  15  19
ENDBRANCH  13  15
ENDBRANCH   1  11
BRANCH   1  23
HETATM   23  N           1     -37.211  -0.377  -9.622  0.00  0.00    -0.066 N 
HETATM   24  H           1     -36.664  -0.835  -8.858  0.00  0.00     0.275 HD
HETATM   25  H           1     -38.220  -0.638  -9.534  0.00  0.00     0.275 HD
HETATM   26  H           1     -37.113   0.661  -9.546  0.00  0.00     0.275 HD
ENDBRANCH   1  23
TORSDOF 9
ENDMDL
MODEL 5
REMARK VINA RESULT:      -6.5     13.660     17.409
REMARK  9 active torsions:
REMARK  status: ('A' for Active; 'I' for Inactive)
REMARK    1  A    between atoms: C_2  and  C_3 
REMARK    2  A    between atoms: C_2  and  C_17 
REMARK    3  A    between atoms: C_3  and  C_4 
REMARK    4  A    between atoms: C_3  and  N_22 
REMARK       I    between atoms: C_4  and  N_5 
REMARK    5  A    between atoms: N_5  and  C_15 
REMARK    6  A    between atoms: C_8  and  C_15 
REMARK    7  A    between atoms: C_9  and  O_11 
REMARK    8  A    between atoms: C_15  and  C_25 
REMARK    9  A    between atoms: C_24  and  C_25 
ROOT
HETATM    1  C           1     -35.615  -0.408 -11.504  0.00  0.00     0.278 C 
ENDROOT
BRANCH   1   2
HETATM    2  C           1     -35.883  -1.532 -10.511  0.00  0.00     0.081 C 
BRANCH   2   3
HETATM    3  C           1     -34.994  -2.697 -10.823  0.00  0.00    -0.056 A 
HETATM    4  C           1     -35.512  -3.991 -10.805  0.00  0.00     0.010 A 
HETATM    5  C           1     -34.685  -5.077 -11.096  0.00  0.00     0.037 A 
HETATM    6  C           1     -33.341  -4.866 -11.405  0.00  0.00     0.065 A 
HETATM    7  C           1     -32.824  -3.570 -11.423  0.00  0.00     0.037 A 
HETATM    8  C           1     -33.651  -2.486 -11.132  0.00  0.00     0.010 A 
BRANCH   6   9
HETATM    9  O           1     -32.537  -5.921 -11.688  0.00  0.00    -0.361 OA
HETATM   10  H           1     -32.999  -6.487 -12.328  0.00  0.00     0.217 HD
ENDBRANCH   6   9
ENDBRANCH   2   3
ENDBRANCH   1   2
BRANCH   1  11
HETATM   11  C           1     -36.316  -0.708 -12.806  0.00  0.00     0.249 C 
HETATM   12  O           1     -37.498  -0.954 -12.812  0.00  0.00    -0.271 OA
HETATM   13  N           1     -35.611  -0.703 -13.979  0.00  0.00    -0.344 N 
HETATM   14  H           1     -34.620  -0.498 -13.973  0.00  0.00     0.163 HD
BRANCH  13  15
HETATM   15  C           1     -36.285  -0.992 -15.230  0.00  0.00     0.189 C 
BRANCH  15  16
HETATM   16  C           1     -35.381  -1.824 -16.107  0.00  0.00     0.197 C 
HETATM   17  O           1     -34.760  -2.794 -15.622  0.00  0.00    -0.646 OA
HETATM   18  O           1     -35.255  -1.544 -17.318  0.00  0.00    -0.646 OA
ENDBRANCH  15  16
BRANCH  15  19
HETATM   19  C           1     -36.617   0.313 -15.941  0.00  0.00     0.014 C 
HETATM   20  C           1     -38.074   0.674 -15.685  0.00  0.00     0.012 C 
BRANCH  19  21
HETATM   21  C           1     -35.719   1.423 -15.413  0.00  0.00     0.002 C 
HETATM   22  C           1     -36.002   2.712 -16.174  0.00  0.00     0.005 C 
ENDBRANCH  19  21
ENDBRANCH  15  19
ENDBRANCH  13  15
ENDBRANCH   1  11
BRANCH   1  23
HETATM   23  N           1     -36.131   0.885 -10.945  0.00  0.00    -0.066 N 
HETATM   24  H           1     -35.799   0.996  -9.961  0.00  0.00     0.275 HD
HETATM   25  H           1     -37.176   0.878 -10.962  0.00  0.00     0.275 HD
HETATM   26  H           1     -35.779   1.680 -11.523  0.00  0.00     0.275 HD
ENDBRANCH   1  23
TORSDOF 9
ENDMDL
MODEL 6
REMARK VINA RESULT:      -6.4      1.490      1.986
REMARK  9 active torsions:
REMARK  status: ('A' for Active; 'I' for Inactive)
REMARK    1  A    between atoms: C_2  and  C_3 
REMARK    2  A    between atoms: C_2  and  C_17 
REMARK    3  A    between atoms: C_3  and  C_4 
REMARK    4  A    between atoms: C_3  and  N_22 
REMARK       I    between atoms: C_4  and  N_5 
REMARK    5  A    between atoms: N_5  and  C_15 
REMARK    6  A    between atoms: C_8  and  C_15 
REMARK    7  A    between atoms: C_9  and  O_11 
REMARK    8  A    between atoms: C_15  and  C_25 
REMARK    9  A    between atoms: C_24  and  C_25 
ROOT
HETATM    1  C           1     -21.447  -6.361  -5.628  0.00  0.00     0.278 C 
ENDROOT
BRANCH   1   2
HETATM    2  C           1     -20.528  -5.236  -6.086  0.00  0.00     0.081 C 
BRANCH   2   3
HETATM    3  C           1     -20.969  -4.744  -7.429  0.00  0.00    -0.056 A 
HETATM    4  C           1     -20.090  -4.789  -8.511  0.00  0.00     0.010 A 
HETATM    5  C           1     -20.501  -4.332  -9.764  0.00  0.00     0.037 A 
HETATM    6  C           1     -21.792  -3.830  -9.933  0.00  0.00     0.065 A 
HETATM    7  C           1     -22.671  -3.786  -8.851  0.00  0.00     0.037 A 
HETATM    8  C           1     -22.260  -4.244  -7.599  0.00  0.00     0.010 A 
BRANCH   6   9
HETATM    9  O           1     -22.192  -3.385 -11.149  0.00  0.00    -0.361 OA
HETATM   10  H           1     -23.141  -3.573 -11.240  0.00  0.00     0.217 HD
ENDBRANCH   6   9
ENDBRANCH   2   3
ENDBRANCH   1   2
BRANCH   1  11
HETATM   11  C           1     -20.631  -7.600  -5.356  0.00  0.00     0.249 C 
HETATM   12  O           1     -19.647  -7.833  -6.018  0.00  0.00    -0.271 OA
HETATM   13  N           1     -21.004  -8.461  -4.359  0.00  0.00    -0.344 N 
HETATM   14  H           1     -21.829  -8.266  -3.805  0.00  0.00     0.163 HD
BRANCH  13  15
HETATM   15  C           1     -20.219  -9.652  -4.097  0.00  0.00     0.189 C 
BRANCH  15  16
HETATM   16  C           1     -21.116 -10.865  -4.144  0.00  0.00     0.197 C 
HETATM   17  O           1     -22.323 -10.763  -3.835  0.00  0.00    -0.646 OA
HETATM   18  O           1     -20.652 -11.971  -4.494  0.00  0.00    -0.646 OA
ENDBRANCH  15  16
BRANCH  15  19
HETATM   19  C           1     -19.582  -9.547  -2.719  0.00  0.00     0.014 C 
HETATM   20  C           1     -18.074  -9.392  -2.867  0.00  0.00     0.012 C 
BRANCH  19  21
HETATM   21  C           1     -20.147  -8.336  -1.988  0.00  0.00     0.002 C 
HETATM   22  C           1     -20.990  -8.803  -0.808  0.00  0.00     0.005 C 
ENDBRANCH  19  21
ENDBRANCH  15  19
ENDBRANCH  13  15
ENDBRANCH   1  11
BRANCH   1  23
HETATM   23  N           1     -22.159  -5.946  -4.375  0.00  0.00    -0.066 N 
HETATM   24  H           1     -23.147  -5.693  -4.604  0.00  0.00     0.275 HD
HETATM   25  H           1     -21.674  -5.119  -3.958  0.00  0.00     0.275 HD
HETATM   26  H           1     -22.151  -6.735  -3.691  0.00  0.00     0.275 HD
ENDBRANCH   1  23
TORSDOF 9
ENDMDL
MODEL 7
REMARK VINA RESULT:      -6.3     12.456     14.629
REMARK  9 active torsions:
REMARK  status: ('A' for Active; 'I' for Inactive)
REMARK    1  A    between atoms: C_2  and  C_3 
REMARK    2  A    between atoms: C_2  and  C_17 
REMARK    3  A    between atoms: C_3  and  C_4 
REMARK    4  A    between atoms: C_3  and  N_22 
REMARK       I    between atoms: C_4  and  N_5 
REMARK    5  A    between atoms: N_5  and  C_15 
REMARK    6  A    between atoms: C_8  and  C_15 
REMARK    7  A    between atoms: C_9  and  O_11 
REMARK    8  A    between atoms: C_15  and  C_25 
REMARK    9  A    between atoms: C_24  and  C_25 
ROOT
HETATM    1  C           1     -32.897  -5.340 -16.133  0.00  0.00     0.278 C 
ENDROOT
BRANCH   1   2
HETATM    2  C           1     -32.196  -4.254 -16.939  0.00  0.00     0.081 C 
BRANCH   2   3
HETATM    3  C           1     -30.714  -4.444 -16.851  0.00  0.00    -0.056 A 
HETATM    4  C           1     -29.855  -3.474 -17.368  0.00  0.00     0.010 A 
HETATM    5  C           1     -28.474  -3.649 -17.286  0.00  0.00     0.037 A 
HETATM    6  C           1     -27.952  -4.796 -16.688  0.00  0.00     0.065 A 
HETATM    7  C           1     -28.810  -5.766 -16.171  0.00  0.00     0.037 A 
HETATM    8  C           1     -30.191  -5.590 -16.252  0.00  0.00     0.010 A 
BRANCH   6   9
HETATM    9  O           1     -26.609  -4.968 -16.608  0.00  0.00    -0.361 OA
HETATM   10  H           1     -26.398  -5.850 -16.957  0.00  0.00     0.217 HD
ENDBRANCH   6   9
ENDBRANCH   2   3
ENDBRANCH   1   2
BRANCH   1  11
HETATM   11  C           1     -33.958  -4.715 -15.260  0.00  0.00     0.249 C 
HETATM   12  O           1     -35.125  -4.849 -15.540  0.00  0.00    -0.271 OA
HETATM   13  N           1     -33.597  -3.997 -14.153  0.00  0.00    -0.344 N 
HETATM   14  H           1     -32.619  -3.884 -13.919  0.00  0.00     0.163 HD
BRANCH  13  15
HETATM   15  C           1     -34.617  -3.396 -13.315  0.00  0.00     0.189 C 
BRANCH  15  16
HETATM   16  C           1     -34.799  -1.949 -13.704  0.00  0.00     0.197 C 
HETATM   17  O           1     -34.546  -1.044 -12.880  0.00  0.00    -0.646 OA
HETATM   18  O           1     -35.201  -1.657 -14.850  0.00  0.00    -0.646 OA
ENDBRANCH  15  16
BRANCH  15  19
HETATM   19  C           1     -34.189  -3.478 -11.856  0.00  0.00     0.014 C 
HETATM   20  C           1     -35.362  -3.952 -11.008  0.00  0.00     0.012 C 
BRANCH  19  21
HETATM   21  C           1     -33.034  -4.461 -11.719  0.00  0.00     0.002 C 
HETATM   22  C           1     -33.530  -5.739 -11.056  0.00  0.00     0.005 C 
ENDBRANCH  19  21
ENDBRANCH  15  19
ENDBRANCH  13  15
ENDBRANCH   1  11
BRANCH   1  23
HETATM   23  N           1     -33.535  -6.324 -17.068  0.00  0.00    -0.066 N 
HETATM   24  H           1     -34.223  -5.828 -17.678  0.00  0.00     0.275 HD
HETATM   25  H           1     -34.026  -7.062 -16.515  0.00  0.00     0.275 HD
HETATM   26  H           1     -32.799  -6.767 -17.663  0.00  0.00     0.275 HD
ENDBRANCH   1  23
TORSDOF 9
ENDMDL
MODEL 8
REMARK VINA RESULT:      -6.2      2.921      4.455
REMARK  9 active torsions:
REMARK  status: ('A' for Active; 'I' for Inactive)
REMARK    1  A    between atoms: C_2  and  C_3 
REMARK    2  A    between atoms: C_2  and  C_17 
REMARK    3  A    between atoms: C_3  and  C_4 
REMARK    4  A    between atoms: C_3  and  N_22 
REMARK       I    between atoms: C_4  and  N_5 
REMARK    5  A    between atoms: N_5  and  C_15 
REMARK    6  A    between atoms: C_8  and  C_15 
REMARK    7  A    between atoms: C_9  and  O_11 
REMARK    8  A    between atoms: C_15  and  C_25 
REMARK    9  A    between atoms: C_24  and  C_25 
ROOT
HETATM    1  C           1     -21.074  -8.053  -4.082  0.00  0.00     0.278 C 
ENDROOT
BRANCH   1   2
HETATM    2  C           1     -21.996  -6.881  -4.392  0.00  0.00     0.081 C 
BRANCH   2   3
HETATM    3  C           1     -21.488  -6.151  -5.597  0.00  0.00    -0.056 A 
HETATM    4  C           1     -22.338  -5.303  -6.308  0.00  0.00     0.010 A 
HETATM    5  C           1     -21.866  -4.622  -7.430  0.00  0.00     0.037 A 
HETATM    6  C           1     -20.543  -4.789  -7.841  0.00  0.00     0.065 A 
HETATM    7  C           1     -19.693  -5.636  -7.129  0.00  0.00     0.037 A 
HETATM    8  C           1     -20.166  -6.317  -6.008  0.00  0.00     0.010 A 
BRANCH   6   9
HETATM    9  O           1     -20.083  -4.128  -8.931  0.00  0.00    -0.361 OA
HETATM   10  H           1     -19.467  -4.715  -9.400  0.00  0.00     0.217 HD
ENDBRANCH   6   9
ENDBRANCH   2   3
ENDBRANCH   1   2
BRANCH   1  11
HETATM   11  C           1     -20.909  -8.181  -2.587  0.00  0.00     0.249 C 
HETATM   12  O           1     -20.425  -7.273  -1.953  0.00  0.00    -0.271 OA
HETATM   13  N           1     -21.306  -9.326  -1.950  0.00  0.00    -0.344 N 
HETATM   14  H           1     -21.710 -10.086  -2.482  0.00  0.00     0.163 HD
BRANCH  13  15
HETATM   15  C           1     -21.147  -9.448  -0.514  0.00  0.00     0.189 C 
BRANCH  15  16
HETATM   16  C           1     -20.329 -10.678  -0.203  0.00  0.00     0.197 C 
HETATM   17  O           1     -19.943 -11.424  -1.129  0.00  0.00    -0.646 OA
HETATM   18  O           1     -20.036 -10.950   0.981  0.00  0.00    -0.646 OA
ENDBRANCH  15  16
BRANCH  15  19
HETATM   19  C           1     -22.516  -9.573   0.140  0.00  0.00     0.014 C 
HETATM   20  C           1     -23.116  -8.186   0.331  0.00  0.00     0.012 C 
BRANCH  19  21
HETATM   21  C           1     -23.431 -10.403  -0.751  0.00  0.00     0.002 C 
HETATM   22  C           1     -23.835 -11.676  -0.019  0.00  0.00     0.005 C 
ENDBRANCH  19  21
ENDBRANCH  15  19
ENDBRANCH  13  15
ENDBRANCH   1  11
BRANCH   1  23
HETATM   23  N           1     -21.670  -9.316  -4.629  0.00  0.00    -0.066 N 
HETATM   24  H           1     -22.384  -9.681  -3.960  0.00  0.00     0.275 HD
HETATM   25  H           1     -20.916 -10.027  -4.759  0.00  0.00     0.275 HD
HETATM   26  H           1     -22.124  -9.117  -5.549  0.00  0.00     0.275 HD
ENDBRANCH   1  23
TORSDOF 9
ENDMDL
MODEL 9
REMARK VINA RESULT:      -6.1      1.991      3.326
REMARK  9 active torsions:
REMARK  status: ('A' for Active; 'I' for Inactive)
REMARK    1  A    between atoms: C_2  and  C_3 
REMARK    2  A    between atoms: C_2  and  C_17 
REMARK    3  A    between atoms: C_3  and  C_4 
REMARK    4  A    between atoms: C_3  and  N_22 
REMARK       I    between atoms: C_4  and  N_5 
REMARK    5  A    between atoms: N_5  and  C_15 
REMARK    6  A    between atoms: C_8  and  C_15 
REMARK    7  A    between atoms: C_9  and  O_11 
REMARK    8  A    between atoms: C_15  and  C_25 
REMARK    9  A    between atoms: C_24  and  C_25 
ROOT
HETATM    1  C           1     -21.660  -6.616  -5.781  0.00  0.00     0.278 C 
ENDROOT
BRANCH   1   2
HETATM    2  C           1     -20.755  -5.427  -6.077  0.00  0.00     0.081 C 
BRANCH   2   3
HETATM    3  C           1     -21.094  -4.862  -7.422  0.00  0.00    -0.056 A 
HETATM    4  C           1     -22.307  -4.201  -7.614  0.00  0.00     0.010 A 
HETATM    5  C           1     -22.624  -3.674  -8.866  0.00  0.00     0.037 A 
HETATM    6  C           1     -21.726  -3.808  -9.925  0.00  0.00     0.065 A 
HETATM    7  C           1     -20.512  -4.468  -9.732  0.00  0.00     0.037 A 
HETATM    8  C           1     -20.196  -4.995  -8.481  0.00  0.00     0.010 A 
BRANCH   6   9
HETATM    9  O           1     -22.033  -3.296 -11.143  0.00  0.00    -0.361 OA
HETATM   10  H           1     -22.604  -2.521 -11.007  0.00  0.00     0.217 HD
ENDBRANCH   6   9
ENDBRANCH   2   3
ENDBRANCH   1   2
BRANCH   1  11
HETATM   11  C           1     -20.888  -7.657  -5.009  0.00  0.00     0.249 C 
HETATM   12  O           1     -20.660  -7.491  -3.834  0.00  0.00    -0.271 OA
HETATM   13  N           1     -20.445  -8.789  -5.639  0.00  0.00    -0.344 N 
HETATM   14  H           1     -20.635  -8.927  -6.623  0.00  0.00     0.163 HD
BRANCH  13  15
HETATM   15  C           1     -19.703  -9.789  -4.897  0.00  0.00     0.189 C 
BRANCH  15  16
HETATM   16  C           1     -18.344  -9.977  -5.527  0.00  0.00     0.197 C 
HETATM   17  O           1     -17.563 -10.844  -5.080  0.00  0.00    -0.646 OA
HETATM   18  O           1     -18.002  -9.267  -6.496  0.00  0.00    -0.646 OA
ENDBRANCH  15  16
BRANCH  15  19
HETATM   19  C           1     -20.461 -11.109  -4.926  0.00  0.00     0.014 C 
HETATM   20  C           1     -21.416 -11.173  -3.741  0.00  0.00     0.012 C 
BRANCH  19  21
HETATM   21  C           1     -21.253 -11.212  -6.222  0.00  0.00     0.002 C 
HETATM   22  C           1     -20.842 -12.472  -6.971  0.00  0.00     0.005 C 
ENDBRANCH  19  21
ENDBRANCH  15  19
ENDBRANCH  13  15
ENDBRANCH   1  11
BRANCH   1  23
HETATM   23  N           1     -22.834  -6.159  -4.968  0.00  0.00    -0.066 N 
HETATM   24  H           1     -23.173  -6.948  -4.373  0.00  0.00     0.275 HD
HETATM   25  H           1     -23.601  -5.850  -5.608  0.00  0.00     0.275 HD
HETATM   26  H           1     -22.548  -5.361  -4.358  0.00  0.00     0.275 HD
ENDBRANCH   1  23
TORSDOF 9
ENDMDL
