MODEL 1
REMARK VINA RESULT:      -8.0      0.000      0.000
REMARK  11 active torsions:
REMARK  status: ('A' for Active; 'I' for Inactive)
REMARK    1  A    between atoms: C_1  and  C_6 
REMARK       I    between atoms: C_2  and  N_9 
REMARK    2  A    between atoms: C_2  and  C_3 
REMARK    3  A    between atoms: C_3  and  C_4 
REMARK    4  A    between atoms: C_3  and  N_25 
REMARK    5  A    between atoms: C_4  and  C_5 
REMARK       I    between atoms: C_5  and  N_13 
REMARK    6  A    between atoms: C_6  and  C_16 
REMARK    7  A    between atoms: P_7  and  O_8 
REMARK    8  A    between atoms: P_7  and  O_22 
REMARK    9  A    between atoms: O_8  and  C_10 
REMARK   10  A    between atoms: N_9  and  C_16 
REMARK   11  A    between atoms: C_16  and  C_18 
ROOT
HETATM    1  C           1     -32.447  -4.341 -16.224  0.00  0.00     0.189 C 
ENDROOT
BRANCH   1   2
HETATM    2  C           1     -31.935  -5.639 -16.834  0.00  0.00     0.074 C 
BRANCH   2   3
HETATM    3  C           1     -30.438  -5.635 -16.835  0.00  0.00    -0.056 A 
HETATM    4  C           1     -29.740  -6.062 -17.966  0.00  0.00     0.010 A 
HETATM    5  C           1     -28.346  -6.059 -17.967  0.00  0.00     0.038 A 
HETATM    6  C           1     -27.649  -5.628 -16.838  0.00  0.00     0.081 A 
HETATM    7  C           1     -28.346  -5.202 -15.708  0.00  0.00     0.038 A 
HETATM    8  C           1     -29.740  -5.205 -15.706  0.00  0.00     0.010 A 
BRANCH   6   9
HETATM    9  O           1     -26.293  -5.626 -16.839  0.00  0.00    -0.247 OA
BRANCH   9  10
HETATM   10  P           1     -25.532  -6.711 -15.916  0.00  0.00     0.411 P 
HETATM   11  O           1     -24.531  -7.436 -16.730  0.00  0.00    -0.624 OA
HETATM   12  O           1     -26.517  -7.672 -15.373  0.00  0.00    -0.624 OA
BRANCH  10  13
HETATM   13  O           1     -24.789  -5.954 -14.699  0.00  0.00    -0.300 OA
HETATM   14  H           1     -24.191  -6.589 -14.345  0.00  0.00     0.223 HD
ENDBRANCH  10  13
ENDBRANCH   9  10
ENDBRANCH   6   9
ENDBRANCH   2   3
ENDBRANCH   1   2
BRANCH   1  15
HETATM   15  N           1     -33.710  -4.587 -15.556  0.00  0.00    -0.344 N 
HETATM   16  C           1     -34.034  -3.889 -14.425  0.00  0.00     0.249 C 
HETATM   17  O           1     -34.631  -2.842 -14.511  0.00  0.00    -0.271 OA
HETATM   18  H           1     -34.353  -5.275 -15.927  0.00  0.00     0.163 HD
BRANCH  16  19
HETATM   19  C           1     -33.646  -4.425 -13.068  0.00  0.00     0.283 C 
BRANCH  19  20
HETATM   20  C           1     -34.844  -5.120 -12.434  0.00  0.00     0.145 C 
BRANCH  20  21
HETATM   21  C           1     -34.424  -5.759 -11.133  0.00  0.00     0.217 C 
HETATM   22  N           1     -34.410  -7.124 -11.014  0.00  0.00    -0.370 N 
HETATM   23  H           1     -34.128  -7.552 -10.141  0.00  0.00     0.159 HD
HETATM   24  H           1     -34.680  -7.703 -11.798  0.00  0.00     0.159 HD
HETATM   25  O           1     -34.100  -5.068 -10.198  0.00  0.00    -0.274 OA
ENDBRANCH  20  21
ENDBRANCH  19  20
BRANCH  19  26
HETATM   26  N           1     -33.204  -3.291 -12.192  0.00  0.00    -0.066 N 
HETATM   27  H           1     -33.999  -2.626 -12.055  0.00  0.00     0.275 HD
HETATM   28  H           1     -32.901  -3.666 -11.264  0.00  0.00     0.275 HD
HETATM   29  H           1     -32.405  -2.792 -12.645  0.00  0.00     0.275 HD
ENDBRANCH  19  26
ENDBRANCH  16  19
ENDBRANCH   1  15
BRANCH   1  30
HETATM   30  C           1     -32.647  -3.316 -17.315  0.00  0.00     0.197 C 
HETATM   31  O           1     -31.684  -2.979 -18.038  0.00  0.00    -0.646 OA
HETATM   32  O           1     -33.773  -2.807 -17.495  0.00  0.00    -0.646 OA
ENDBRANCH   1  30
TORSDOF 11
ENDMDL
MODEL 2
REMARK VINA RESULT:      -7.4     12.222     14.491
REMARK  11 active torsions:
REMARK  status: ('A' for Active; 'I' for Inactive)
REMARK    1  A    between atoms: C_1  and  C_6 
REMARK       I    between atoms: C_2  and  N_9 
REMARK    2  A    between atoms: C_2  and  C_3 
REMARK    3  A    between atoms: C_3  and  C_4 
REMARK    4  A    between atoms: C_3  and  N_25 
REMARK    5  A    between atoms: C_4  and  C_5 
REMARK       I    between atoms: C_5  and  N_13 
REMARK    6  A    between atoms: C_6  and  C_16 
REMARK    7  A    between atoms: P_7  and  O_8 
REMARK    8  A    between atoms: P_7  and  O_22 
REMARK    9  A    between atoms: O_8  and  C_10 
REMARK   10  A    between atoms: N_9  and  C_16 
REMARK   11  A    between atoms: C_16  and  C_18 
ROOT
HETATM    1  C           1     -21.207  -7.603  -5.346  0.00  0.00     0.189 C 
ENDROOT
BRANCH   1   2
HETATM    2  C           1     -20.281  -6.445  -5.694  0.00  0.00     0.074 C 
BRANCH   2   3
HETATM    3  C           1     -20.881  -5.640  -6.805  0.00  0.00    -0.056 A 
HETATM    4  C           1     -20.213  -5.530  -8.025  0.00  0.00     0.010 A 
HETATM    5  C           1     -20.771  -4.780  -9.059  0.00  0.00     0.038 A 
HETATM    6  C           1     -21.997  -4.141  -8.875  0.00  0.00     0.081 A 
HETATM    7  C           1     -22.664  -4.250  -7.655  0.00  0.00     0.038 A 
HETATM    8  C           1     -22.106  -5.000  -6.620  0.00  0.00     0.010 A 
BRANCH   6   9
HETATM    9  O           1     -22.539  -3.411  -9.880  0.00  0.00    -0.247 OA
BRANCH   9  10
HETATM   10  P           1     -23.601  -4.137 -10.857  0.00  0.00     0.411 P 
HETATM   11  O           1     -24.801  -3.283 -11.004  0.00  0.00    -0.624 OA
HETATM   12  O           1     -23.992  -5.441 -10.278  0.00  0.00    -0.624 OA
BRANCH  10  13
HETATM   13  O           1     -22.926  -4.371 -12.305  0.00  0.00    -0.300 OA
HETATM   14  H           1     -22.589  -5.249 -12.278  0.00  0.00     0.223 HD
ENDBRANCH  10  13
ENDBRANCH   9  10
ENDBRANCH   6   9
ENDBRANCH   2   3
ENDBRANCH   1   2
BRANCH   1  15
HETATM   15  N           1     -22.161  -7.174  -4.342  0.00  0.00    -0.344 N 
HETATM   16  C           1     -21.721  -6.761  -3.113  0.00  0.00     0.249 C 
HETATM   17  O           1     -21.460  -5.596  -2.926  0.00  0.00    -0.271 OA
HETATM   18  H           1     -23.151  -7.180  -4.549  0.00  0.00     0.163 HD
BRANCH  16  19
HETATM   19  C           1     -21.564  -7.759  -1.992  0.00  0.00     0.283 C 
BRANCH  19  20
HETATM   20  C           1     -22.337  -7.278  -0.771  0.00  0.00     0.145 C 
BRANCH  20  21
HETATM   21  C           1     -22.378  -8.377   0.263  0.00  0.00     0.217 C 
HETATM   22  N           1     -23.306  -9.379   0.161  0.00  0.00    -0.370 N 
HETATM   23  H           1     -23.334 -10.116   0.853  0.00  0.00     0.159 HD
HETATM   24  H           1     -23.964  -9.383  -0.609  0.00  0.00     0.159 HD
HETATM   25  O           1     -21.592  -8.373   1.180  0.00  0.00    -0.274 OA
ENDBRANCH  20  21
ENDBRANCH  19  20
BRANCH  19  26
HETATM   26  N           1     -20.111  -7.891  -1.644  0.00  0.00    -0.066 N 
HETATM   27  H           1     -19.664  -8.595  -2.275  0.00  0.00     0.275 HD
HETATM   28  H           1     -19.638  -6.967  -1.764  0.00  0.00     0.275 HD
HETATM   29  H           1     -20.018  -8.205  -0.651  0.00  0.00     0.275 HD
ENDBRANCH  19  26
ENDBRANCH  16  19
ENDBRANCH   1  15
BRANCH   1  30
HETATM   30  C           1     -20.393  -8.755  -4.808  0.00  0.00     0.197 C 
HETATM   31  O           1     -20.920  -9.879  -4.667  0.00  0.00    -0.646 OA
HETATM   32  O           1     -19.194  -8.583  -4.504  0.00  0.00    -0.646 OA
ENDBRANCH   1  30
TORSDOF 11
ENDMDL
MODEL 3
REMARK VINA RESULT:      -7.3     12.071     14.652
REMARK  11 active torsions:
REMARK  status: ('A' for Active; 'I' for Inactive)
REMARK    1  A    between atoms: C_1  and  C_6 
REMARK       I    between atoms: C_2  and  N_9 
REMARK    2  A    between atoms: C_2  and  C_3 
REMARK    3  A    between atoms: C_3  and  C_4 
REMARK    4  A    between atoms: C_3  and  N_25 
REMARK    5  A    between atoms: C_4  and  C_5 
REMARK       I    between atoms: C_5  and  N_13 
REMARK    6  A    between atoms: C_6  and  C_16 
REMARK    7  A    between atoms: P_7  and  O_8 
REMARK    8  A    between atoms: P_7  and  O_22 
REMARK    9  A    between atoms: O_8  and  C_10 
REMARK   10  A    between atoms: N_9  and  C_16 
REMARK   11  A    between atoms: C_16  and  C_18 
ROOT
HETATM    1  C           1     -20.665  -4.738  -6.747  0.00  0.00     0.189 C 
ENDROOT
BRANCH   1   2
HETATM    2  C           1     -21.240  -6.147  -6.687  0.00  0.00     0.074 C 
BRANCH   2   3
HETATM    3  C           1     -21.038  -6.712  -5.315  0.00  0.00    -0.056 A 
HETATM    4  C           1     -20.316  -7.894  -5.148  0.00  0.00     0.010 A 
HETATM    5  C           1     -20.129  -8.421  -3.871  0.00  0.00     0.038 A 
HETATM    6  C           1     -20.663  -7.767  -2.761  0.00  0.00     0.081 A 
HETATM    7  C           1     -21.385  -6.586  -2.928  0.00  0.00     0.038 A 
HETATM    8  C           1     -21.573  -6.058  -4.205  0.00  0.00     0.010 A 
BRANCH   6   9
HETATM    9  O           1     -20.481  -8.279  -1.519  0.00  0.00    -0.247 OA
BRANCH   9  10
HETATM   10  P           1     -21.725  -9.036  -0.821  0.00  0.00     0.411 P 
HETATM   11  O           1     -22.394  -9.906  -1.813  0.00  0.00    -0.624 OA
HETATM   12  O           1     -22.689  -8.034  -0.314  0.00  0.00    -0.624 OA
BRANCH  10  13
HETATM   13  O           1     -21.186  -9.935   0.408  0.00  0.00    -0.300 OA
HETATM   14  H           1     -20.296  -9.658   0.540  0.00  0.00     0.223 HD
ENDBRANCH  10  13
ENDBRANCH   9  10
ENDBRANCH   6   9
ENDBRANCH   2   3
ENDBRANCH   1   2
BRANCH   1  15
HETATM   15  N           1     -21.713  -3.805  -7.112  0.00  0.00    -0.344 N 
HETATM   16  C           1     -22.920  -4.271  -7.559  0.00  0.00     0.249 C 
HETATM   17  O           1     -23.810  -4.491  -6.773  0.00  0.00    -0.271 OA
HETATM   18  H           1     -21.551  -2.808  -7.038  0.00  0.00     0.163 HD
BRANCH  16  19
HETATM   19  C           1     -23.140  -4.508  -9.033  0.00  0.00     0.283 C 
BRANCH  19  20
HETATM   20  C           1     -22.452  -3.410  -9.834  0.00  0.00     0.145 C 
BRANCH  20  21
HETATM   21  C           1     -22.055  -3.948 -11.187  0.00  0.00     0.217 C 
HETATM   22  N           1     -20.762  -3.821 -11.621  0.00  0.00    -0.370 N 
HETATM   23  H           1     -20.495  -4.182 -12.528  0.00  0.00     0.159 HD
HETATM   24  H           1     -20.074  -3.368 -11.034  0.00  0.00     0.159 HD
HETATM   25  O           1     -22.876  -4.490 -11.887  0.00  0.00    -0.274 OA
ENDBRANCH  20  21
ENDBRANCH  19  20
BRANCH  19  26
HETATM   26  N           1     -24.611  -4.495  -9.326  0.00  0.00    -0.066 N 
HETATM   27  H           1     -25.140  -4.740  -8.458  0.00  0.00     0.275 HD
HETATM   28  H           1     -24.893  -3.542  -9.647  0.00  0.00     0.275 HD
HETATM   29  H           1     -24.823  -5.193 -10.073  0.00  0.00     0.275 HD
ENDBRANCH  19  26
ENDBRANCH  16  19
ENDBRANCH   1  15
BRANCH   1  30
HETATM   30  C           1     -19.563  -4.687  -7.777  0.00  0.00     0.197 C 
HETATM   31  O           1     -18.452  -4.199  -7.479  0.00  0.00    -0.646 OA
HETATM   32  O           1     -19.763  -5.133  -8.927  0.00  0.00    -0.646 OA
ENDBRANCH   1  30
TORSDOF 11
ENDMDL
MODEL 4
REMARK VINA RESULT:      -6.9     12.357     14.764
REMARK  11 active torsions:
REMARK  status: ('A' for Active; 'I' for Inactive)
REMARK    1  A    between atoms: C_1  and  C_6 
REMARK       I    between atoms: C_2  and  N_9 
REMARK    2  A    between atoms: C_2  and  C_3 
REMARK    3  A    between atoms: C_3  and  C_4 
REMARK    4  A    between atoms: C_3  and  N_25 
REMARK    5  A    between atoms: C_4  and  C_5 
REMARK       I    between atoms: C_5  and  N_13 
REMARK    6  A    between atoms: C_6  and  C_16 
REMARK    7  A    between atoms: P_7  and  O_8 
REMARK    8  A    between atoms: P_7  and  O_22 
REMARK    9  A    between atoms: O_8  and  C_10 
REMARK   10  A    between atoms: N_9  and  C_16 
REMARK   11  A    between atoms: C_16  and  C_18 
ROOT
HETATM    1  C           1     -20.611  -7.674  -5.188  0.00  0.00     0.189 C 
ENDROOT
BRANCH   1   2
HETATM    2  C           1     -19.783  -6.666  -5.974  0.00  0.00     0.074 C 
BRANCH   2   3
HETATM    3  C           1     -20.692  -5.782  -6.770  0.00  0.00    -0.056 A 
HETATM    4  C           1     -21.966  -5.479  -6.288  0.00  0.00     0.010 A 
HETATM    5  C           1     -22.814  -4.657  -7.029  0.00  0.00     0.038 A 
HETATM    6  C           1     -22.388  -4.137  -8.251  0.00  0.00     0.081 A 
HETATM    7  C           1     -21.115  -4.441  -8.733  0.00  0.00     0.038 A 
HETATM    8  C           1     -20.267  -5.263  -7.992  0.00  0.00     0.010 A 
BRANCH   6   9
HETATM    9  O           1     -23.212  -3.338  -8.972  0.00  0.00    -0.247 OA
BRANCH   9  10
HETATM   10  P           1     -23.743  -3.883 -10.397  0.00  0.00     0.411 P 
HETATM   11  O           1     -22.730  -3.606 -11.440  0.00  0.00    -0.624 OA
HETATM   12  O           1     -25.009  -3.202 -10.745  0.00  0.00    -0.624 OA
BRANCH  10  13
HETATM   13  O           1     -23.996  -5.476 -10.302  0.00  0.00    -0.300 OA
HETATM   14  H           1     -24.334  -5.617  -9.434  0.00  0.00     0.223 HD
ENDBRANCH  10  13
ENDBRANCH   9  10
ENDBRANCH   6   9
ENDBRANCH   2   3
ENDBRANCH   1   2
BRANCH   1  15
HETATM   15  N           1     -20.365  -7.500  -3.770  0.00  0.00    -0.344 N 
HETATM   16  C           1     -20.386  -8.583  -2.933  0.00  0.00     0.249 C 
HETATM   17  O           1     -19.371  -9.204  -2.724  0.00  0.00    -0.271 OA
HETATM   18  H           1     -20.178  -6.577  -3.399  0.00  0.00     0.163 HD
BRANCH  16  19
HETATM   19  C           1     -21.676  -9.002  -2.272  0.00  0.00     0.283 C 
BRANCH  19  20
HETATM   20  C           1     -21.464  -9.117  -0.768  0.00  0.00     0.145 C 
BRANCH  20  21
HETATM   21  C           1     -22.039  -7.901  -0.084  0.00  0.00     0.217 C 
HETATM   22  N           1     -22.471  -6.836  -0.830  0.00  0.00    -0.370 N 
HETATM   23  H           1     -22.857  -6.021  -0.371  0.00  0.00     0.159 HD
HETATM   24  H           1     -22.404  -6.865  -1.839  0.00  0.00     0.159 HD
HETATM   25  O           1     -22.120  -7.867   1.121  0.00  0.00    -0.274 OA
ENDBRANCH  20  21
ENDBRANCH  19  20
BRANCH  19  26
HETATM   26  N           1     -22.108 -10.330  -2.819  0.00  0.00    -0.066 N 
HETATM   27  H           1     -22.005 -11.062  -2.078  0.00  0.00     0.275 HD
HETATM   28  H           1     -23.109 -10.276  -3.116  0.00  0.00     0.275 HD
HETATM   29  H           1     -21.512 -10.579  -3.640  0.00  0.00     0.275 HD
ENDBRANCH  19  26
ENDBRANCH  16  19
ENDBRANCH   1  15
BRANCH   1  30
HETATM   30  C           1     -20.222  -9.074  -5.598  0.00  0.00     0.197 C 
HETATM   31  O           1     -19.023  -9.351  -5.813  0.00  0.00    -0.646 OA
HETATM   32  O           1     -21.099  -9.955  -5.721  0.00  0.00    -0.646 OA
ENDBRANCH   1  30
TORSDOF 11
ENDMDL
MODEL 5
REMARK VINA RESULT:      -6.8     12.418     14.741
REMARK  11 active torsions:
REMARK  status: ('A' for Active; 'I' for Inactive)
REMARK    1  A    between atoms: C_1  and  C_6 
REMARK       I    between atoms: C_2  and  N_9 
REMARK    2  A    between atoms: C_2  and  C_3 
REMARK    3  A    between atoms: C_3  and  C_4 
REMARK    4  A    between atoms: C_3  and  N_25 
REMARK    5  A    between atoms: C_4  and  C_5 
REMARK       I    between atoms: C_5  and  N_13 
REMARK    6  A    between atoms: C_6  and  C_16 
REMARK    7  A    between atoms: P_7  and  O_8 
REMARK    8  A    between atoms: P_7  and  O_22 
REMARK    9  A    between atoms: O_8  and  C_10 
REMARK   10  A    between atoms: N_9  and  C_16 
REMARK   11  A    between atoms: C_16  and  C_18 
ROOT
HETATM    1  C           1     -20.971  -7.188  -3.837  0.00  0.00     0.189 C 
ENDROOT
BRANCH   1   2
HETATM    2  C           1     -22.078  -7.098  -4.879  0.00  0.00     0.074 C 
BRANCH   2   3
HETATM    3  C           1     -21.667  -6.156  -5.967  0.00  0.00    -0.056 A 
HETATM    4  C           1     -22.561  -5.188  -6.425  0.00  0.00     0.010 A 
HETATM    5  C           1     -22.179  -4.311  -7.440  0.00  0.00     0.038 A 
HETATM    6  C           1     -20.902  -4.400  -7.994  0.00  0.00     0.081 A 
HETATM    7  C           1     -20.009  -5.367  -7.536  0.00  0.00     0.038 A 
HETATM    8  C           1     -20.391  -6.245  -6.522  0.00  0.00     0.010 A 
BRANCH   6   9
HETATM    9  O           1     -20.530  -3.548  -8.981  0.00  0.00    -0.247 OA
BRANCH   9  10
HETATM   10  P           1     -20.687  -4.042 -10.510  0.00  0.00     0.411 P 
HETATM   11  O           1     -22.056  -4.564 -10.722  0.00  0.00    -0.624 OA
HETATM   12  O           1     -19.703  -5.111 -10.786  0.00  0.00    -0.624 OA
BRANCH  10  13
HETATM   13  O           1     -20.426  -2.797 -11.506  0.00  0.00    -0.300 OA
HETATM   14  H           1     -20.245  -2.067 -10.941  0.00  0.00     0.223 HD
ENDBRANCH  10  13
ENDBRANCH   9  10
ENDBRANCH   6   9
ENDBRANCH   2   3
ENDBRANCH   1   2
BRANCH   1  15
HETATM   15  N           1     -20.447  -8.539  -3.804  0.00  0.00    -0.344 N 
HETATM   16  C           1     -21.106  -9.544  -4.460  0.00  0.00     0.249 C 
HETATM   17  O           1     -20.837  -9.793  -5.611  0.00  0.00    -0.271 OA
HETATM   18  H           1     -19.595  -8.740  -3.297  0.00  0.00     0.163 HD
BRANCH  16  19
HETATM   19  C           1     -22.168 -10.344  -3.745  0.00  0.00     0.283 C 
BRANCH  19  20
HETATM   20  C           1     -21.718 -10.627  -2.318  0.00  0.00     0.145 C 
BRANCH  20  21
HETATM   21  C           1     -22.905 -10.544  -1.389  0.00  0.00     0.217 C 
HETATM   22  N           1     -22.904  -9.644  -0.357  0.00  0.00    -0.370 N 
HETATM   23  H           1     -23.700  -9.587   0.266  0.00  0.00     0.159 HD
HETATM   24  H           1     -22.108  -9.035  -0.217  0.00  0.00     0.159 HD
HETATM   25  O           1     -23.855 -11.270  -1.557  0.00  0.00    -0.274 OA
ENDBRANCH  20  21
ENDBRANCH  19  20
BRANCH  19  26
HETATM   26  N           1     -22.386 -11.641  -4.467  0.00  0.00    -0.066 N 
HETATM   27  H           1     -23.409 -11.781  -4.630  0.00  0.00     0.275 HD
HETATM   28  H           1     -21.888 -11.615  -5.386  0.00  0.00     0.275 HD
HETATM   29  H           1     -22.014 -12.428  -3.889  0.00  0.00     0.275 HD
ENDBRANCH  19  26
ENDBRANCH  16  19
ENDBRANCH   1  15
BRANCH   1  30
HETATM   30  C           1     -21.526  -6.831  -2.479  0.00  0.00     0.197 C 
HETATM   31  O           1     -22.423  -5.966  -2.379  0.00  0.00    -0.646 OA
HETATM   32  O           1     -21.090  -7.400  -1.457  0.00  0.00    -0.646 OA
ENDBRANCH   1  30
TORSDOF 11
ENDMDL
MODEL 6
REMARK VINA RESULT:      -6.6     12.989     15.454
REMARK  11 active torsions:
REMARK  status: ('A' for Active; 'I' for Inactive)
REMARK    1  A    between atoms: C_1  and  C_6 
REMARK       I    between atoms: C_2  and  N_9 
REMARK    2  A    between atoms: C_2  and  C_3 
REMARK    3  A    between atoms: C_3  and  C_4 
REMARK    4  A    between atoms: C_3  and  N_25 
REMARK    5  A    between atoms: C_4  and  C_5 
REMARK       I    between atoms: C_5  and  N_13 
REMARK    6  A    between atoms: C_6  and  C_16 
REMARK    7  A    between atoms: P_7  and  O_8 
REMARK    8  A    between atoms: P_7  and  O_22 
REMARK    9  A    between atoms: O_8  and  C_10 
REMARK   10  A    between atoms: N_9  and  C_16 
REMARK   11  A    between atoms: C_16  and  C_18 
ROOT
HETATM    1  C           1     -21.055  -7.041  -6.007  0.00  0.00     0.189 C 
ENDROOT
BRANCH   1   2
HETATM    2  C           1     -19.873  -7.758  -5.367  0.00  0.00     0.074 C 
BRANCH   2   3
HETATM    3  C           1     -20.374  -8.751  -4.364  0.00  0.00    -0.056 A 
HETATM    4  C           1     -19.719  -8.896  -3.141  0.00  0.00     0.010 A 
HETATM    5  C           1     -20.184  -9.822  -2.207  0.00  0.00     0.038 A 
HETATM    6  C           1     -21.305 -10.600  -2.495  0.00  0.00     0.081 A 
HETATM    7  C           1     -21.959 -10.455  -3.718  0.00  0.00     0.038 A 
HETATM    8  C           1     -21.494  -9.530  -4.652  0.00  0.00     0.010 A 
BRANCH   6   9
HETATM    9  O           1     -21.757 -11.500  -1.588  0.00  0.00    -0.247 OA
BRANCH   9  10
HETATM   10  P           1     -22.432 -10.937  -0.233  0.00  0.00     0.411 P 
HETATM   11  O           1     -23.095  -9.644  -0.511  0.00  0.00    -0.624 OA
HETATM   12  O           1     -21.385 -10.744   0.795  0.00  0.00    -0.624 OA
BRANCH  10  13
HETATM   13  O           1     -23.525 -11.998   0.303  0.00  0.00    -0.300 OA
HETATM   14  H           1     -24.278 -11.480   0.528  0.00  0.00     0.223 HD
ENDBRANCH  10  13
ENDBRANCH   9  10
ENDBRANCH   6   9
ENDBRANCH   2   3
ENDBRANCH   1   2
BRANCH   1  15
HETATM   15  N           1     -20.583  -6.221  -7.106  0.00  0.00    -0.344 N 
HETATM   16  C           1     -21.167  -5.008  -7.355  0.00  0.00     0.249 C 
HETATM   17  O           1     -20.737  -4.011  -6.825  0.00  0.00    -0.271 OA
HETATM   18  H           1     -19.822  -6.545  -7.689  0.00  0.00     0.163 HD
BRANCH  16  19
HETATM   19  C           1     -22.347  -4.915  -8.291  0.00  0.00     0.283 C 
BRANCH  19  20
HETATM   20  C           1     -21.958  -4.109  -9.523  0.00  0.00     0.145 C 
BRANCH  20  21
HETATM   21  C           1     -22.762  -4.582 -10.709  0.00  0.00     0.217 C 
HETATM   22  N           1     -22.197  -4.599 -11.956  0.00  0.00    -0.370 N 
HETATM   23  H           1     -22.736  -4.917 -12.752  0.00  0.00     0.159 HD
HETATM   24  H           1     -21.240  -4.296 -12.082  0.00  0.00     0.159 HD
HETATM   25  O           1     -23.904  -4.946 -10.558  0.00  0.00    -0.274 OA
ENDBRANCH  20  21
ENDBRANCH  19  20
BRANCH  19  26
HETATM   26  N           1     -23.488  -4.238  -7.589  0.00  0.00    -0.066 N 
HETATM   27  H           1     -24.028  -3.665  -8.277  0.00  0.00     0.275 HD
HETATM   28  H           1     -24.115  -4.960  -7.169  0.00  0.00     0.275 HD
HETATM   29  H           1     -23.114  -3.618  -6.836  0.00  0.00     0.275 HD
ENDBRANCH  19  26
ENDBRANCH  16  19
ENDBRANCH   1  15
BRANCH   1  30
HETATM   30  C           1     -21.730  -6.166  -4.980  0.00  0.00     0.197 C 
HETATM   31  O           1     -22.973  -6.033  -4.993  0.00  0.00    -0.646 OA
HETATM   32  O           1     -21.047  -5.576  -4.116  0.00  0.00    -0.646 OA
ENDBRANCH   1  30
TORSDOF 11
ENDMDL
MODEL 7
REMARK VINA RESULT:      -6.5     13.648     16.064
REMARK  11 active torsions:
REMARK  status: ('A' for Active; 'I' for Inactive)
REMARK    1  A    between atoms: C_1  and  C_6 
REMARK       I    between atoms: C_2  and  N_9 
REMARK    2  A    between atoms: C_2  and  C_3 
REMARK    3  A    between atoms: C_3  and  C_4 
REMARK    4  A    between atoms: C_3  and  N_25 
REMARK    5  A    between atoms: C_4  and  C_5 
REMARK       I    between atoms: C_5  and  N_13 
REMARK    6  A    between atoms: C_6  and  C_16 
REMARK    7  A    between atoms: P_7  and  O_8 
REMARK    8  A    between atoms: P_7  and  O_22 
REMARK    9  A    between atoms: O_8  and  C_10 
REMARK   10  A    between atoms: N_9  and  C_16 
REMARK   11  A    between atoms: C_16  and  C_18 
ROOT
HETATM    1  C           1     -21.418  -7.766  -2.562  0.00  0.00     0.189 C 
ENDROOT
BRANCH   1   2
HETATM    2  C           1     -19.996  -8.309  -2.513  0.00  0.00     0.074 C 
BRANCH   2   3
HETATM    3  C           1     -19.742  -9.158  -3.719  0.00  0.00    -0.056 A 
HETATM    4  C           1     -18.464  -9.214  -4.276  0.00  0.00     0.010 A 
HETATM    5  C           1     -18.227 -10.003  -5.400  0.00  0.00     0.038 A 
HETATM    6  C           1     -19.268 -10.739  -5.967  0.00  0.00     0.081 A 
HETATM    7  C           1     -20.545 -10.683  -5.411  0.00  0.00     0.038 A 
HETATM    8  C           1     -20.783  -9.893  -4.287  0.00  0.00     0.010 A 
BRANCH   6   9
HETATM    9  O           1     -19.038 -11.507  -7.061  0.00  0.00    -0.247 OA
BRANCH   9  10
HETATM   10  P           1     -18.233 -12.892  -6.859  0.00  0.00     0.411 P 
HETATM   11  O           1     -18.422 -13.377  -5.474  0.00  0.00    -0.624 OA
HETATM   12  O           1     -16.793 -12.666  -7.111  0.00  0.00    -0.624 OA
BRANCH  10  13
HETATM   13  O           1     -18.795 -13.995  -7.897  0.00  0.00    -0.300 OA
HETATM   14  H           1     -18.467 -13.728  -8.738  0.00  0.00     0.223 HD
ENDBRANCH  10  13
ENDBRANCH   9  10
ENDBRANCH   6   9
ENDBRANCH   2   3
ENDBRANCH   1   2
BRANCH   1  15
HETATM   15  N           1     -21.403  -6.422  -3.105  0.00  0.00    -0.344 N 
HETATM   16  C           1     -21.634  -6.219  -4.439  0.00  0.00     0.249 C 
HETATM   17  O           1     -22.762  -6.040  -4.835  0.00  0.00    -0.271 OA
HETATM   18  H           1     -21.220  -5.633  -2.498  0.00  0.00     0.163 HD
BRANCH  16  19
HETATM   19  C           1     -20.483  -6.219  -5.414  0.00  0.00     0.283 C 
BRANCH  19  20
HETATM   20  C           1     -20.141  -4.785  -5.798  0.00  0.00     0.145 C 
BRANCH  20  21
HETATM   21  C           1     -20.789  -4.449  -7.119  0.00  0.00     0.217 C 
HETATM   22  N           1     -22.017  -3.843  -7.144  0.00  0.00    -0.370 N 
HETATM   23  H           1     -22.451  -3.617  -8.030  0.00  0.00     0.159 HD
HETATM   24  H           1     -22.489  -3.620  -6.278  0.00  0.00     0.159 HD
HETATM   25  O           1     -20.224  -4.714  -8.153  0.00  0.00    -0.274 OA
ENDBRANCH  20  21
ENDBRANCH  19  20
BRANCH  19  26
HETATM   26  N           1     -20.871  -6.986  -6.644  0.00  0.00    -0.066 N 
HETATM   27  H           1     -20.013  -7.377  -7.096  0.00  0.00     0.275 HD
HETATM   28  H           1     -21.511  -7.769  -6.378  0.00  0.00     0.275 HD
HETATM   29  H           1     -21.358  -6.348  -7.313  0.00  0.00     0.275 HD
ENDBRANCH  19  26
ENDBRANCH  16  19
ENDBRANCH   1  15
BRANCH   1  30
HETATM   30  C           1     -21.996  -7.739  -1.168  0.00  0.00     0.197 C 
HETATM   31  O           1     -22.731  -6.792  -0.815  0.00  0.00    -0.646 OA
HETATM   32  O           1     -21.739  -8.663  -0.367  0.00  0.00    -0.646 OA
ENDBRANCH   1  30
TORSDOF 11
ENDMDL
MODEL 8
REMARK VINA RESULT:      -6.5      1.348      1.905
REMARK  11 active torsions:
REMARK  status: ('A' for Active; 'I' for Inactive)
REMARK    1  A    between atoms: C_1  and  C_6 
REMARK       I    between atoms: C_2  and  N_9 
REMARK    2  A    between atoms: C_2  and  C_3 
REMARK    3  A    between atoms: C_3  and  C_4 
REMARK    4  A    between atoms: C_3  and  N_25 
REMARK    5  A    between atoms: C_4  and  C_5 
REMARK       I    between atoms: C_5  and  N_13 
REMARK    6  A    between atoms: C_6  and  C_16 
REMARK    7  A    between atoms: P_7  and  O_8 
REMARK    8  A    between atoms: P_7  and  O_22 
REMARK    9  A    between atoms: O_8  and  C_10 
REMARK   10  A    between atoms: N_9  and  C_16 
REMARK   11  A    between atoms: C_16  and  C_18 
ROOT
HETATM    1  C           1     -33.393  -4.216 -15.761  0.00  0.00     0.189 C 
ENDROOT
BRANCH   1   2
HETATM    2  C           1     -33.233  -5.509 -16.550  0.00  0.00     0.074 C 
BRANCH   2   3
HETATM    3  C           1     -31.811  -5.651 -16.996  0.00  0.00    -0.056 A 
HETATM    4  C           1     -30.948  -4.556 -16.933  0.00  0.00     0.010 A 
HETATM    5  C           1     -29.624  -4.687 -17.349  0.00  0.00     0.038 A 
HETATM    6  C           1     -29.161  -5.913 -17.826  0.00  0.00     0.081 A 
HETATM    7  C           1     -30.023  -7.008 -17.889  0.00  0.00     0.038 A 
HETATM    8  C           1     -31.348  -6.876 -17.474  0.00  0.00     0.010 A 
BRANCH   6   9
HETATM    9  O           1     -27.874  -6.041 -18.231  0.00  0.00    -0.247 OA
BRANCH   9  10
HETATM   10  P           1     -26.735  -6.207 -17.097  0.00  0.00     0.411 P 
HETATM   11  O           1     -26.605  -4.943 -16.339  0.00  0.00    -0.624 OA
HETATM   12  O           1     -25.443  -6.531 -17.741  0.00  0.00    -0.624 OA
BRANCH  10  13
HETATM   13  O           1     -27.150  -7.400 -16.090  0.00  0.00    -0.300 OA
HETATM   14  H           1     -26.590  -8.120 -16.322  0.00  0.00     0.223 HD
ENDBRANCH  10  13
ENDBRANCH   9  10
ENDBRANCH   6   9
ENDBRANCH   2   3
ENDBRANCH   1   2
BRANCH   1  15
HETATM   15  N           1     -34.377  -4.408 -14.714  0.00  0.00    -0.344 N 
HETATM   16  C           1     -34.218  -3.791 -13.503  0.00  0.00     0.249 C 
HETATM   17  O           1     -34.684  -2.691 -13.320  0.00  0.00    -0.271 OA
HETATM   18  H           1     -35.182  -5.000 -14.879  0.00  0.00     0.163 HD
BRANCH  16  19
HETATM   19  C           1     -33.462  -4.483 -12.396  0.00  0.00     0.283 C 
BRANCH  19  20
HETATM   20  C           1     -34.448  -5.138 -11.438  0.00  0.00     0.145 C 
BRANCH  20  21
HETATM   21  C           1     -33.900  -6.469 -10.983  0.00  0.00     0.217 C 
HETATM   22  N           1     -34.757  -7.485 -10.651  0.00  0.00    -0.370 N 
HETATM   23  H           1     -34.390  -8.377 -10.346  0.00  0.00     0.159 HD
HETATM   24  H           1     -35.757  -7.343 -10.710  0.00  0.00     0.159 HD
HETATM   25  O           1     -32.707  -6.639 -10.914  0.00  0.00    -0.274 OA
ENDBRANCH  20  21
ENDBRANCH  19  20
BRANCH  19  26
HETATM   26  N           1     -32.636  -3.476 -11.651  0.00  0.00    -0.066 N 
HETATM   27  H           1     -33.264  -2.754 -11.230  0.00  0.00     0.275 HD
HETATM   28  H           1     -32.101  -3.957 -10.893  0.00  0.00     0.275 HD
HETATM   29  H           1     -31.970  -3.016 -12.312  0.00  0.00     0.275 HD
ENDBRANCH  19  26
ENDBRANCH  16  19
ENDBRANCH   1  15
BRANCH   1  30
HETATM   30  C           1     -33.851  -3.115 -16.686  0.00  0.00     0.197 C 
HETATM   31  O           1     -33.098  -2.712 -17.599  0.00  0.00    -0.646 OA
HETATM   32  O           1     -34.984  -2.608 -16.540  0.00  0.00    -0.646 OA
ENDBRANCH   1  30
TORSDOF 11
ENDMDL
MODEL 9
REMARK VINA RESULT:      -6.4     12.764     15.479
REMARK  11 active torsions:
REMARK  status: ('A' for Active; 'I' for Inactive)
REMARK    1  A    between atoms: C_1  and  C_6 
REMARK       I    between atoms: C_2  and  N_9 
REMARK    2  A    between atoms: C_2  and  C_3 
REMARK    3  A    between atoms: C_3  and  C_4 
REMARK    4  A    between atoms: C_3  and  N_25 
REMARK    5  A    between atoms: C_4  and  C_5 
REMARK       I    between atoms: C_5  and  N_13 
REMARK    6  A    between atoms: C_6  and  C_16 
REMARK    7  A    between atoms: P_7  and  O_8 
REMARK    8  A    between atoms: P_7  and  O_22 
REMARK    9  A    between atoms: O_8  and  C_10 
REMARK   10  A    between atoms: N_9  and  C_16 
REMARK   11  A    between atoms: C_16  and  C_18 
ROOT
HETATM    1  C           1     -20.904  -7.537  -3.471  0.00  0.00     0.189 C 
ENDROOT
BRANCH   1   2
HETATM    2  C           1     -21.877  -7.609  -4.641  0.00  0.00     0.074 C 
BRANCH   2   3
HETATM    3  C           1     -21.493  -6.597  -5.674  0.00  0.00    -0.056 A 
HETATM    4  C           1     -22.405  -5.612  -6.058  0.00  0.00     0.010 A 
HETATM    5  C           1     -22.048  -4.670  -7.022  0.00  0.00     0.038 A 
HETATM    6  C           1     -20.780  -4.710  -7.600  0.00  0.00     0.081 A 
HETATM    7  C           1     -19.869  -5.694  -7.217  0.00  0.00     0.038 A 
HETATM    8  C           1     -20.226  -6.637  -6.254  0.00  0.00     0.010 A 
BRANCH   6   9
HETATM    9  O           1     -20.432  -3.794  -8.537  0.00  0.00    -0.247 OA
BRANCH   9  10
HETATM   10  P           1     -20.717  -4.148 -10.087  0.00  0.00     0.411 P 
HETATM   11  O           1     -20.547  -2.931 -10.911  0.00  0.00    -0.624 OA
HETATM   12  O           1     -22.101  -4.652 -10.231  0.00  0.00    -0.624 OA
BRANCH  10  13
HETATM   13  O           1     -19.677  -5.281 -10.579  0.00  0.00    -0.300 OA
HETATM   14  H           1     -18.833  -4.866 -10.552  0.00  0.00     0.223 HD
ENDBRANCH  10  13
ENDBRANCH   9  10
ENDBRANCH   6   9
ENDBRANCH   2   3
ENDBRANCH   1   2
BRANCH   1  15
HETATM   15  N           1     -20.417  -8.869  -3.167  0.00  0.00    -0.344 N 
HETATM   16  C           1     -19.104  -9.185  -3.388  0.00  0.00     0.249 C 
HETATM   17  O           1     -18.287  -9.016  -2.514  0.00  0.00    -0.271 OA
HETATM   18  H           1     -21.049  -9.565  -2.792  0.00  0.00     0.163 HD
BRANCH  16  19
HETATM   19  C           1     -18.675  -9.745  -4.722  0.00  0.00     0.283 C 
BRANCH  19  20
HETATM   20  C           1     -19.246 -11.146  -4.894  0.00  0.00     0.145 C 
BRANCH  20  21
HETATM   21  C           1     -19.954 -11.242  -6.223  0.00  0.00     0.217 C 
HETATM   22  N           1     -21.263 -10.851  -6.331  0.00  0.00    -0.370 N 
HETATM   23  H           1     -21.738 -10.915  -7.223  0.00  0.00     0.159 HD
HETATM   24  H           1     -21.754 -10.498  -5.520  0.00  0.00     0.159 HD
HETATM   25  O           1     -19.367 -11.662  -7.191  0.00  0.00    -0.274 OA
ENDBRANCH  20  21
ENDBRANCH  19  20
BRANCH  19  26
HETATM   26  N           1     -17.177  -9.804  -4.780  0.00  0.00    -0.066 N 
HETATM   27  H           1     -16.814 -10.259  -3.911  0.00  0.00     0.275 HD
HETATM   28  H           1     -16.883 -10.362  -5.613  0.00  0.00     0.275 HD
HETATM   29  H           1     -16.793  -8.836  -4.854  0.00  0.00     0.275 HD
ENDBRANCH  19  26
ENDBRANCH  16  19
ENDBRANCH   1  15
BRANCH   1  30
HETATM   30  C           1     -21.609  -6.971  -2.263  0.00  0.00     0.197 C 
HETATM   31  O           1     -22.249  -5.902  -2.357  0.00  0.00    -0.646 OA
HETATM   32  O           1     -21.553  -7.573  -1.169  0.00  0.00    -0.646 OA
ENDBRANCH   1  30
TORSDOF 11
ENDMDL
