MODEL 1
REMARK VINA RESULT:      -6.0      0.000      0.000
REMARK  12 active torsions:
REMARK  status: ('A' for Active; 'I' for Inactive)
REMARK    1  A    between atoms: N_2  and  C_20 
REMARK    2  A    between atoms: C_5  and  C_20 
REMARK    3  A    between atoms: C_5  and  C_23 
REMARK       I    between atoms: C_9  and  N_25 
REMARK    4  A    between atoms: C_9  and  C_11 
REMARK    5  A    between atoms: C_10  and  C_18 
REMARK    6  A    between atoms: C_10  and  N_15 
REMARK    7  A    between atoms: C_11  and  C_17 
REMARK    8  A    between atoms: C_11  and  N_27 
REMARK    9  A    between atoms: C_16  and  C_21 
REMARK   10  A    between atoms: C_17  and  C_18 
REMARK   11  A    between atoms: C_21  and  C_23 
REMARK   12  A    between atoms: C_21  and  N_25 
ROOT
HETATM    1  O           1     -24.076  -6.398 -18.880  0.00  0.00    -0.271 OA
HETATM    2  C           1     -25.091  -6.950 -19.236  0.00  0.00     0.249 C 
HETATM    3  H           1     -27.068  -7.335 -18.760  0.00  0.00     0.163 HD
HETATM    4  N           1     -26.218  -6.874 -18.462  0.00  0.00    -0.345 N 
ENDROOT
BRANCH   2   5
HETATM    5  C           1     -25.117  -7.719 -20.533  0.00  0.00     0.274 C 
BRANCH   5   6
HETATM    6  C           1     -24.574  -6.843 -21.655  0.00  0.00     0.044 C 
BRANCH   6   7
HETATM    7  C           1     -23.825  -7.710 -22.658  0.00  0.00     0.030 C 
BRANCH   7   8
HETATM    8  C           1     -22.757  -8.519 -21.936  0.00  0.00     0.230 C 
BRANCH   8   9
HETATM    9  N           1     -22.332  -9.671 -22.798  0.00  0.00    -0.079 N 
HETATM   10  H           1     -23.179 -10.167 -23.157  0.00  0.00     0.274 HD
HETATM   11  H           1     -21.753 -10.334 -22.234  0.00  0.00     0.274 HD
HETATM   12  H           1     -21.769  -9.315 -23.603  0.00  0.00     0.274 HD
ENDBRANCH   8   9
ENDBRANCH   7   8
ENDBRANCH   6   7
ENDBRANCH   5   6
BRANCH   5  13
HETATM   13  N           1     -26.527  -8.119 -20.849  0.00  0.00    -0.067 N 
HETATM   14  H           1     -26.530  -8.777 -21.661  0.00  0.00     0.275 HD
HETATM   15  H           1     -26.951  -8.589 -20.019  0.00  0.00     0.275 HD
HETATM   16  H           1     -27.085  -7.267 -21.090  0.00  0.00     0.275 HD
ENDBRANCH   5  13
ENDBRANCH   2   5
BRANCH   4  17
HETATM   17  C           1     -26.194  -6.133 -17.215  0.00  0.00     0.185 C 
BRANCH  17  18
HETATM   18  C           1     -25.983  -7.090 -16.067  0.00  0.00     0.196 C 
HETATM   19  O           1     -24.841  -7.543 -15.833  0.00  0.00    -0.646 OA
HETATM   20  O           1     -26.949  -7.429 -15.351  0.00  0.00    -0.646 OA
ENDBRANCH  17  18
BRANCH  17  21
HETATM   21  C           1     -27.519  -5.405 -17.033  0.00  0.00     0.038 C 
BRANCH  21  22
HETATM   22  C           1     -28.510  -5.884 -18.085  0.00  0.00     0.030 C 
BRANCH  22  23
HETATM   23  C           1     -29.659  -6.617 -17.404  0.00  0.00     0.230 C 
BRANCH  23  24
HETATM   24  N           1     -29.329  -8.076 -17.298  0.00  0.00    -0.079 N 
HETATM   25  H           1     -28.303  -8.212 -17.444  0.00  0.00     0.274 HD
HETATM   26  H           1     -29.857  -8.608 -18.026  0.00  0.00     0.274 HD
HETATM   27  H           1     -29.595  -8.425 -16.349  0.00  0.00     0.274 HD
ENDBRANCH  23  24
ENDBRANCH  22  23
ENDBRANCH  21  22
ENDBRANCH  17  21
ENDBRANCH   4  17
TORSDOF 12
ENDMDL
MODEL 2
REMARK VINA RESULT:      -5.9     11.538     13.389
REMARK  12 active torsions:
REMARK  status: ('A' for Active; 'I' for Inactive)
REMARK    1  A    between atoms: N_2  and  C_20 
REMARK    2  A    between atoms: C_5  and  C_20 
REMARK    3  A    between atoms: C_5  and  C_23 
REMARK       I    between atoms: C_9  and  N_25 
REMARK    4  A    between atoms: C_9  and  C_11 
REMARK    5  A    between atoms: C_10  and  C_18 
REMARK    6  A    between atoms: C_10  and  N_15 
REMARK    7  A    between atoms: C_11  and  C_17 
REMARK    8  A    between atoms: C_11  and  N_27 
REMARK    9  A    between atoms: C_16  and  C_21 
REMARK   10  A    between atoms: C_17  and  C_18 
REMARK   11  A    between atoms: C_21  and  C_23 
REMARK   12  A    between atoms: C_21  and  N_25 
ROOT
HETATM    1  O           1     -33.495  -1.996 -10.824  0.00  0.00    -0.271 OA
HETATM    2  C           1     -34.221  -2.665 -11.519  0.00  0.00     0.249 C 
HETATM    3  H           1     -35.946  -2.665 -12.664  0.00  0.00     0.163 HD
HETATM    4  N           1     -35.337  -2.104 -12.082  0.00  0.00    -0.345 N 
ENDROOT
BRANCH   2   5
HETATM    5  C           1     -33.899  -4.118 -11.769  0.00  0.00     0.274 C 
BRANCH   5   6
HETATM    6  C           1     -34.115  -4.913 -10.488  0.00  0.00     0.044 C 
BRANCH   6   7
HETATM    7  C           1     -34.107  -6.402 -10.808  0.00  0.00     0.030 C 
BRANCH   7   8
HETATM    8  C           1     -34.931  -7.150  -9.769  0.00  0.00     0.230 C 
BRANCH   8   9
HETATM    9  N           1     -34.367  -8.527  -9.578  0.00  0.00    -0.079 N 
HETATM   10  H           1     -34.720  -8.926  -8.679  0.00  0.00     0.274 HD
HETATM   11  H           1     -33.323  -8.475  -9.550  0.00  0.00     0.274 HD
HETATM   12  H           1     -34.664  -9.138 -10.372  0.00  0.00     0.274 HD
ENDBRANCH   8   9
ENDBRANCH   7   8
ENDBRANCH   6   7
ENDBRANCH   5   6
BRANCH   5  13
HETATM   13  N           1     -32.469  -4.245 -12.203  0.00  0.00    -0.067 N 
HETATM   14  H           1     -31.920  -3.436 -11.835  0.00  0.00     0.275 HD
HETATM   15  H           1     -32.070  -5.135 -11.829  0.00  0.00     0.275 HD
HETATM   16  H           1     -32.421  -4.252 -13.247  0.00  0.00     0.275 HD
ENDBRANCH   5  13
ENDBRANCH   2   5
BRANCH   4  17
HETATM   17  C           1     -35.647  -0.708 -11.842  0.00  0.00     0.185 C 
BRANCH  17  18
HETATM   18  C           1     -36.673  -0.603 -10.741  0.00  0.00     0.196 C 
HETATM   19  O           1     -36.367  -0.075  -9.650  0.00  0.00    -0.646 OA
HETATM   20  O           1     -37.829  -1.043 -10.920  0.00  0.00    -0.646 OA
ENDBRANCH  17  18
BRANCH  17  21
HETATM   21  C           1     -36.203  -0.087 -13.117  0.00  0.00     0.038 C 
BRANCH  21  22
HETATM   22  C           1     -35.064   0.525 -13.922  0.00  0.00     0.030 C 
BRANCH  22  23
HETATM   23  C           1     -35.386   0.433 -15.408  0.00  0.00     0.230 C 
BRANCH  23  24
HETATM   24  N           1     -36.194   1.628 -15.820  0.00  0.00    -0.079 N 
HETATM   25  H           1     -35.776   2.491 -15.404  0.00  0.00     0.274 HD
HETATM   26  H           1     -37.176   1.519 -15.479  0.00  0.00     0.274 HD
HETATM   27  H           1     -36.193   1.706 -16.862  0.00  0.00     0.274 HD
ENDBRANCH  23  24
ENDBRANCH  22  23
ENDBRANCH  21  22
ENDBRANCH  17  21
ENDBRANCH   4  17
TORSDOF 12
ENDMDL
MODEL 3
REMARK VINA RESULT:      -5.8      1.986      2.361
REMARK  12 active torsions:
REMARK  status: ('A' for Active; 'I' for Inactive)
REMARK    1  A    between atoms: N_2  and  C_20 
REMARK    2  A    between atoms: C_5  and  C_20 
REMARK    3  A    between atoms: C_5  and  C_23 
REMARK       I    between atoms: C_9  and  N_25 
REMARK    4  A    between atoms: C_9  and  C_11 
REMARK    5  A    between atoms: C_10  and  C_18 
REMARK    6  A    between atoms: C_10  and  N_15 
REMARK    7  A    between atoms: C_11  and  C_17 
REMARK    8  A    between atoms: C_11  and  N_27 
REMARK    9  A    between atoms: C_16  and  C_21 
REMARK   10  A    between atoms: C_17  and  C_18 
REMARK   11  A    between atoms: C_21  and  C_23 
REMARK   12  A    between atoms: C_21  and  N_25 
ROOT
HETATM    1  O           1     -27.191  -6.317 -20.128  0.00  0.00    -0.271 OA
HETATM    2  C           1     -26.356  -6.482 -19.270  0.00  0.00     0.249 C 
HETATM    3  H           1     -25.983  -6.432 -17.234  0.00  0.00     0.163 HD
HETATM    4  N           1     -26.682  -6.294 -17.953  0.00  0.00    -0.345 N 
ENDROOT
BRANCH   2   5
HETATM    5  C           1     -24.955  -6.895 -19.649  0.00  0.00     0.274 C 
BRANCH   5   6
HETATM    6  C           1     -25.016  -7.958 -20.737  0.00  0.00     0.044 C 
BRANCH   6   7
HETATM    7  C           1     -24.373  -7.422 -22.009  0.00  0.00     0.030 C 
BRANCH   7   8
HETATM    8  C           1     -23.211  -8.320 -22.410  0.00  0.00     0.230 C 
BRANCH   8   9
HETATM    9  N           1     -22.765  -9.121 -21.223  0.00  0.00    -0.079 N 
HETATM   10  H           1     -22.856  -8.542 -20.358  0.00  0.00     0.274 HD
HETATM   11  H           1     -21.766  -9.404 -21.349  0.00  0.00     0.274 HD
HETATM   12  H           1     -23.360  -9.976 -21.135  0.00  0.00     0.274 HD
ENDBRANCH   8   9
ENDBRANCH   7   8
ENDBRANCH   6   7
ENDBRANCH   5   6
BRANCH   5  13
HETATM   13  N           1     -24.255  -7.451 -18.445  0.00  0.00    -0.067 N 
HETATM   14  H           1     -24.768  -8.295 -18.103  0.00  0.00     0.275 HD
HETATM   15  H           1     -23.279  -7.718 -18.702  0.00  0.00     0.275 HD
HETATM   16  H           1     -24.232  -6.728 -17.690  0.00  0.00     0.275 HD
ENDBRANCH   5  13
ENDBRANCH   2   5
BRANCH   4  17
HETATM   17  C           1     -28.028  -5.898 -17.588  0.00  0.00     0.185 C 
BRANCH  17  18
HETATM   18  C           1     -27.966  -4.815 -16.539  0.00  0.00     0.196 C 
HETATM   19  O           1     -27.943  -3.613 -16.882  0.00  0.00    -0.646 OA
HETATM   20  O           1     -27.937  -5.120 -15.328  0.00  0.00    -0.646 OA
ENDBRANCH  17  18
BRANCH  17  21
HETATM   21  C           1     -28.778  -7.101 -17.033  0.00  0.00     0.038 C 
BRANCH  21  22
HETATM   22  C           1     -30.256  -6.984 -17.381  0.00  0.00     0.030 C 
BRANCH  22  23
HETATM   23  C           1     -30.537  -7.746 -18.670  0.00  0.00     0.230 C 
BRANCH  23  24
HETATM   24  N           1     -29.342  -8.579 -19.029  0.00  0.00    -0.079 N 
HETATM   25  H           1     -29.656  -9.540 -19.297  0.00  0.00     0.274 HD
HETATM   26  H           1     -28.699  -8.640 -18.208  0.00  0.00     0.274 HD
HETATM   27  H           1     -28.840  -8.140 -19.833  0.00  0.00     0.274 HD
ENDBRANCH  23  24
ENDBRANCH  22  23
ENDBRANCH  21  22
ENDBRANCH  17  21
ENDBRANCH   4  17
TORSDOF 12
ENDMDL
MODEL 4
REMARK VINA RESULT:      -5.8      1.731      1.782
REMARK  12 active torsions:
REMARK  status: ('A' for Active; 'I' for Inactive)
REMARK    1  A    between atoms: N_2  and  C_20 
REMARK    2  A    between atoms: C_5  and  C_20 
REMARK    3  A    between atoms: C_5  and  C_23 
REMARK       I    between atoms: C_9  and  N_25 
REMARK    4  A    between atoms: C_9  and  C_11 
REMARK    5  A    between atoms: C_10  and  C_18 
REMARK    6  A    between atoms: C_10  and  N_15 
REMARK    7  A    between atoms: C_11  and  C_17 
REMARK    8  A    between atoms: C_11  and  N_27 
REMARK    9  A    between atoms: C_16  and  C_21 
REMARK   10  A    between atoms: C_17  and  C_18 
REMARK   11  A    between atoms: C_21  and  C_23 
REMARK   12  A    between atoms: C_21  and  N_25 
ROOT
HETATM    1  O           1     -24.693  -6.584 -18.285  0.00  0.00    -0.271 OA
HETATM    2  C           1     -25.743  -6.658 -18.879  0.00  0.00     0.249 C 
HETATM    3  H           1     -27.785  -6.346 -18.758  0.00  0.00     0.163 HD
HETATM    4  N           1     -26.906  -6.285 -18.261  0.00  0.00    -0.345 N 
ENDROOT
BRANCH   2   5
HETATM    5  C           1     -25.771  -7.157 -20.303  0.00  0.00     0.274 C 
BRANCH   5   6
HETATM    6  C           1     -24.466  -7.877 -20.614  0.00  0.00     0.044 C 
BRANCH   6   7
HETATM    7  C           1     -24.180  -7.788 -22.107  0.00  0.00     0.030 C 
BRANCH   7   8
HETATM    8  C           1     -22.852  -8.467 -22.413  0.00  0.00     0.230 C 
BRANCH   8   9
HETATM    9  N           1     -22.380  -9.213 -21.200  0.00  0.00    -0.079 N 
HETATM   10  H           1     -22.226  -8.540 -20.416  0.00  0.00     0.274 HD
HETATM   11  H           1     -21.484  -9.704 -21.420  0.00  0.00     0.274 HD
HETATM   12  H           1     -23.102  -9.915 -20.921  0.00  0.00     0.274 HD
ENDBRANCH   8   9
ENDBRANCH   7   8
ENDBRANCH   6   7
ENDBRANCH   5   6
BRANCH   5  13
HETATM   13  N           1     -25.937  -5.996 -21.237  0.00  0.00    -0.067 N 
HETATM   14  H           1     -26.757  -5.422 -20.937  0.00  0.00     0.275 HD
HETATM   15  H           1     -25.074  -5.408 -21.217  0.00  0.00     0.275 HD
HETATM   16  H           1     -26.097  -6.350 -22.208  0.00  0.00     0.275 HD
ENDBRANCH   5  13
ENDBRANCH   2   5
BRANCH   4  17
HETATM   17  C           1     -26.879  -5.804 -16.893  0.00  0.00     0.185 C 
BRANCH  17  18
HETATM   18  C           1     -27.092  -6.962 -15.949  0.00  0.00     0.196 C 
HETATM   19  O           1     -26.124  -7.442 -15.321  0.00  0.00    -0.646 OA
HETATM   20  O           1     -28.236  -7.441 -15.795  0.00  0.00    -0.646 OA
ENDBRANCH  17  18
BRANCH  17  21
HETATM   21  C           1     -27.987  -4.777 -16.695  0.00  0.00     0.038 C 
BRANCH  21  22
HETATM   22  C           1     -28.855  -4.720 -17.945  0.00  0.00     0.030 C 
BRANCH  22  23
HETATM   23  C           1     -30.306  -4.482 -17.545  0.00  0.00     0.230 C 
BRANCH  23  24
HETATM   24  N           1     -30.612  -3.016 -17.623  0.00  0.00    -0.079 N 
HETATM   25  H           1     -30.310  -2.550 -16.738  0.00  0.00     0.274 HD
HETATM   26  H           1     -31.640  -2.880 -17.754  0.00  0.00     0.274 HD
HETATM   27  H           1     -30.099  -2.596 -18.431  0.00  0.00     0.274 HD
ENDBRANCH  23  24
ENDBRANCH  22  23
ENDBRANCH  21  22
ENDBRANCH  17  21
ENDBRANCH   4  17
TORSDOF 12
ENDMDL
MODEL 5
REMARK VINA RESULT:      -5.8     11.823     13.461
REMARK  12 active torsions:
REMARK  status: ('A' for Active; 'I' for Inactive)
REMARK    1  A    between atoms: N_2  and  C_20 
REMARK    2  A    between atoms: C_5  and  C_20 
REMARK    3  A    between atoms: C_5  and  C_23 
REMARK       I    between atoms: C_9  and  N_25 
REMARK    4  A    between atoms: C_9  and  C_11 
REMARK    5  A    between atoms: C_10  and  C_18 
REMARK    6  A    between atoms: C_10  and  N_15 
REMARK    7  A    between atoms: C_11  and  C_17 
REMARK    8  A    between atoms: C_11  and  N_27 
REMARK    9  A    between atoms: C_16  and  C_21 
REMARK   10  A    between atoms: C_17  and  C_18 
REMARK   11  A    between atoms: C_21  and  C_23 
REMARK   12  A    between atoms: C_21  and  N_25 
ROOT
HETATM    1  O           1     -34.469  -3.185 -13.579  0.00  0.00    -0.271 OA
HETATM    2  C           1     -34.281  -2.648 -12.513  0.00  0.00     0.249 C 
HETATM    3  H           1     -34.758  -1.021 -11.326  0.00  0.00     0.163 HD
HETATM    4  N           1     -34.915  -1.471 -12.219  0.00  0.00    -0.345 N 
ENDROOT
BRANCH   2   5
HETATM    5  C           1     -33.349  -3.276 -11.506  0.00  0.00     0.274 C 
BRANCH   5   6
HETATM    6  C           1     -33.405  -4.792 -11.638  0.00  0.00     0.044 C 
BRANCH   6   7
HETATM    7  C           1     -34.348  -5.359 -10.585  0.00  0.00     0.030 C 
BRANCH   7   8
HETATM    8  C           1     -34.321  -6.880 -10.643  0.00  0.00     0.230 C 
BRANCH   8   9
HETATM    9  N           1     -35.084  -7.439  -9.479  0.00  0.00    -0.079 N 
HETATM   10  H           1     -35.140  -8.479  -9.566  0.00  0.00     0.274 HD
HETATM   11  H           1     -36.050  -7.038  -9.470  0.00  0.00     0.274 HD
HETATM   12  H           1     -34.596  -7.190  -8.590  0.00  0.00     0.274 HD
ENDBRANCH   8   9
ENDBRANCH   7   8
ENDBRANCH   6   7
ENDBRANCH   5   6
BRANCH   5  13
HETATM   13  N           1     -33.768  -2.878 -10.122  0.00  0.00    -0.067 N 
HETATM   14  H           1     -33.223  -2.039  -9.821  0.00  0.00     0.275 HD
HETATM   15  H           1     -34.787  -2.651 -10.119  0.00  0.00     0.275 HD
HETATM   16  H           1     -33.583  -3.668  -9.462  0.00  0.00     0.275 HD
ENDBRANCH   5  13
ENDBRANCH   2   5
BRANCH   4  17
HETATM   17  C           1     -35.811  -0.867 -13.187  0.00  0.00     0.185 C 
BRANCH  17  18
HETATM   18  C           1     -35.062   0.171 -13.985  0.00  0.00     0.196 C 
HETATM   19  O           1     -34.718   1.245 -13.447  0.00  0.00    -0.646 OA
HETATM   20  O           1     -34.785  -0.043 -15.185  0.00  0.00    -0.646 OA
ENDBRANCH  17  18
BRANCH  17  21
HETATM   21  C           1     -36.973  -0.206 -12.457  0.00  0.00     0.038 C 
BRANCH  21  22
HETATM   22  C           1     -36.953  -0.619 -10.991  0.00  0.00     0.030 C 
BRANCH  22  23
HETATM   23  C           1     -37.569   0.487 -10.143  0.00  0.00     0.230 C 
BRANCH  23  24
HETATM   24  N           1     -36.485   1.213  -9.403  0.00  0.00    -0.079 N 
HETATM   25  H           1     -36.772   2.207  -9.253  0.00  0.00     0.274 HD
HETATM   26  H           1     -35.603   1.187  -9.963  0.00  0.00     0.274 HD
HETATM   27  H           1     -36.325   0.752  -8.479  0.00  0.00     0.274 HD
ENDBRANCH  23  24
ENDBRANCH  22  23
ENDBRANCH  21  22
ENDBRANCH  17  21
ENDBRANCH   4  17
TORSDOF 12
ENDMDL
MODEL 6
REMARK VINA RESULT:      -5.2     12.698     15.008
REMARK  12 active torsions:
REMARK  status: ('A' for Active; 'I' for Inactive)
REMARK    1  A    between atoms: N_2  and  C_20 
REMARK    2  A    between atoms: C_5  and  C_20 
REMARK    3  A    between atoms: C_5  and  C_23 
REMARK       I    between atoms: C_9  and  N_25 
REMARK    4  A    between atoms: C_9  and  C_11 
REMARK    5  A    between atoms: C_10  and  C_18 
REMARK    6  A    between atoms: C_10  and  N_15 
REMARK    7  A    between atoms: C_11  and  C_17 
REMARK    8  A    between atoms: C_11  and  N_27 
REMARK    9  A    between atoms: C_16  and  C_21 
REMARK   10  A    between atoms: C_17  and  C_18 
REMARK   11  A    between atoms: C_21  and  C_23 
REMARK   12  A    between atoms: C_21  and  N_25 
ROOT
HETATM    1  O           1     -22.599  -5.518  -5.806  0.00  0.00    -0.271 OA
HETATM    2  C           1     -21.394  -5.524  -5.710  0.00  0.00     0.249 C 
HETATM    3  H           1     -19.770  -6.413  -4.785  0.00  0.00     0.163 HD
HETATM    4  N           1     -20.779  -6.408  -4.865  0.00  0.00    -0.345 N 
ENDROOT
BRANCH   2   5
HETATM    5  C           1     -20.568  -4.558  -6.524  0.00  0.00     0.274 C 
BRANCH   5   6
HETATM    6  C           1     -21.491  -3.633  -7.306  0.00  0.00     0.044 C 
BRANCH   6   7
HETATM    7  C           1     -21.507  -4.050  -8.770  0.00  0.00     0.030 C 
BRANCH   7   8
HETATM    8  C           1     -22.942  -4.064  -9.280  0.00  0.00     0.230 C 
BRANCH   8   9
HETATM    9  N           1     -23.887  -4.029  -8.116  0.00  0.00    -0.079 N 
HETATM   10  H           1     -23.575  -4.716  -7.393  0.00  0.00     0.274 HD
HETATM   11  H           1     -24.849  -4.278  -8.441  0.00  0.00     0.274 HD
HETATM   12  H           1     -23.897  -3.069  -7.704  0.00  0.00     0.274 HD
ENDBRANCH   8   9
ENDBRANCH   7   8
ENDBRANCH   6   7
ENDBRANCH   5   6
BRANCH   5  13
HETATM   13  N           1     -19.701  -5.323  -7.479  0.00  0.00    -0.067 N 
HETATM   14  H           1     -18.749  -4.894  -7.506  0.00  0.00     0.275 HD
HETATM   15  H           1     -19.626  -6.316  -7.162  0.00  0.00     0.275 HD
HETATM   16  H           1     -20.124  -5.293  -8.435  0.00  0.00     0.275 HD
ENDBRANCH   5  13
ENDBRANCH   2   5
BRANCH   4  17
HETATM   17  C           1     -21.573  -7.336  -4.083  0.00  0.00     0.185 C 
BRANCH  17  18
HETATM   18  C           1     -21.631  -6.865  -2.651  0.00  0.00     0.196 C 
HETATM   19  O           1     -20.895  -7.393  -1.789  0.00  0.00    -0.646 OA
HETATM   20  O           1     -22.413  -5.947  -2.326  0.00  0.00    -0.646 OA
ENDBRANCH  17  18
BRANCH  17  21
HETATM   21  C           1     -20.935  -8.718  -4.138  0.00  0.00     0.038 C 
BRANCH  21  22
HETATM   22  C           1     -19.623  -8.642  -4.906  0.00  0.00     0.030 C 
BRANCH  22  23
HETATM   23  C           1     -18.549  -9.421  -4.158  0.00  0.00     0.230 C 
BRANCH  23  24
HETATM   24  N           1     -18.708  -9.202  -2.683  0.00  0.00    -0.079 N 
HETATM   25  H           1     -18.935 -10.110  -2.218  0.00  0.00     0.274 HD
HETATM   26  H           1     -19.483  -8.522  -2.513  0.00  0.00     0.274 HD
HETATM   27  H           1     -17.818  -8.822  -2.289  0.00  0.00     0.274 HD
ENDBRANCH  23  24
ENDBRANCH  22  23
ENDBRANCH  21  22
ENDBRANCH  17  21
ENDBRANCH   4  17
TORSDOF 12
ENDMDL
MODEL 7
REMARK VINA RESULT:      -5.2      1.838      2.439
REMARK  12 active torsions:
REMARK  status: ('A' for Active; 'I' for Inactive)
REMARK    1  A    between atoms: N_2  and  C_20 
REMARK    2  A    between atoms: C_5  and  C_20 
REMARK    3  A    between atoms: C_5  and  C_23 
REMARK       I    between atoms: C_9  and  N_25 
REMARK    4  A    between atoms: C_9  and  C_11 
REMARK    5  A    between atoms: C_10  and  C_18 
REMARK    6  A    between atoms: C_10  and  N_15 
REMARK    7  A    between atoms: C_11  and  C_17 
REMARK    8  A    between atoms: C_11  and  N_27 
REMARK    9  A    between atoms: C_16  and  C_21 
REMARK   10  A    between atoms: C_17  and  C_18 
REMARK   11  A    between atoms: C_21  and  C_23 
REMARK   12  A    between atoms: C_21  and  N_25 
ROOT
HETATM    1  O           1     -25.659  -6.108 -17.031  0.00  0.00    -0.271 OA
HETATM    2  C           1     -26.038  -6.339 -18.155  0.00  0.00     0.249 C 
HETATM    3  H           1     -27.696  -6.521 -19.382  0.00  0.00     0.163 HD
HETATM    4  N           1     -27.378  -6.328 -18.441  0.00  0.00    -0.345 N 
ENDROOT
BRANCH   2   5
HETATM    5  C           1     -25.037  -6.636 -19.244  0.00  0.00     0.274 C 
BRANCH   5   6
HETATM    6  C           1     -25.773  -6.913 -20.549  0.00  0.00     0.044 C 
BRANCH   6   7
HETATM    7  C           1     -25.183  -8.151 -21.211  0.00  0.00     0.030 C 
BRANCH   7   8
HETATM    8  C           1     -24.225  -7.730 -22.317  0.00  0.00     0.230 C 
BRANCH   8   9
HETATM    9  N           1     -22.961  -8.532 -22.218  0.00  0.00    -0.079 N 
HETATM   10  H           1     -23.049  -9.393 -22.804  0.00  0.00     0.274 HD
HETATM   11  H           1     -22.799  -8.804 -21.222  0.00  0.00     0.274 HD
HETATM   12  H           1     -22.157  -7.958 -22.558  0.00  0.00     0.274 HD
ENDBRANCH   8   9
ENDBRANCH   7   8
ENDBRANCH   6   7
ENDBRANCH   5   6
BRANCH   5  13
HETATM   13  N           1     -24.225  -7.838 -18.862  0.00  0.00    -0.067 N 
HETATM   14  H           1     -24.383  -8.058 -17.853  0.00  0.00     0.275 HD
HETATM   15  H           1     -24.516  -8.654 -19.446  0.00  0.00     0.275 HD
HETATM   16  H           1     -23.211  -7.638 -19.021  0.00  0.00     0.275 HD
ENDBRANCH   5  13
ENDBRANCH   2   5
BRANCH   4  17
HETATM   17  C           1     -28.341  -6.042 -17.395  0.00  0.00     0.185 C 
BRANCH  17  18
HETATM   18  C           1     -28.775  -7.333 -16.746  0.00  0.00     0.196 C 
HETATM   19  O           1     -28.264  -7.690 -15.662  0.00  0.00    -0.646 OA
HETATM   20  O           1     -29.646  -8.045 -17.291  0.00  0.00    -0.646 OA
ENDBRANCH  17  18
BRANCH  17  21
HETATM   21  C           1     -29.552  -5.344 -17.999  0.00  0.00     0.038 C 
BRANCH  21  22
HETATM   22  C           1     -30.277  -4.556 -16.916  0.00  0.00     0.030 C 
BRANCH  22  23
HETATM   23  C           1     -31.781  -4.731 -17.080  0.00  0.00     0.230 C 
BRANCH  23  24
HETATM   24  N           1     -32.130  -6.186 -16.973  0.00  0.00    -0.079 N 
HETATM   25  H           1     -32.742  -6.337 -16.139  0.00  0.00     0.274 HD
HETATM   26  H           1     -31.255  -6.748 -16.868  0.00  0.00     0.274 HD
HETATM   27  H           1     -32.636  -6.487 -17.836  0.00  0.00     0.274 HD
ENDBRANCH  23  24
ENDBRANCH  22  23
ENDBRANCH  21  22
ENDBRANCH  17  21
ENDBRANCH   4  17
TORSDOF 12
ENDMDL
MODEL 8
REMARK VINA RESULT:      -5.2     12.066     14.351
REMARK  12 active torsions:
REMARK  status: ('A' for Active; 'I' for Inactive)
REMARK    1  A    between atoms: N_2  and  C_20 
REMARK    2  A    between atoms: C_5  and  C_20 
REMARK    3  A    between atoms: C_5  and  C_23 
REMARK       I    between atoms: C_9  and  N_25 
REMARK    4  A    between atoms: C_9  and  C_11 
REMARK    5  A    between atoms: C_10  and  C_18 
REMARK    6  A    between atoms: C_10  and  N_15 
REMARK    7  A    between atoms: C_11  and  C_17 
REMARK    8  A    between atoms: C_11  and  N_27 
REMARK    9  A    between atoms: C_16  and  C_21 
REMARK   10  A    between atoms: C_17  and  C_18 
REMARK   11  A    between atoms: C_21  and  C_23 
REMARK   12  A    between atoms: C_21  and  N_25 
ROOT
HETATM    1  O           1     -19.595  -4.563  -5.959  0.00  0.00    -0.271 OA
HETATM    2  C           1     -20.723  -4.687  -6.373  0.00  0.00     0.249 C 
HETATM    3  H           1     -22.522  -5.678  -6.120  0.00  0.00     0.163 HD
HETATM    4  N           1     -21.577  -5.574  -5.774  0.00  0.00    -0.345 N 
ENDROOT
BRANCH   2   5
HETATM    5  C           1     -21.191  -3.863  -7.547  0.00  0.00     0.274 C 
BRANCH   5   6
HETATM    6  C           1     -22.613  -4.267  -7.915  0.00  0.00     0.044 C 
BRANCH   6   7
HETATM    7  C           1     -22.935  -3.771  -9.318  0.00  0.00     0.030 C 
BRANCH   7   8
HETATM    8  C           1     -24.167  -4.495  -9.845  0.00  0.00     0.230 C 
BRANCH   8   9
HETATM    9  N           1     -25.374  -3.622  -9.669  0.00  0.00    -0.079 N 
HETATM   10  H           1     -26.056  -3.813 -10.438  0.00  0.00     0.274 HD
HETATM   11  H           1     -25.085  -2.618  -9.700  0.00  0.00     0.274 HD
HETATM   12  H           1     -25.821  -3.827  -8.747  0.00  0.00     0.274 HD
ENDBRANCH   8   9
ENDBRANCH   7   8
ENDBRANCH   6   7
ENDBRANCH   5   6
BRANCH   5  13
HETATM   13  N           1     -20.285  -4.101  -8.718  0.00  0.00    -0.067 N 
HETATM   14  H           1     -19.741  -3.232  -8.920  0.00  0.00     0.275 HD
HETATM   15  H           1     -19.626  -4.881  -8.495  0.00  0.00     0.275 HD
HETATM   16  H           1     -20.857  -4.356  -9.555  0.00  0.00     0.275 HD
ENDBRANCH   5  13
ENDBRANCH   2   5
BRANCH   4  17
HETATM   17  C           1     -21.128  -6.366  -4.645  0.00  0.00     0.185 C 
BRANCH  17  18
HETATM   18  C           1     -20.646  -7.710  -5.134  0.00  0.00     0.196 C 
HETATM   19  O           1     -21.188  -8.244  -6.126  0.00  0.00    -0.646 OA
HETATM   20  O           1     -19.707  -8.288  -4.548  0.00  0.00    -0.646 OA
ENDBRANCH  17  18
BRANCH  17  21
HETATM   21  C           1     -22.283  -6.563  -3.673  0.00  0.00     0.038 C 
BRANCH  21  22
HETATM   22  C           1     -21.843  -6.157  -2.272  0.00  0.00     0.030 C 
BRANCH  22  23
HETATM   23  C           1     -21.777  -7.391  -1.382  0.00  0.00     0.230 C 
BRANCH  23  24
HETATM   24  N           1     -20.427  -8.031  -1.514  0.00  0.00    -0.079 N 
HETATM   25  H           1     -20.199  -8.159  -2.526  0.00  0.00     0.274 HD
HETATM   26  H           1     -20.434  -8.962  -1.040  0.00  0.00     0.274 HD
HETATM   27  H           1     -19.706  -7.419  -1.069  0.00  0.00     0.274 HD
ENDBRANCH  23  24
ENDBRANCH  22  23
ENDBRANCH  21  22
ENDBRANCH  17  21
ENDBRANCH   4  17
TORSDOF 12
ENDMDL
MODEL 9
REMARK VINA RESULT:      -5.2      2.202      2.765
REMARK  12 active torsions:
REMARK  status: ('A' for Active; 'I' for Inactive)
REMARK    1  A    between atoms: N_2  and  C_20 
REMARK    2  A    between atoms: C_5  and  C_20 
REMARK    3  A    between atoms: C_5  and  C_23 
REMARK       I    between atoms: C_9  and  N_25 
REMARK    4  A    between atoms: C_9  and  C_11 
REMARK    5  A    between atoms: C_10  and  C_18 
REMARK    6  A    between atoms: C_10  and  N_15 
REMARK    7  A    between atoms: C_11  and  C_17 
REMARK    8  A    between atoms: C_11  and  N_27 
REMARK    9  A    between atoms: C_16  and  C_21 
REMARK   10  A    between atoms: C_17  and  C_18 
REMARK   11  A    between atoms: C_21  and  C_23 
REMARK   12  A    between atoms: C_21  and  N_25 
ROOT
HETATM    1  O           1     -25.938  -6.385 -18.456  0.00  0.00    -0.271 OA
HETATM    2  C           1     -26.484  -6.687 -19.491  0.00  0.00     0.249 C 
HETATM    3  H           1     -28.304  -7.075 -20.398  0.00  0.00     0.163 HD
HETATM    4  N           1     -27.846  -6.823 -19.531  0.00  0.00    -0.345 N 
ENDROOT
BRANCH   2   5
HETATM    5  C           1     -25.666  -6.911 -20.739  0.00  0.00     0.274 C 
BRANCH   5   6
HETATM    6  C           1     -24.444  -7.755 -20.400  0.00  0.00     0.044 C 
BRANCH   6   7
HETATM    7  C           1     -23.780  -8.226 -21.687  0.00  0.00     0.030 C 
BRANCH   7   8
HETATM    8  C           1     -22.356  -8.677 -21.389  0.00  0.00     0.230 C 
BRANCH   8   9
HETATM    9  N           1     -21.913  -9.659 -22.432  0.00  0.00    -0.079 N 
HETATM   10  H           1     -22.708 -10.293 -22.673  0.00  0.00     0.274 HD
HETATM   11  H           1     -21.116 -10.226 -22.062  0.00  0.00     0.274 HD
HETATM   12  H           1     -21.605  -9.144 -23.288  0.00  0.00     0.274 HD
ENDBRANCH   8   9
ENDBRANCH   7   8
ENDBRANCH   6   7
ENDBRANCH   5   6
BRANCH   5  13
HETATM   13  N           1     -25.223  -5.589 -21.291  0.00  0.00    -0.067 N 
HETATM   14  H           1     -24.343  -5.718 -21.839  0.00  0.00     0.275 HD
HETATM   15  H           1     -25.968  -5.205 -21.914  0.00  0.00     0.275 HD
HETATM   16  H           1     -25.049  -4.924 -20.504  0.00  0.00     0.275 HD
ENDBRANCH   5  13
ENDBRANCH   2   5
BRANCH   4  17
HETATM   17  C           1     -28.633  -6.607 -18.332  0.00  0.00     0.185 C 
BRANCH  17  18
HETATM   18  C           1     -29.821  -7.537 -18.337  0.00  0.00     0.196 C 
HETATM   19  O           1     -29.842  -8.520 -19.110  0.00  0.00    -0.646 OA
HETATM   20  O           1     -30.783  -7.325 -17.569  0.00  0.00    -0.646 OA
ENDBRANCH  17  18
BRANCH  17  21
HETATM   21  C           1     -29.117  -5.164 -18.298  0.00  0.00     0.038 C 
BRANCH  21  22
HETATM   22  C           1     -28.568  -4.473 -17.057  0.00  0.00     0.030 C 
BRANCH  22  23
HETATM   23  C           1     -28.392  -5.495 -15.942  0.00  0.00     0.230 C 
BRANCH  23  24
HETATM   24  N           1     -29.677  -5.628 -15.178  0.00  0.00    -0.079 N 
HETATM   25  H           1     -29.917  -4.710 -14.739  0.00  0.00     0.274 HD
HETATM   26  H           1     -29.566  -6.351 -14.432  0.00  0.00     0.274 HD
HETATM   27  H           1     -30.441  -5.914 -15.830  0.00  0.00     0.274 HD
ENDBRANCH  23  24
ENDBRANCH  22  23
ENDBRANCH  21  22
ENDBRANCH  17  21
ENDBRANCH   4  17
TORSDOF 12
ENDMDL
