MODEL 1
REMARK VINA RESULT:      -7.4      0.000      0.000
REMARK  9 active torsions:
REMARK  status: ('A' for Active; 'I' for Inactive)
REMARK    1  A    between atoms: O_1  and  C_20 
REMARK    2  A    between atoms: C_8  and  C_16 
REMARK    3  A    between atoms: C_8  and  C_13 
REMARK    4  A    between atoms: N_9  and  C_25 
REMARK       I    between atoms: N_9  and  C_15 
REMARK    5  A    between atoms: C_14  and  C_22 
REMARK    6  A    between atoms: C_14  and  C_25 
REMARK    7  A    between atoms: C_15  and  C_16 
REMARK    8  A    between atoms: C_16  and  N_17 
REMARK    9  A    between atoms: C_23  and  C_25 
ROOT
HETATM    1  C           1     -22.191  -5.252  -6.659  0.00  0.00     0.278 C 
ENDROOT
BRANCH   1   2
HETATM    2  C           1     -21.645  -3.922  -7.164  0.00  0.00     0.081 C 
BRANCH   2   3
HETATM    3  C           1     -21.658  -3.914  -8.661  0.00  0.00    -0.056 A 
HETATM    4  C           1     -20.481  -4.160  -9.368  0.00  0.00     0.010 A 
HETATM    5  C           1     -20.493  -4.153 -10.764  0.00  0.00     0.037 A 
HETATM    6  C           1     -21.679  -3.899 -11.450  0.00  0.00     0.065 A 
HETATM    7  C           1     -22.856  -3.653 -10.742  0.00  0.00     0.037 A 
HETATM    8  C           1     -22.845  -3.660  -9.347  0.00  0.00     0.010 A 
BRANCH   6   9
HETATM    9  O           1     -21.690  -3.892 -12.805  0.00  0.00    -0.361 OA
HETATM   10  H           1     -21.472  -2.993 -13.102  0.00  0.00     0.217 HD
ENDBRANCH   6   9
ENDBRANCH   2   3
ENDBRANCH   1   2
BRANCH   1  11
HETATM   11  C           1     -21.320  -5.759  -5.536  0.00  0.00     0.249 C 
HETATM   12  N           1     -21.573  -6.982  -4.972  0.00  0.00    -0.344 N 
HETATM   13  H           1     -22.343  -7.544  -5.309  0.00  0.00     0.163 HD
HETATM   14  O           1     -20.400  -5.088  -5.133  0.00  0.00    -0.271 OA
BRANCH  12  15
HETATM   15  C           1     -20.737  -7.469  -3.893  0.00  0.00     0.195 C 
BRANCH  15  16
HETATM   16  C           1     -21.615  -8.050  -2.793  0.00  0.00     0.149 C 
BRANCH  16  17
HETATM   17  C           1     -22.009  -6.956  -1.832  0.00  0.00     0.175 C 
HETATM   18  O           1     -22.011  -7.175  -0.601  0.00  0.00    -0.648 OA
HETATM   19  O           1     -22.335  -5.830  -2.266  0.00  0.00    -0.648 OA
ENDBRANCH  16  17
ENDBRANCH  15  16
BRANCH  15  20
HETATM   20  C           1     -19.813  -8.540  -4.418  0.00  0.00     0.197 C 
HETATM   21  O           1     -19.981  -9.001  -5.568  0.00  0.00    -0.646 OA
HETATM   22  O           1     -18.879  -8.965  -3.704  0.00  0.00    -0.646 OA
ENDBRANCH  15  20
ENDBRANCH  12  15
ENDBRANCH   1  11
BRANCH   1  23
HETATM   23  N           1     -23.591  -5.058  -6.157  0.00  0.00    -0.066 N 
HETATM   24  H           1     -23.827  -5.818  -5.480  0.00  0.00     0.275 HD
HETATM   25  H           1     -24.257  -5.091  -6.962  0.00  0.00     0.275 HD
HETATM   26  H           1     -23.664  -4.131  -5.681  0.00  0.00     0.275 HD
ENDBRANCH   1  23
TORSDOF 9
ENDMDL
MODEL 2
REMARK VINA RESULT:      -7.1      2.204      7.744
REMARK  9 active torsions:
REMARK  status: ('A' for Active; 'I' for Inactive)
REMARK    1  A    between atoms: O_1  and  C_20 
REMARK    2  A    between atoms: C_8  and  C_16 
REMARK    3  A    between atoms: C_8  and  C_13 
REMARK    4  A    between atoms: N_9  and  C_25 
REMARK       I    between atoms: N_9  and  C_15 
REMARK    5  A    between atoms: C_14  and  C_22 
REMARK    6  A    between atoms: C_14  and  C_25 
REMARK    7  A    between atoms: C_15  and  C_16 
REMARK    8  A    between atoms: C_16  and  N_17 
REMARK    9  A    between atoms: C_23  and  C_25 
ROOT
HETATM    1  C           1     -21.181  -5.757  -6.776  0.00  0.00     0.278 C 
ENDROOT
BRANCH   1   2
HETATM    2  C           1     -20.911  -5.256  -5.363  0.00  0.00     0.081 C 
BRANCH   2   3
HETATM    3  C           1     -21.166  -6.360  -4.385  0.00  0.00    -0.056 A 
HETATM    4  C           1     -21.307  -6.070  -3.028  0.00  0.00     0.010 A 
HETATM    5  C           1     -21.544  -7.100  -2.116  0.00  0.00     0.037 A 
HETATM    6  C           1     -21.640  -8.417  -2.561  0.00  0.00     0.065 A 
HETATM    7  C           1     -21.499  -8.707  -3.918  0.00  0.00     0.037 A 
HETATM    8  C           1     -21.262  -7.679  -4.830  0.00  0.00     0.010 A 
BRANCH   6   9
HETATM    9  O           1     -21.870  -9.417  -1.675  0.00  0.00    -0.361 OA
HETATM   10  H           1     -21.478  -9.159  -0.824  0.00  0.00     0.217 HD
ENDBRANCH   6   9
ENDBRANCH   2   3
ENDBRANCH   1   2
BRANCH   1  11
HETATM   11  C           1     -21.703  -4.622  -7.622  0.00  0.00     0.249 C 
HETATM   12  N           1     -22.282  -4.882  -8.835  0.00  0.00    -0.344 N 
HETATM   13  H           1     -22.360  -5.835  -9.165  0.00  0.00     0.163 HD
HETATM   14  O           1     -21.611  -3.483  -7.229  0.00  0.00    -0.271 OA
BRANCH  12  15
HETATM   15  C           1     -22.784  -3.791  -9.648  0.00  0.00     0.195 C 
BRANCH  15  16
HETATM   16  C           1     -22.237  -3.919 -11.063  0.00  0.00     0.149 C 
BRANCH  16  17
HETATM   17  C           1     -20.740  -3.736 -11.044  0.00  0.00     0.175 C 
HETATM   18  O           1     -19.993  -4.711 -10.814  0.00  0.00    -0.648 OA
HETATM   19  O           1     -20.245  -2.608 -11.258  0.00  0.00    -0.648 OA
ENDBRANCH  16  17
ENDBRANCH  15  16
BRANCH  15  20
HETATM   20  C           1     -24.291  -3.844  -9.683  0.00  0.00     0.197 C 
HETATM   21  O           1     -24.874  -4.933  -9.878  0.00  0.00    -0.646 OA
HETATM   22  O           1     -24.957  -2.799  -9.518  0.00  0.00    -0.646 OA
ENDBRANCH  15  20
ENDBRANCH  12  15
ENDBRANCH   1  11
BRANCH   1  23
HETATM   23  N           1     -19.907  -6.279  -7.371  0.00  0.00    -0.066 N 
HETATM   24  H           1     -19.131  -5.605  -7.181  0.00  0.00     0.275 HD
HETATM   25  H           1     -20.025  -6.391  -8.403  0.00  0.00     0.275 HD
HETATM   26  H           1     -19.676  -7.204  -6.943  0.00  0.00     0.275 HD
ENDBRANCH   1  23
TORSDOF 9
ENDMDL
MODEL 3
REMARK VINA RESULT:      -7.0     12.820     15.077
REMARK  9 active torsions:
REMARK  status: ('A' for Active; 'I' for Inactive)
REMARK    1  A    between atoms: O_1  and  C_20 
REMARK    2  A    between atoms: C_8  and  C_16 
REMARK    3  A    between atoms: C_8  and  C_13 
REMARK    4  A    between atoms: N_9  and  C_25 
REMARK       I    between atoms: N_9  and  C_15 
REMARK    5  A    between atoms: C_14  and  C_22 
REMARK    6  A    between atoms: C_14  and  C_25 
REMARK    7  A    between atoms: C_15  and  C_16 
REMARK    8  A    between atoms: C_16  and  N_17 
REMARK    9  A    between atoms: C_23  and  C_25 
ROOT
HETATM    1  C           1     -26.181  -7.685 -20.572  0.00  0.00     0.278 C 
ENDROOT
BRANCH   1   2
HETATM    2  C           1     -25.360  -7.150 -21.738  0.00  0.00     0.081 C 
BRANCH   2   3
HETATM    3  C           1     -24.002  -7.780 -21.723  0.00  0.00    -0.056 A 
HETATM    4  C           1     -23.466  -8.306 -22.898  0.00  0.00     0.010 A 
HETATM    5  C           1     -22.200  -8.893 -22.884  0.00  0.00     0.037 A 
HETATM    6  C           1     -21.472  -8.954 -21.697  0.00  0.00     0.065 A 
HETATM    7  C           1     -22.009  -8.428 -20.522  0.00  0.00     0.037 A 
HETATM    8  C           1     -23.274  -7.841 -20.535  0.00  0.00     0.010 A 
BRANCH   6   9
HETATM    9  O           1     -20.243  -9.525 -21.684  0.00  0.00    -0.361 OA
HETATM   10  H           1     -20.291 -10.351 -22.192  0.00  0.00     0.217 HD
ENDBRANCH   6   9
ENDBRANCH   2   3
ENDBRANCH   1   2
BRANCH   1  11
HETATM   11  C           1     -27.003  -6.566 -19.980  0.00  0.00     0.249 C 
HETATM   12  N           1     -27.574  -6.715 -18.744  0.00  0.00    -0.344 N 
HETATM   13  H           1     -27.444  -7.575 -18.228  0.00  0.00     0.163 HD
HETATM   14  O           1     -27.158  -5.539 -20.596  0.00  0.00    -0.271 OA
BRANCH  12  15
HETATM   15  C           1     -28.364  -5.641 -18.176  0.00  0.00     0.195 C 
BRANCH  15  16
HETATM   16  C           1     -29.805  -6.103 -18.009  0.00  0.00     0.149 C 
BRANCH  16  17
HETATM   17  C           1     -29.855  -7.611 -18.023  0.00  0.00     0.175 C 
HETATM   18  O           1     -30.235  -8.215 -19.049  0.00  0.00    -0.648 OA
HETATM   19  O           1     -29.517  -8.258 -17.008  0.00  0.00    -0.648 OA
ENDBRANCH  16  17
ENDBRANCH  15  16
BRANCH  15  20
HETATM   20  C           1     -27.798  -5.259 -16.830  0.00  0.00     0.197 C 
HETATM   21  O           1     -26.573  -5.378 -16.611  0.00  0.00    -0.646 OA
HETATM   22  O           1     -28.554  -4.824 -15.935  0.00  0.00    -0.646 OA
ENDBRANCH  15  20
ENDBRANCH  12  15
ENDBRANCH   1  11
BRANCH   1  23
HETATM   23  N           1     -27.093  -8.771 -21.060  0.00  0.00    -0.066 N 
HETATM   24  H           1     -26.967  -8.895 -22.090  0.00  0.00     0.275 HD
HETATM   25  H           1     -28.085  -8.509 -20.860  0.00  0.00     0.275 HD
HETATM   26  H           1     -26.862  -9.665 -20.571  0.00  0.00     0.275 HD
ENDBRANCH   1  23
TORSDOF 9
ENDMDL
MODEL 4
REMARK VINA RESULT:      -7.0      1.208      2.722
REMARK  9 active torsions:
REMARK  status: ('A' for Active; 'I' for Inactive)
REMARK    1  A    between atoms: O_1  and  C_20 
REMARK    2  A    between atoms: C_8  and  C_16 
REMARK    3  A    between atoms: C_8  and  C_13 
REMARK    4  A    between atoms: N_9  and  C_25 
REMARK       I    between atoms: N_9  and  C_15 
REMARK    5  A    between atoms: C_14  and  C_22 
REMARK    6  A    between atoms: C_14  and  C_25 
REMARK    7  A    between atoms: C_15  and  C_16 
REMARK    8  A    between atoms: C_16  and  N_17 
REMARK    9  A    between atoms: C_23  and  C_25 
ROOT
HETATM    1  C           1     -20.388  -5.123  -6.560  0.00  0.00     0.278 C 
ENDROOT
BRANCH   1   2
HETATM    2  C           1     -21.069  -3.858  -7.067  0.00  0.00     0.081 C 
BRANCH   2   3
HETATM    3  C           1     -21.428  -4.029  -8.510  0.00  0.00    -0.056 A 
HETATM    4  C           1     -20.452  -3.874  -9.494  0.00  0.00     0.010 A 
HETATM    5  C           1     -20.787  -4.034 -10.839  0.00  0.00     0.037 A 
HETATM    6  C           1     -22.096  -4.350 -11.200  0.00  0.00     0.065 A 
HETATM    7  C           1     -23.072  -4.505 -10.216  0.00  0.00     0.037 A 
HETATM    8  C           1     -22.738  -4.345  -8.871  0.00  0.00     0.010 A 
BRANCH   6   9
HETATM    9  O           1     -22.421  -4.505 -12.506  0.00  0.00    -0.361 OA
HETATM   10  H           1     -22.118  -5.384 -12.788  0.00  0.00     0.217 HD
ENDBRANCH   6   9
ENDBRANCH   2   3
ENDBRANCH   1   2
BRANCH   1  11
HETATM   11  C           1     -21.319  -5.854  -5.624  0.00  0.00     0.249 C 
HETATM   12  N           1     -20.822  -6.788  -4.754  0.00  0.00    -0.344 N 
HETATM   13  H           1     -19.830  -6.988  -4.740  0.00  0.00     0.163 HD
HETATM   14  O           1     -22.503  -5.615  -5.640  0.00  0.00    -0.271 OA
BRANCH  12  15
HETATM   15  C           1     -21.715  -7.490  -3.855  0.00  0.00     0.195 C 
BRANCH  15  16
HETATM   16  C           1     -21.319  -8.959  -3.789  0.00  0.00     0.149 C 
BRANCH  16  17
HETATM   17  C           1     -20.045  -9.173  -4.568  0.00  0.00     0.175 C 
HETATM   18  O           1     -18.938  -8.956  -4.029  0.00  0.00    -0.648 OA
HETATM   19  O           1     -20.096  -9.567  -5.754  0.00  0.00    -0.648 OA
ENDBRANCH  16  17
ENDBRANCH  15  16
BRANCH  15  20
HETATM   20  C           1     -21.622  -6.881  -2.478  0.00  0.00     0.197 C 
HETATM   21  O           1     -20.858  -7.382  -1.624  0.00  0.00    -0.646 OA
HETATM   22  O           1     -22.308  -5.877  -2.190  0.00  0.00    -0.646 OA
ENDBRANCH  15  20
ENDBRANCH  12  15
ENDBRANCH   1  11
BRANCH   1  23
HETATM   23  N           1     -20.053  -6.009  -7.723  0.00  0.00    -0.066 N 
HETATM   24  H           1     -19.527  -6.846  -7.383  0.00  0.00     0.275 HD
HETATM   25  H           1     -19.464  -5.481  -8.405  0.00  0.00     0.275 HD
HETATM   26  H           1     -20.935  -6.319  -8.189  0.00  0.00     0.275 HD
ENDBRANCH   1  23
TORSDOF 9
ENDMDL
MODEL 5
REMARK VINA RESULT:      -6.5      1.922      2.492
REMARK  9 active torsions:
REMARK  status: ('A' for Active; 'I' for Inactive)
REMARK    1  A    between atoms: O_1  and  C_20 
REMARK    2  A    between atoms: C_8  and  C_16 
REMARK    3  A    between atoms: C_8  and  C_13 
REMARK    4  A    between atoms: N_9  and  C_25 
REMARK       I    between atoms: N_9  and  C_15 
REMARK    5  A    between atoms: C_14  and  C_22 
REMARK    6  A    between atoms: C_14  and  C_25 
REMARK    7  A    between atoms: C_15  and  C_16 
REMARK    8  A    between atoms: C_16  and  N_17 
REMARK    9  A    between atoms: C_23  and  C_25 
ROOT
HETATM    1  C           1     -21.758  -5.791  -6.706  0.00  0.00     0.278 C 
ENDROOT
BRANCH   1   2
HETATM    2  C           1     -21.061  -4.509  -7.142  0.00  0.00     0.081 C 
BRANCH   2   3
HETATM    3  C           1     -21.237  -4.323  -8.617  0.00  0.00    -0.056 A 
HETATM    4  C           1     -22.464  -3.893  -9.124  0.00  0.00     0.010 A 
HETATM    5  C           1     -22.628  -3.720 -10.499  0.00  0.00     0.037 A 
HETATM    6  C           1     -21.567  -3.976 -11.366  0.00  0.00     0.065 A 
HETATM    7  C           1     -20.340  -4.406 -10.859  0.00  0.00     0.037 A 
HETATM    8  C           1     -20.175  -4.579  -9.485  0.00  0.00     0.010 A 
BRANCH   6   9
HETATM    9  O           1     -21.727  -3.808 -12.701  0.00  0.00    -0.361 OA
HETATM   10  H           1     -21.214  -3.027 -12.968  0.00  0.00     0.217 HD
ENDBRANCH   6   9
ENDBRANCH   2   3
ENDBRANCH   1   2
BRANCH   1  11
HETATM   11  C           1     -20.731  -6.775  -6.201  0.00  0.00     0.249 C 
HETATM   12  N           1     -21.029  -7.596  -5.146  0.00  0.00    -0.344 N 
HETATM   13  H           1     -21.938  -7.542  -4.704  0.00  0.00     0.163 HD
HETATM   14  O           1     -19.646  -6.840  -6.728  0.00  0.00    -0.271 OA
BRANCH  12  15
HETATM   15  C           1     -20.043  -8.540  -4.661  0.00  0.00     0.195 C 
BRANCH  15  16
HETATM   16  C           1     -20.086  -8.585  -3.140  0.00  0.00     0.149 C 
BRANCH  16  17
HETATM   17  C           1     -18.959  -9.448  -2.629  0.00  0.00     0.175 C 
HETATM   18  O           1     -17.781  -9.204  -2.967  0.00  0.00    -0.648 OA
HETATM   19  O           1     -19.203 -10.408  -1.866  0.00  0.00    -0.648 OA
ENDBRANCH  16  17
ENDBRANCH  15  16
BRANCH  15  20
HETATM   20  C           1     -20.347  -9.911  -5.213  0.00  0.00     0.197 C 
HETATM   21  O           1     -19.533 -10.470  -5.982  0.00  0.00    -0.646 OA
HETATM   22  O           1     -21.410 -10.489  -4.903  0.00  0.00    -0.646 OA
ENDBRANCH  15  20
ENDBRANCH  12  15
ENDBRANCH   1  11
BRANCH   1  23
HETATM   23  N           1     -22.733  -5.480  -5.608  0.00  0.00    -0.066 N 
HETATM   24  H           1     -22.407  -5.920  -4.718  0.00  0.00     0.275 HD
HETATM   25  H           1     -23.673  -5.859  -5.860  0.00  0.00     0.275 HD
HETATM   26  H           1     -22.795  -4.444  -5.482  0.00  0.00     0.275 HD
ENDBRANCH   1  23
TORSDOF 9
ENDMDL
MODEL 6
REMARK VINA RESULT:      -6.3      2.121      3.498
REMARK  9 active torsions:
REMARK  status: ('A' for Active; 'I' for Inactive)
REMARK    1  A    between atoms: O_1  and  C_20 
REMARK    2  A    between atoms: C_8  and  C_16 
REMARK    3  A    between atoms: C_8  and  C_13 
REMARK    4  A    between atoms: N_9  and  C_25 
REMARK       I    between atoms: N_9  and  C_15 
REMARK    5  A    between atoms: C_14  and  C_22 
REMARK    6  A    between atoms: C_14  and  C_25 
REMARK    7  A    between atoms: C_15  and  C_16 
REMARK    8  A    between atoms: C_16  and  N_17 
REMARK    9  A    between atoms: C_23  and  C_25 
ROOT
HETATM    1  C           1     -20.283  -7.799  -4.996  0.00  0.00     0.278 C 
ENDROOT
BRANCH   1   2
HETATM    2  C           1     -20.881  -6.412  -4.799  0.00  0.00     0.081 C 
BRANCH   2   3
HETATM    3  C           1     -20.948  -5.707  -6.118  0.00  0.00    -0.056 A 
HETATM    4  C           1     -22.145  -5.127  -6.537  0.00  0.00     0.010 A 
HETATM    5  C           1     -22.208  -4.470  -7.767  0.00  0.00     0.037 A 
HETATM    6  C           1     -21.075  -4.392  -8.575  0.00  0.00     0.065 A 
HETATM    7  C           1     -19.877  -4.971  -8.155  0.00  0.00     0.037 A 
HETATM    8  C           1     -19.813  -5.629  -6.927  0.00  0.00     0.010 A 
BRANCH   6   9
HETATM    9  O           1     -21.136  -3.753  -9.769  0.00  0.00    -0.361 OA
HETATM   10  H           1     -20.261  -3.371  -9.949  0.00  0.00     0.217 HD
ENDBRANCH   6   9
ENDBRANCH   2   3
ENDBRANCH   1   2
BRANCH   1  11
HETATM   11  C           1     -20.114  -8.469  -3.654  0.00  0.00     0.249 C 
HETATM   12  N           1     -21.158  -8.500  -2.768  0.00  0.00    -0.344 N 
HETATM   13  H           1     -22.042  -8.074  -3.013  0.00  0.00     0.163 HD
HETATM   14  O           1     -19.059  -8.978  -3.361  0.00  0.00    -0.271 OA
BRANCH  12  15
HETATM   15  C           1     -20.996  -9.143  -1.479  0.00  0.00     0.195 C 
BRANCH  15  16
HETATM   16  C           1     -21.124  -8.104  -0.373  0.00  0.00     0.149 C 
BRANCH  16  17
HETATM   17  C           1     -22.327  -7.233  -0.637  0.00  0.00     0.175 C 
HETATM   18  O           1     -23.405  -7.459  -0.046  0.00  0.00    -0.648 OA
HETATM   19  O           1     -22.246  -6.284  -1.447  0.00  0.00    -0.648 OA
ENDBRANCH  16  17
ENDBRANCH  15  16
BRANCH  15  20
HETATM   20  C           1     -22.062 -10.196  -1.306  0.00  0.00     0.197 C 
HETATM   21  O           1     -22.708 -10.600  -2.298  0.00  0.00    -0.646 OA
HETATM   22  O           1     -22.300 -10.665  -0.172  0.00  0.00    -0.646 OA
ENDBRANCH  15  20
ENDBRANCH  12  15
ENDBRANCH   1  11
BRANCH   1  23
HETATM   23  N           1     -21.200  -8.621  -5.852  0.00  0.00    -0.066 N 
HETATM   24  H           1     -21.954  -8.011  -6.240  0.00  0.00     0.275 HD
HETATM   25  H           1     -21.629  -9.380  -5.275  0.00  0.00     0.275 HD
HETATM   26  H           1     -20.656  -9.045  -6.637  0.00  0.00     0.275 HD
ENDBRANCH   1  23
TORSDOF 9
ENDMDL
MODEL 7
REMARK VINA RESULT:      -6.3      1.674      3.153
REMARK  9 active torsions:
REMARK  status: ('A' for Active; 'I' for Inactive)
REMARK    1  A    between atoms: O_1  and  C_20 
REMARK    2  A    between atoms: C_8  and  C_16 
REMARK    3  A    between atoms: C_8  and  C_13 
REMARK    4  A    between atoms: N_9  and  C_25 
REMARK       I    between atoms: N_9  and  C_15 
REMARK    5  A    between atoms: C_14  and  C_22 
REMARK    6  A    between atoms: C_14  and  C_25 
REMARK    7  A    between atoms: C_15  and  C_16 
REMARK    8  A    between atoms: C_16  and  N_17 
REMARK    9  A    between atoms: C_23  and  C_25 
ROOT
HETATM    1  C           1     -20.893  -5.134  -6.157  0.00  0.00     0.278 C 
ENDROOT
BRANCH   1   2
HETATM    2  C           1     -20.707  -5.565  -7.606  0.00  0.00     0.081 C 
BRANCH   2   3
HETATM    3  C           1     -21.717  -4.872  -8.466  0.00  0.00    -0.056 A 
HETATM    4  C           1     -22.953  -4.507  -7.933  0.00  0.00     0.010 A 
HETATM    5  C           1     -23.894  -3.860  -8.735  0.00  0.00     0.037 A 
HETATM    6  C           1     -23.600  -3.578 -10.068  0.00  0.00     0.065 A 
HETATM    7  C           1     -22.363  -3.943 -10.601  0.00  0.00     0.037 A 
HETATM    8  C           1     -21.421  -4.589  -9.800  0.00  0.00     0.010 A 
BRANCH   6   9
HETATM    9  O           1     -24.514  -2.951 -10.846  0.00  0.00    -0.361 OA
HETATM   10  H           1     -24.202  -2.990 -11.766  0.00  0.00     0.217 HD
ENDBRANCH   6   9
ENDBRANCH   2   3
ENDBRANCH   1   2
BRANCH   1  11
HETATM   11  C           1     -21.216  -6.341  -5.310  0.00  0.00     0.249 C 
HETATM   12  N           1     -21.136  -6.262  -3.945  0.00  0.00    -0.344 N 
HETATM   13  H           1     -20.860  -5.394  -3.505  0.00  0.00     0.163 HD
HETATM   14  O           1     -21.546  -7.377  -5.836  0.00  0.00    -0.271 OA
BRANCH  12  15
HETATM   15  C           1     -21.446  -7.421  -3.132  0.00  0.00     0.195 C 
BRANCH  15  16
HETATM   16  C           1     -20.164  -8.181  -2.821  0.00  0.00     0.149 C 
BRANCH  16  17
HETATM   17  C           1     -20.351  -9.641  -3.151  0.00  0.00     0.175 C 
HETATM   18  O           1     -20.216 -10.038  -4.329  0.00  0.00    -0.648 OA
HETATM   19  O           1     -20.641 -10.455  -2.247  0.00  0.00    -0.648 OA
ENDBRANCH  16  17
ENDBRANCH  15  16
BRANCH  15  20
HETATM   20  C           1     -22.091  -6.972  -1.844  0.00  0.00     0.197 C 
HETATM   21  O           1     -22.451  -5.782  -1.707  0.00  0.00    -0.646 OA
HETATM   22  O           1     -22.265  -7.789  -0.915  0.00  0.00    -0.646 OA
ENDBRANCH  15  20
ENDBRANCH  12  15
ENDBRANCH   1  11
BRANCH   1  23
HETATM   23  N           1     -19.629  -4.499  -5.659  0.00  0.00    -0.066 N 
HETATM   24  H           1     -19.694  -4.355  -4.626  0.00  0.00     0.275 HD
HETATM   25  H           1     -19.493  -3.577  -6.130  0.00  0.00     0.275 HD
HETATM   26  H           1     -18.819  -5.124  -5.872  0.00  0.00     0.275 HD
ENDBRANCH   1  23
TORSDOF 9
ENDMDL
MODEL 8
REMARK VINA RESULT:      -6.2      2.205      3.747
REMARK  9 active torsions:
REMARK  status: ('A' for Active; 'I' for Inactive)
REMARK    1  A    between atoms: O_1  and  C_20 
REMARK    2  A    between atoms: C_8  and  C_16 
REMARK    3  A    between atoms: C_8  and  C_13 
REMARK    4  A    between atoms: N_9  and  C_25 
REMARK       I    between atoms: N_9  and  C_15 
REMARK    5  A    between atoms: C_14  and  C_22 
REMARK    6  A    between atoms: C_14  and  C_25 
REMARK    7  A    between atoms: C_15  and  C_16 
REMARK    8  A    between atoms: C_16  and  N_17 
REMARK    9  A    between atoms: C_23  and  C_25 
ROOT
HETATM    1  C           1     -21.541  -6.439  -5.376  0.00  0.00     0.278 C 
ENDROOT
BRANCH   1   2
HETATM    2  C           1     -20.488  -5.529  -5.995  0.00  0.00     0.081 C 
BRANCH   2   3
HETATM    3  C           1     -21.009  -4.966  -7.281  0.00  0.00    -0.056 A 
HETATM    4  C           1     -22.316  -4.484  -7.351  0.00  0.00     0.010 A 
HETATM    5  C           1     -22.801  -3.959  -8.550  0.00  0.00     0.037 A 
HETATM    6  C           1     -21.981  -3.916  -9.676  0.00  0.00     0.065 A 
HETATM    7  C           1     -20.674  -4.399  -9.606  0.00  0.00     0.037 A 
HETATM    8  C           1     -20.187  -4.923  -8.408  0.00  0.00     0.010 A 
BRANCH   6   9
HETATM    9  O           1     -22.453  -3.407 -10.840  0.00  0.00    -0.361 OA
HETATM   10  H           1     -22.513  -2.442 -10.742  0.00  0.00     0.217 HD
ENDBRANCH   6   9
ENDBRANCH   2   3
ENDBRANCH   1   2
BRANCH   1  11
HETATM   11  C           1     -21.003  -7.847  -5.294  0.00  0.00     0.249 C 
HETATM   12  N           1     -20.172  -8.204  -4.265  0.00  0.00    -0.344 N 
HETATM   13  H           1     -19.919  -7.524  -3.561  0.00  0.00     0.163 HD
HETATM   14  O           1     -21.306  -8.659  -6.135  0.00  0.00    -0.271 OA
BRANCH  12  15
HETATM   15  C           1     -19.656  -9.556  -4.186  0.00  0.00     0.195 C 
BRANCH  15  16
HETATM   16  C           1     -18.135  -9.523  -4.250  0.00  0.00     0.149 C 
BRANCH  16  17
HETATM   17  C           1     -17.683  -9.811  -5.661  0.00  0.00     0.175 C 
HETATM   18  O           1     -18.016  -9.048  -6.592  0.00  0.00    -0.648 OA
HETATM   19  O           1     -16.976 -10.815  -5.898  0.00  0.00    -0.648 OA
ENDBRANCH  16  17
ENDBRANCH  15  16
BRANCH  15  20
HETATM   20  C           1     -20.092 -10.185  -2.886  0.00  0.00     0.197 C 
HETATM   21  O           1     -21.233  -9.950  -2.430  0.00  0.00    -0.646 OA
HETATM   22  O           1     -19.314 -10.941  -2.265  0.00  0.00    -0.646 OA
ENDBRANCH  15  20
ENDBRANCH  12  15
ENDBRANCH   1  11
BRANCH   1  23
HETATM   23  N           1     -21.874  -5.951  -3.998  0.00  0.00    -0.066 N 
HETATM   24  H           1     -21.113  -6.226  -3.337  0.00  0.00     0.275 HD
HETATM   25  H           1     -22.776  -6.376  -3.686  0.00  0.00     0.275 HD
HETATM   26  H           1     -21.964  -4.910  -4.010  0.00  0.00     0.275 HD
ENDBRANCH   1  23
TORSDOF 9
ENDMDL
MODEL 9
REMARK VINA RESULT:      -5.9     12.980     14.731
REMARK  9 active torsions:
REMARK  status: ('A' for Active; 'I' for Inactive)
REMARK    1  A    between atoms: O_1  and  C_20 
REMARK    2  A    between atoms: C_8  and  C_16 
REMARK    3  A    between atoms: C_8  and  C_13 
REMARK    4  A    between atoms: N_9  and  C_25 
REMARK       I    between atoms: N_9  and  C_15 
REMARK    5  A    between atoms: C_14  and  C_22 
REMARK    6  A    between atoms: C_14  and  C_25 
REMARK    7  A    between atoms: C_15  and  C_16 
REMARK    8  A    between atoms: C_16  and  N_17 
REMARK    9  A    between atoms: C_23  and  C_25 
ROOT
HETATM    1  C           1     -25.096  -6.687 -18.837  0.00  0.00     0.278 C 
ENDROOT
BRANCH   1   2
HETATM    2  C           1     -25.478  -7.209 -20.217  0.00  0.00     0.081 C 
BRANCH   2   3
HETATM    3  C           1     -24.261  -7.753 -20.898  0.00  0.00    -0.056 A 
HETATM    4  C           1     -23.095  -7.978 -20.167  0.00  0.00     0.010 A 
HETATM    5  C           1     -21.961  -8.486 -20.802  0.00  0.00     0.037 A 
HETATM    6  C           1     -21.994  -8.768 -22.166  0.00  0.00     0.065 A 
HETATM    7  C           1     -23.160  -8.543 -22.898  0.00  0.00     0.037 A 
HETATM    8  C           1     -24.294  -8.036 -22.264  0.00  0.00     0.010 A 
BRANCH   6   9
HETATM    9  O           1     -20.892  -9.261 -22.783  0.00  0.00    -0.361 OA
HETATM   10  H           1     -20.709  -8.706 -23.559  0.00  0.00     0.217 HD
ENDBRANCH   6   9
ENDBRANCH   2   3
ENDBRANCH   1   2
BRANCH   1  11
HETATM   11  C           1     -26.344  -6.295 -18.084  0.00  0.00     0.249 C 
HETATM   12  N           1     -27.571  -6.419 -18.680  0.00  0.00    -0.344 N 
HETATM   13  H           1     -27.640  -6.773 -19.626  0.00  0.00     0.163 HD
HETATM   14  O           1     -26.262  -5.873 -16.956  0.00  0.00    -0.271 OA
BRANCH  12  15
HETATM   15  C           1     -28.769  -6.043 -17.958  0.00  0.00     0.195 C 
BRANCH  15  16
HETATM   16  C           1     -29.377  -4.800 -18.594  0.00  0.00     0.149 C 
BRANCH  16  17
HETATM   17  C           1     -29.631  -3.762 -17.530  0.00  0.00     0.175 C 
HETATM   18  O           1     -30.790  -3.578 -17.099  0.00  0.00    -0.648 OA
HETATM   19  O           1     -28.682  -3.084 -17.078  0.00  0.00    -0.648 OA
ENDBRANCH  16  17
ENDBRANCH  15  16
BRANCH  15  20
HETATM   20  C           1     -29.765  -7.175 -18.013  0.00  0.00     0.197 C 
HETATM   21  O           1     -29.573  -8.139 -18.786  0.00  0.00    -0.646 OA
HETATM   22  O           1     -30.782  -7.150 -17.286  0.00  0.00    -0.646 OA
ENDBRANCH  15  20
ENDBRANCH  12  15
ENDBRANCH   1  11
BRANCH   1  23
HETATM   23  N           1     -24.373  -7.762 -18.080  0.00  0.00    -0.066 N 
HETATM   24  H           1     -25.000  -8.147 -17.337  0.00  0.00     0.275 HD
HETATM   25  H           1     -23.515  -7.361 -17.639  0.00  0.00     0.275 HD
HETATM   26  H           1     -24.103  -8.528 -18.738  0.00  0.00     0.275 HD
ENDBRANCH   1  23
TORSDOF 9
ENDMDL
