MODEL 1
REMARK VINA RESULT:      -7.1      0.000      0.000
REMARK  11 active torsions:
REMARK  status: ('A' for Active; 'I' for Inactive)
REMARK    1  A    between atoms: C_1  and  C_16 
REMARK    2  A    between atoms: C_1  and  C_2 
REMARK    3  A    between atoms: C_1  and  N_21 
REMARK    4  A    between atoms: C_2  and  C_25 
REMARK    5  A    between atoms: C_6  and  C_9 
REMARK    6  A    between atoms: C_6  and  C_7 
REMARK    7  A    between atoms: C_6  and  N_17 
REMARK    8  A    between atoms: C_7  and  O_24 
REMARK    9  A    between atoms: C_11  and  C_25 
REMARK       I    between atoms: C_11  and  N_12 
REMARK   10  A    between atoms: P_14  and  O_24 
REMARK   11  A    between atoms: P_14  and  O_19 
REMARK       I    between atoms: C_16  and  N_17 
ROOT
HETATM    1  H           1     -35.583  -2.107 -13.521  0.00  0.00     0.163 HD
HETATM    2  O           1     -33.568  -2.270 -11.122  0.00  0.00    -0.271 OA
HETATM    3  C           1     -34.233  -2.659 -12.053  0.00  0.00     0.249 C 
HETATM    4  N           1     -35.027  -1.782 -12.741  0.00  0.00    -0.343 N 
ENDROOT
BRANCH   3   5
HETATM    5  C           1     -34.186  -4.112 -12.459  0.00  0.00     0.275 C 
BRANCH   5   6
HETATM    6  C           1     -33.532  -4.928 -11.351  0.00  0.00     0.052 C 
BRANCH   6   7
HETATM    7  C           1     -34.609  -5.527 -10.458  0.00  0.00     0.105 C 
BRANCH   7   8
HETATM    8  C           1     -34.382  -7.013 -10.324  0.00  0.00     0.215 C 
HETATM    9  N           1     -33.165  -7.553 -10.644  0.00  0.00    -0.370 N 
HETATM   10  H           1     -33.015  -8.550 -10.554  0.00  0.00     0.159 HD
HETATM   11  H           1     -32.417  -6.955 -10.972  0.00  0.00     0.159 HD
HETATM   12  O           1     -35.275  -7.727  -9.932  0.00  0.00    -0.274 OA
ENDBRANCH   7   8
ENDBRANCH   6   7
ENDBRANCH   5   6
BRANCH   5  13
HETATM   13  N           1     -33.387  -4.253 -13.721  0.00  0.00    -0.066 N 
HETATM   14  H           1     -32.831  -3.383 -13.881  0.00  0.00     0.275 HD
HETATM   15  H           1     -32.739  -5.068 -13.633  0.00  0.00     0.275 HD
HETATM   16  H           1     -34.033  -4.408 -14.527  0.00  0.00     0.275 HD
ENDBRANCH   5  13
ENDBRANCH   3   5
BRANCH   4  17
HETATM   17  C           1     -35.072  -0.385 -12.351  0.00  0.00     0.210 C 
BRANCH  17  18
HETATM   18  C           1     -36.357  -0.112 -11.609  0.00  0.00     0.198 C 
HETATM   19  O           1     -36.336   0.533 -10.539  0.00  0.00    -0.646 OA
HETATM   20  O           1     -37.443  -0.531 -12.065  0.00  0.00    -0.646 OA
ENDBRANCH  17  18
BRANCH  17  21
HETATM   21  C           1     -35.007   0.490 -13.595  0.00  0.00     0.217 C 
BRANCH  21  22
HETATM   22  O           1     -35.038  -0.320 -14.739  0.00  0.00    -0.287 OA
BRANCH  22  23
HETATM   23  P           1     -36.292  -0.093 -15.733  0.00  0.00     0.406 P 
HETATM   24  O           1     -36.077  -0.859 -16.980  0.00  0.00    -0.624 OA
HETATM   25  O           1     -36.414   1.346 -16.053  0.00  0.00    -0.624 OA
BRANCH  23  26
HETATM   26  O           1     -37.645  -0.603 -15.013  0.00  0.00    -0.300 OA
HETATM   27  H           1     -37.378  -1.333 -14.481  0.00  0.00     0.223 HD
ENDBRANCH  23  26
ENDBRANCH  22  23
ENDBRANCH  21  22
ENDBRANCH  17  21
ENDBRANCH   4  17
TORSDOF 11
ENDMDL
MODEL 2
REMARK VINA RESULT:      -6.4      2.648      4.689
REMARK  11 active torsions:
REMARK  status: ('A' for Active; 'I' for Inactive)
REMARK    1  A    between atoms: C_1  and  C_16 
REMARK    2  A    between atoms: C_1  and  C_2 
REMARK    3  A    between atoms: C_1  and  N_21 
REMARK    4  A    between atoms: C_2  and  C_25 
REMARK    5  A    between atoms: C_6  and  C_9 
REMARK    6  A    between atoms: C_6  and  C_7 
REMARK    7  A    between atoms: C_6  and  N_17 
REMARK    8  A    between atoms: C_7  and  O_24 
REMARK    9  A    between atoms: C_11  and  C_25 
REMARK       I    between atoms: C_11  and  N_12 
REMARK   10  A    between atoms: P_14  and  O_24 
REMARK   11  A    between atoms: P_14  and  O_19 
REMARK       I    between atoms: C_16  and  N_17 
ROOT
HETATM    1  H           1     -32.980  -3.311 -14.041  0.00  0.00     0.163 HD
HETATM    2  O           1     -35.191  -5.520 -13.770  0.00  0.00    -0.271 OA
HETATM    3  C           1     -34.343  -4.737 -13.415  0.00  0.00     0.249 C 
HETATM    4  N           1     -33.690  -3.967 -14.339  0.00  0.00    -0.343 N 
ENDROOT
BRANCH   3   5
HETATM    5  C           1     -34.003  -4.606 -11.950  0.00  0.00     0.275 C 
BRANCH   5   6
HETATM    6  C           1     -33.179  -3.345 -11.729  0.00  0.00     0.052 C 
BRANCH   6   7
HETATM    7  C           1     -33.906  -2.425 -10.758  0.00  0.00     0.105 C 
BRANCH   7   8
HETATM    8  C           1     -34.969  -1.651 -11.498  0.00  0.00     0.215 C 
HETATM    9  N           1     -34.638  -0.512 -12.181  0.00  0.00    -0.370 N 
HETATM   10  H           1     -35.352   0.007 -12.677  0.00  0.00     0.159 HD
HETATM   11  H           1     -33.679  -0.188 -12.189  0.00  0.00     0.159 HD
HETATM   12  O           1     -36.114  -2.038 -11.488  0.00  0.00    -0.274 OA
ENDBRANCH   7   8
ENDBRANCH   6   7
ENDBRANCH   5   6
BRANCH   5  13
HETATM   13  N           1     -33.212  -5.803 -11.512  0.00  0.00    -0.066 N 
HETATM   14  H           1     -32.215  -5.527 -11.365  0.00  0.00     0.275 HD
HETATM   15  H           1     -33.606  -6.173 -10.617  0.00  0.00     0.275 HD
HETATM   16  H           1     -33.264  -6.543 -12.247  0.00  0.00     0.275 HD
ENDBRANCH   5  13
ENDBRANCH   3   5
BRANCH   4  17
HETATM   17  C           1     -34.016  -4.093 -15.747  0.00  0.00     0.210 C 
BRANCH  17  18
HETATM   18  C           1     -32.746  -4.070 -16.561  0.00  0.00     0.198 C 
HETATM   19  O           1     -31.842  -4.903 -16.332  0.00  0.00    -0.646 OA
HETATM   20  O           1     -32.597  -3.218 -17.463  0.00  0.00    -0.646 OA
ENDBRANCH  17  18
BRANCH  17  21
HETATM   21  C           1     -34.909  -2.932 -16.165  0.00  0.00     0.217 C 
BRANCH  21  22
HETATM   22  O           1     -35.048  -2.039 -15.094  0.00  0.00    -0.287 OA
BRANCH  22  23
HETATM   23  P           1     -35.713  -0.609 -15.446  0.00  0.00     0.406 P 
HETATM   24  O           1     -34.737   0.469 -15.174  0.00  0.00    -0.624 OA
HETATM   25  O           1     -36.918  -0.406 -14.611  0.00  0.00    -0.624 OA
BRANCH  23  26
HETATM   26  O           1     -36.128  -0.580 -17.007  0.00  0.00    -0.300 OA
HETATM   27  H           1     -37.064  -0.686 -17.012  0.00  0.00     0.223 HD
ENDBRANCH  23  26
ENDBRANCH  22  23
ENDBRANCH  21  22
ENDBRANCH  17  21
ENDBRANCH   4  17
TORSDOF 11
ENDMDL
MODEL 3
REMARK VINA RESULT:      -6.1      7.035      9.484
REMARK  11 active torsions:
REMARK  status: ('A' for Active; 'I' for Inactive)
REMARK    1  A    between atoms: C_1  and  C_16 
REMARK    2  A    between atoms: C_1  and  C_2 
REMARK    3  A    between atoms: C_1  and  N_21 
REMARK    4  A    between atoms: C_2  and  C_25 
REMARK    5  A    between atoms: C_6  and  C_9 
REMARK    6  A    between atoms: C_6  and  C_7 
REMARK    7  A    between atoms: C_6  and  N_17 
REMARK    8  A    between atoms: C_7  and  O_24 
REMARK    9  A    between atoms: C_11  and  C_25 
REMARK       I    between atoms: C_11  and  N_12 
REMARK   10  A    between atoms: P_14  and  O_24 
REMARK   11  A    between atoms: P_14  and  O_19 
REMARK       I    between atoms: C_16  and  N_17 
ROOT
HETATM    1  H           1     -31.158  -5.833 -16.024  0.00  0.00     0.163 HD
HETATM    2  O           1     -31.267  -3.132 -17.615  0.00  0.00    -0.271 OA
HETATM    3  C           1     -31.677  -4.070 -16.974  0.00  0.00     0.249 C 
HETATM    4  N           1     -30.814  -5.047 -16.561  0.00  0.00    -0.343 N 
ENDROOT
BRANCH   3   5
HETATM    5  C           1     -33.144  -4.163 -16.628  0.00  0.00     0.275 C 
BRANCH   5   6
HETATM    6  C           1     -33.871  -2.937 -17.165  0.00  0.00     0.052 C 
BRANCH   6   7
HETATM    7  C           1     -35.124  -2.686 -16.337  0.00  0.00     0.105 C 
BRANCH   7   8
HETATM    8  C           1     -35.431  -1.208 -16.322  0.00  0.00     0.215 C 
HETATM    9  N           1     -34.806  -0.387 -15.422  0.00  0.00    -0.370 N 
HETATM   10  H           1     -35.013   0.604 -15.413  0.00  0.00     0.159 HD
HETATM   11  H           1     -34.139  -0.772 -14.765  0.00  0.00     0.159 HD
HETATM   12  O           1     -36.227  -0.750 -17.107  0.00  0.00    -0.274 OA
ENDBRANCH   7   8
ENDBRANCH   6   7
ENDBRANCH   5   6
BRANCH   5  13
HETATM   13  N           1     -33.303  -4.225 -15.138  0.00  0.00    -0.066 N 
HETATM   14  H           1     -33.080  -5.189 -14.803  0.00  0.00     0.275 HD
HETATM   15  H           1     -32.651  -3.541 -14.690  0.00  0.00     0.275 HD
HETATM   16  H           1     -34.287  -3.985 -14.882  0.00  0.00     0.275 HD
ENDBRANCH   5  13
ENDBRANCH   3   5
BRANCH   4  17
HETATM   17  C           1     -29.405  -4.958 -16.893  0.00  0.00     0.210 C 
BRANCH  17  18
HETATM   18  C           1     -29.118  -5.817 -18.101  0.00  0.00     0.198 C 
HETATM   19  O           1     -29.677  -6.928 -18.224  0.00  0.00    -0.646 OA
HETATM   20  O           1     -28.322  -5.417 -18.977  0.00  0.00    -0.646 OA
ENDBRANCH  17  18
BRANCH  17  21
HETATM   21  C           1     -28.574  -5.446 -15.713  0.00  0.00     0.217 C 
BRANCH  21  22
HETATM   22  O           1     -27.225  -5.131 -15.929  0.00  0.00    -0.287 OA
BRANCH  22  23
HETATM   23  P           1     -26.196  -6.376 -15.908  0.00  0.00     0.406 P 
HETATM   24  O           1     -25.641  -6.580 -17.264  0.00  0.00    -0.624 OA
HETATM   25  O           1     -26.909  -7.599 -15.478  0.00  0.00    -0.624 OA
BRANCH  23  26
HETATM   26  O           1     -24.993  -6.062 -14.876  0.00  0.00    -0.300 OA
HETATM   27  H           1     -24.991  -6.788 -14.276  0.00  0.00     0.223 HD
ENDBRANCH  23  26
ENDBRANCH  22  23
ENDBRANCH  21  22
ENDBRANCH  17  21
ENDBRANCH   4  17
TORSDOF 11
ENDMDL
MODEL 4
REMARK VINA RESULT:      -6.1      2.305      4.104
REMARK  11 active torsions:
REMARK  status: ('A' for Active; 'I' for Inactive)
REMARK    1  A    between atoms: C_1  and  C_16 
REMARK    2  A    between atoms: C_1  and  C_2 
REMARK    3  A    between atoms: C_1  and  N_21 
REMARK    4  A    between atoms: C_2  and  C_25 
REMARK    5  A    between atoms: C_6  and  C_9 
REMARK    6  A    between atoms: C_6  and  C_7 
REMARK    7  A    between atoms: C_6  and  N_17 
REMARK    8  A    between atoms: C_7  and  O_24 
REMARK    9  A    between atoms: C_11  and  C_25 
REMARK       I    between atoms: C_11  and  N_12 
REMARK   10  A    between atoms: P_14  and  O_24 
REMARK   11  A    between atoms: P_14  and  O_19 
REMARK       I    between atoms: C_16  and  N_17 
ROOT
HETATM    1  H           1     -35.186  -0.197 -11.256  0.00  0.00     0.163 HD
HETATM    2  O           1     -35.293  -2.885 -12.870  0.00  0.00    -0.271 OA
HETATM    3  C           1     -34.852  -2.048 -12.119  0.00  0.00     0.249 C 
HETATM    4  N           1     -35.555  -0.898 -11.886  0.00  0.00    -0.343 N 
ENDROOT
BRANCH   3   5
HETATM    5  C           1     -33.524  -2.272 -11.436  0.00  0.00     0.275 C 
BRANCH   5   6
HETATM    6  C           1     -33.141  -3.743 -11.541  0.00  0.00     0.052 C 
BRANCH   6   7
HETATM    7  C           1     -33.899  -4.542 -10.490  0.00  0.00     0.105 C 
BRANCH   7   8
HETATM    8  C           1     -34.434  -5.810 -11.109  0.00  0.00     0.215 C 
HETATM    9  N           1     -34.736  -5.845 -12.445  0.00  0.00    -0.370 N 
HETATM   10  H           1     -35.095  -6.696 -12.859  0.00  0.00     0.159 HD
HETATM   11  H           1     -34.601  -5.021 -13.016  0.00  0.00     0.159 HD
HETATM   12  O           1     -34.594  -6.793 -10.427  0.00  0.00    -0.274 OA
ENDBRANCH   7   8
ENDBRANCH   6   7
ENDBRANCH   5   6
BRANCH   5  13
HETATM   13  N           1     -33.635  -1.887  -9.990  0.00  0.00    -0.066 N 
HETATM   14  H           1     -33.255  -0.924  -9.856  0.00  0.00     0.275 HD
HETATM   15  H           1     -34.639  -1.909  -9.700  0.00  0.00     0.275 HD
HETATM   16  H           1     -33.090  -2.562  -9.408  0.00  0.00     0.275 HD
ENDBRANCH   5  13
ENDBRANCH   3   5
BRANCH   4  17
HETATM   17  C           1     -36.831  -0.682 -12.542  0.00  0.00     0.210 C 
BRANCH  17  18
HETATM   18  C           1     -36.619   0.127 -13.798  0.00  0.00     0.198 C 
HETATM   19  O           1     -35.606   0.850 -13.913  0.00  0.00    -0.646 OA
HETATM   20  O           1     -37.456   0.074 -14.724  0.00  0.00    -0.646 OA
ENDBRANCH  17  18
BRANCH  17  21
HETATM   21  C           1     -37.762   0.072 -11.602  0.00  0.00     0.217 C 
BRANCH  21  22
HETATM   22  O           1     -37.895  -0.641 -10.403  0.00  0.00    -0.287 OA
BRANCH  22  23
HETATM   23  P           1     -37.315   0.083  -9.080  0.00  0.00     0.406 P 
HETATM   24  O           1     -35.887  -0.264  -8.914  0.00  0.00    -0.624 OA
HETATM   25  O           1     -38.075  -0.372  -7.895  0.00  0.00    -0.624 OA
BRANCH  23  26
HETATM   26  O           1     -37.466   1.684  -9.236  0.00  0.00    -0.300 OA
HETATM   27  H           1     -38.094   1.804  -9.927  0.00  0.00     0.223 HD
ENDBRANCH  23  26
ENDBRANCH  22  23
ENDBRANCH  21  22
ENDBRANCH  17  21
ENDBRANCH   4  17
TORSDOF 11
ENDMDL
MODEL 5
REMARK VINA RESULT:      -6.0     13.170     15.145
REMARK  11 active torsions:
REMARK  status: ('A' for Active; 'I' for Inactive)
REMARK    1  A    between atoms: C_1  and  C_16 
REMARK    2  A    between atoms: C_1  and  C_2 
REMARK    3  A    between atoms: C_1  and  N_21 
REMARK    4  A    between atoms: C_2  and  C_25 
REMARK    5  A    between atoms: C_6  and  C_9 
REMARK    6  A    between atoms: C_6  and  C_7 
REMARK    7  A    between atoms: C_6  and  N_17 
REMARK    8  A    between atoms: C_7  and  O_24 
REMARK    9  A    between atoms: C_11  and  C_25 
REMARK       I    between atoms: C_11  and  N_12 
REMARK   10  A    between atoms: P_14  and  O_24 
REMARK   11  A    between atoms: P_14  and  O_19 
REMARK       I    between atoms: C_16  and  N_17 
ROOT
HETATM    1  H           1     -21.374  -4.206  -5.979  0.00  0.00     0.163 HD
HETATM    2  O           1     -21.111  -7.235  -6.750  0.00  0.00    -0.271 OA
HETATM    3  C           1     -21.137  -6.260  -6.036  0.00  0.00     0.249 C 
HETATM    4  N           1     -21.352  -5.022  -6.577  0.00  0.00    -0.343 N 
ENDROOT
BRANCH   3   5
HETATM    5  C           1     -20.933  -6.410  -4.548  0.00  0.00     0.275 C 
BRANCH   5   6
HETATM    6  C           1     -20.389  -7.800  -4.246  0.00  0.00     0.052 C 
BRANCH   6   7
HETATM    7  C           1     -21.536  -8.721  -3.853  0.00  0.00     0.105 C 
BRANCH   7   8
HETATM    8  C           1     -21.363 -10.058  -4.530  0.00  0.00     0.215 C 
HETATM    9  N           1     -21.028 -10.117  -5.856  0.00  0.00    -0.370 N 
HETATM   10  H           1     -20.913 -11.015  -6.309  0.00  0.00     0.159 HD
HETATM   11  H           1     -20.898  -9.263  -6.384  0.00  0.00     0.159 HD
HETATM   12  O           1     -21.518 -11.077  -3.900  0.00  0.00    -0.274 OA
ENDBRANCH   7   8
ENDBRANCH   6   7
ENDBRANCH   5   6
BRANCH   5  13
HETATM   13  N           1     -22.245  -6.223  -3.843  0.00  0.00    -0.066 N 
HETATM   14  H           1     -22.599  -7.149  -3.515  0.00  0.00     0.275 HD
HETATM   15  H           1     -22.111  -5.590  -3.022  0.00  0.00     0.275 HD
HETATM   16  H           1     -22.936  -5.798  -4.501  0.00  0.00     0.275 HD
ENDBRANCH   5  13
ENDBRANCH   3   5
BRANCH   4  17
HETATM   17  C           1     -21.547  -4.879  -8.007  0.00  0.00     0.210 C 
BRANCH  17  18
HETATM   18  C           1     -20.237  -4.512  -8.659  0.00  0.00     0.198 C 
HETATM   19  O           1     -20.111  -4.597  -9.900  0.00  0.00    -0.646 OA
HETATM   20  O           1     -19.278  -4.124  -7.959  0.00  0.00    -0.646 OA
ENDBRANCH  17  18
BRANCH  17  21
HETATM   21  C           1     -22.571  -3.783  -8.271  0.00  0.00     0.217 C 
BRANCH  21  22
HETATM   22  O           1     -23.677  -4.327  -8.941  0.00  0.00    -0.287 OA
BRANCH  22  23
HETATM   23  P           1     -23.789  -3.985 -10.515  0.00  0.00     0.406 P 
HETATM   24  O           1     -25.041  -3.239 -10.770  0.00  0.00    -0.624 OA
HETATM   25  O           1     -23.797  -5.243 -11.295  0.00  0.00    -0.624 OA
BRANCH  23  26
HETATM   26  O           1     -22.525  -3.082 -10.960  0.00  0.00    -0.300 OA
HETATM   27  H           1     -22.300  -3.387 -11.823  0.00  0.00     0.223 HD
ENDBRANCH  23  26
ENDBRANCH  22  23
ENDBRANCH  21  22
ENDBRANCH  17  21
ENDBRANCH   4  17
TORSDOF 11
ENDMDL
MODEL 6
REMARK VINA RESULT:      -5.9     14.531     17.272
REMARK  11 active torsions:
REMARK  status: ('A' for Active; 'I' for Inactive)
REMARK    1  A    between atoms: C_1  and  C_16 
REMARK    2  A    between atoms: C_1  and  C_2 
REMARK    3  A    between atoms: C_1  and  N_21 
REMARK    4  A    between atoms: C_2  and  C_25 
REMARK    5  A    between atoms: C_6  and  C_9 
REMARK    6  A    between atoms: C_6  and  C_7 
REMARK    7  A    between atoms: C_6  and  N_17 
REMARK    8  A    between atoms: C_7  and  O_24 
REMARK    9  A    between atoms: C_11  and  C_25 
REMARK       I    between atoms: C_11  and  N_12 
REMARK   10  A    between atoms: P_14  and  O_24 
REMARK   11  A    between atoms: P_14  and  O_19 
REMARK       I    between atoms: C_16  and  N_17 
ROOT
HETATM    1  H           1     -20.012  -6.421  -5.136  0.00  0.00     0.163 HD
HETATM    2  O           1     -22.779  -5.270  -6.064  0.00  0.00    -0.271 OA
HETATM    3  C           1     -21.578  -5.402  -6.024  0.00  0.00     0.249 C 
HETATM    4  N           1     -21.017  -6.310  -5.169  0.00  0.00    -0.343 N 
ENDROOT
BRANCH   3   5
HETATM    5  C           1     -20.698  -4.564  -6.919  0.00  0.00     0.275 C 
BRANCH   5   6
HETATM    6  C           1     -21.545  -3.516  -7.629  0.00  0.00     0.052 C 
BRANCH   6   7
HETATM    7  C           1     -21.771  -3.938  -9.074  0.00  0.00     0.105 C 
BRANCH   7   8
HETATM    8  C           1     -23.211  -3.693  -9.451  0.00  0.00     0.215 C 
HETATM    9  N           1     -24.204  -3.882  -8.527  0.00  0.00    -0.370 N 
HETATM   10  H           1     -25.170  -3.717  -8.781  0.00  0.00     0.159 HD
HETATM   11  H           1     -23.972  -4.186  -7.590  0.00  0.00     0.159 HD
HETATM   12  O           1     -23.488  -3.329 -10.569  0.00  0.00    -0.274 OA
ENDBRANCH   7   8
ENDBRANCH   6   7
ENDBRANCH   5   6
BRANCH   5  13
HETATM   13  N           1     -20.038  -5.446  -7.938  0.00  0.00    -0.066 N 
HETATM   14  H           1     -19.697  -4.863  -8.735  0.00  0.00     0.275 HD
HETATM   15  H           1     -19.229  -5.940  -7.497  0.00  0.00     0.275 HD
HETATM   16  H           1     -20.727  -6.149  -8.288  0.00  0.00     0.275 HD
ENDBRANCH   5  13
ENDBRANCH   3   5
BRANCH   4  17
HETATM   17  C           1     -21.864  -7.115  -4.309  0.00  0.00     0.210 C 
BRANCH  17  18
HETATM   18  C           1     -21.610  -6.747  -2.867  0.00  0.00     0.198 C 
HETATM   19  O           1     -22.308  -5.869  -2.315  0.00  0.00    -0.646 OA
HETATM   20  O           1     -20.704  -7.320  -2.226  0.00  0.00    -0.646 OA
ENDBRANCH  17  18
BRANCH  17  21
HETATM   21  C           1     -21.545  -8.589  -4.521  0.00  0.00     0.217 C 
BRANCH  21  22
HETATM   22  O           1     -20.536  -8.716  -5.485  0.00  0.00    -0.287 OA
BRANCH  22  23
HETATM   23  P           1     -19.248  -9.591  -5.053  0.00  0.00     0.406 P 
HETATM   24  O           1     -18.196  -9.463  -6.084  0.00  0.00    -0.624 OA
HETATM   25  O           1     -19.639 -11.012  -4.920  0.00  0.00    -0.624 OA
BRANCH  23  26
HETATM   26  O           1     -18.684  -9.052  -3.638  0.00  0.00    -0.300 OA
HETATM   27  H           1     -18.845  -8.124  -3.649  0.00  0.00     0.223 HD
ENDBRANCH  23  26
ENDBRANCH  22  23
ENDBRANCH  21  22
ENDBRANCH  17  21
ENDBRANCH   4  17
TORSDOF 11
ENDMDL
MODEL 7
REMARK VINA RESULT:      -5.8     13.690     15.723
REMARK  11 active torsions:
REMARK  status: ('A' for Active; 'I' for Inactive)
REMARK    1  A    between atoms: C_1  and  C_16 
REMARK    2  A    between atoms: C_1  and  C_2 
REMARK    3  A    between atoms: C_1  and  N_21 
REMARK    4  A    between atoms: C_2  and  C_25 
REMARK    5  A    between atoms: C_6  and  C_9 
REMARK    6  A    between atoms: C_6  and  C_7 
REMARK    7  A    between atoms: C_6  and  N_17 
REMARK    8  A    between atoms: C_7  and  O_24 
REMARK    9  A    between atoms: C_11  and  C_25 
REMARK       I    between atoms: C_11  and  N_12 
REMARK   10  A    between atoms: P_14  and  O_24 
REMARK   11  A    between atoms: P_14  and  O_19 
REMARK       I    between atoms: C_16  and  N_17 
ROOT
HETATM    1  H           1     -21.097  -5.000  -5.091  0.00  0.00     0.163 HD
HETATM    2  O           1     -21.441  -7.827  -6.407  0.00  0.00    -0.271 OA
HETATM    3  C           1     -21.301  -7.013  -5.525  0.00  0.00     0.249 C 
HETATM    4  N           1     -21.213  -5.682  -5.830  0.00  0.00    -0.343 N 
ENDROOT
BRANCH   3   5
HETATM    5  C           1     -21.224  -7.465  -4.087  0.00  0.00     0.275 C 
BRANCH   5   6
HETATM    6  C           1     -21.107  -6.249  -3.177  0.00  0.00     0.052 C 
BRANCH   6   7
HETATM    7  C           1     -22.236  -6.266  -2.157  0.00  0.00     0.105 C 
BRANCH   7   8
HETATM    8  C           1     -21.911  -7.252  -1.062  0.00  0.00     0.215 C 
HETATM    9  N           1     -22.866  -7.593  -0.141  0.00  0.00    -0.370 N 
HETATM   10  H           1     -22.647  -8.254   0.593  0.00  0.00     0.159 HD
HETATM   11  H           1     -23.790  -7.184  -0.195  0.00  0.00     0.159 HD
HETATM   12  O           1     -20.809  -7.741  -0.998  0.00  0.00    -0.274 OA
ENDBRANCH   7   8
ENDBRANCH   6   7
ENDBRANCH   5   6
BRANCH   5  13
HETATM   13  N           1     -20.022  -8.343  -3.903  0.00  0.00    -0.066 N 
HETATM   14  H           1     -20.329  -9.335  -3.783  0.00  0.00     0.275 HD
HETATM   15  H           1     -19.406  -8.269  -4.745  0.00  0.00     0.275 HD
HETATM   16  H           1     -19.492  -8.036  -3.057  0.00  0.00     0.275 HD
ENDBRANCH   5  13
ENDBRANCH   3   5
BRANCH   4  17
HETATM   17  C           1     -21.288  -5.248  -7.212  0.00  0.00     0.210 C 
BRANCH  17  18
HETATM   18  C           1     -19.910  -4.863  -7.692  0.00  0.00     0.198 C 
HETATM   19  O           1     -19.704  -4.670  -8.910  0.00  0.00    -0.646 OA
HETATM   20  O           1     -18.975  -4.738  -6.873  0.00  0.00    -0.646 OA
ENDBRANCH  17  18
BRANCH  17  21
HETATM   21  C           1     -22.217  -4.046  -7.316  0.00  0.00     0.217 C 
BRANCH  21  22
HETATM   22  O           1     -23.452  -4.454  -7.838  0.00  0.00    -0.287 OA
BRANCH  22  23
HETATM   23  P           1     -23.797  -3.934  -9.328  0.00  0.00     0.406 P 
HETATM   24  O           1     -24.216  -5.079 -10.166  0.00  0.00    -0.624 OA
HETATM   25  O           1     -22.596  -3.303  -9.921  0.00  0.00    -0.624 OA
BRANCH  23  26
HETATM   26  O           1     -24.995  -2.852  -9.257  0.00  0.00    -0.300 OA
HETATM   27  H           1     -24.898  -2.438  -8.416  0.00  0.00     0.223 HD
ENDBRANCH  23  26
ENDBRANCH  22  23
ENDBRANCH  21  22
ENDBRANCH  17  21
ENDBRANCH   4  17
TORSDOF 11
ENDMDL
MODEL 8
REMARK VINA RESULT:      -5.8      5.697      7.207
REMARK  11 active torsions:
REMARK  status: ('A' for Active; 'I' for Inactive)
REMARK    1  A    between atoms: C_1  and  C_16 
REMARK    2  A    between atoms: C_1  and  C_2 
REMARK    3  A    between atoms: C_1  and  N_21 
REMARK    4  A    between atoms: C_2  and  C_25 
REMARK    5  A    between atoms: C_6  and  C_9 
REMARK    6  A    between atoms: C_6  and  C_7 
REMARK    7  A    between atoms: C_6  and  N_17 
REMARK    8  A    between atoms: C_7  and  O_24 
REMARK    9  A    between atoms: C_11  and  C_25 
REMARK       I    between atoms: C_11  and  N_12 
REMARK   10  A    between atoms: P_14  and  O_24 
REMARK   11  A    between atoms: P_14  and  O_19 
REMARK       I    between atoms: C_16  and  N_17 
ROOT
HETATM    1  H           1     -31.482  -4.101 -14.979  0.00  0.00     0.163 HD
HETATM    2  O           1     -31.095  -6.081 -17.381  0.00  0.00    -0.271 OA
HETATM    3  C           1     -30.802  -5.447 -16.395  0.00  0.00     0.249 C 
HETATM    4  N           1     -31.728  -4.631 -15.805  0.00  0.00    -0.343 N 
ENDROOT
BRANCH   3   5
HETATM    5  C           1     -29.413  -5.557 -15.814  0.00  0.00     0.275 C 
BRANCH   5   6
HETATM    6  C           1     -28.664  -6.693 -16.498  0.00  0.00     0.052 C 
BRANCH   6   7
HETATM    7  C           1     -27.513  -7.149 -15.613  0.00  0.00     0.105 C 
BRANCH   7   8
HETATM    8  C           1     -26.220  -6.567 -16.128  0.00  0.00     0.215 C 
HETATM    9  N           1     -25.079  -7.324 -16.127  0.00  0.00    -0.370 N 
HETATM   10  H           1     -24.211  -6.932 -16.472  0.00  0.00     0.159 HD
HETATM   11  H           1     -25.102  -8.274 -15.780  0.00  0.00     0.159 HD
HETATM   12  O           1     -26.192  -5.433 -16.542  0.00  0.00    -0.274 OA
ENDBRANCH   7   8
ENDBRANCH   6   7
ENDBRANCH   5   6
BRANCH   5  13
HETATM   13  N           1     -29.507  -5.835 -14.343  0.00  0.00    -0.066 N 
HETATM   14  H           1     -28.893  -5.170 -13.822  0.00  0.00     0.275 HD
HETATM   15  H           1     -30.497  -5.714 -14.029  0.00  0.00     0.275 HD
HETATM   16  H           1     -29.200  -6.815 -14.154  0.00  0.00     0.275 HD
ENDBRANCH   5  13
ENDBRANCH   3   5
BRANCH   4  17
HETATM   17  C           1     -33.062  -4.526 -16.363  0.00  0.00     0.210 C 
BRANCH  17  18
HETATM   18  C           1     -33.154  -3.285 -17.217  0.00  0.00     0.198 C 
HETATM   19  O           1     -34.190  -2.587 -17.195  0.00  0.00    -0.646 OA
HETATM   20  O           1     -32.193  -2.956 -17.945  0.00  0.00    -0.646 OA
ENDBRANCH  17  18
BRANCH  17  21
HETATM   21  C           1     -34.079  -4.441 -15.232  0.00  0.00     0.217 C 
BRANCH  21  22
HETATM   22  O           1     -33.467  -3.902 -14.092  0.00  0.00    -0.287 OA
BRANCH  22  23
HETATM   23  P           1     -34.330  -3.966 -12.728  0.00  0.00     0.406 P 
HETATM   24  O           1     -35.115  -5.219 -12.699  0.00  0.00    -0.624 OA
HETATM   25  O           1     -35.248  -2.807 -12.670  0.00  0.00    -0.624 OA
BRANCH  23  26
HETATM   26  O           1     -33.331  -3.927 -11.458  0.00  0.00    -0.300 OA
HETATM   27  H           1     -33.896  -3.866 -10.707  0.00  0.00     0.223 HD
ENDBRANCH  23  26
ENDBRANCH  22  23
ENDBRANCH  21  22
ENDBRANCH  17  21
ENDBRANCH   4  17
TORSDOF 11
ENDMDL
MODEL 9
REMARK VINA RESULT:      -5.7     14.494     17.353
REMARK  11 active torsions:
REMARK  status: ('A' for Active; 'I' for Inactive)
REMARK    1  A    between atoms: C_1  and  C_16 
REMARK    2  A    between atoms: C_1  and  C_2 
REMARK    3  A    between atoms: C_1  and  N_21 
REMARK    4  A    between atoms: C_2  and  C_25 
REMARK    5  A    between atoms: C_6  and  C_9 
REMARK    6  A    between atoms: C_6  and  C_7 
REMARK    7  A    between atoms: C_6  and  N_17 
REMARK    8  A    between atoms: C_7  and  O_24 
REMARK    9  A    between atoms: C_11  and  C_25 
REMARK       I    between atoms: C_11  and  N_12 
REMARK   10  A    between atoms: P_14  and  O_24 
REMARK   11  A    between atoms: P_14  and  O_19 
REMARK       I    between atoms: C_16  and  N_17 
ROOT
HETATM    1  H           1     -21.715  -7.167  -7.246  0.00  0.00     0.163 HD
HETATM    2  O           1     -20.397  -4.452  -6.388  0.00  0.00    -0.271 OA
HETATM    3  C           1     -21.007  -5.230  -7.084  0.00  0.00     0.249 C 
HETATM    4  N           1     -21.204  -6.516  -6.663  0.00  0.00    -0.343 N 
ENDROOT
BRANCH   3   5
HETATM    5  C           1     -21.550  -4.781  -8.419  0.00  0.00     0.275 C 
BRANCH   5   6
HETATM    6  C           1     -20.480  -3.994  -9.165  0.00  0.00     0.052 C 
BRANCH   6   7
HETATM    7  C           1     -20.356  -4.525 -10.586  0.00  0.00     0.105 C 
BRANCH   7   8
HETATM    8  C           1     -21.437  -3.918 -11.447  0.00  0.00     0.215 C 
HETATM    9  N           1     -22.321  -4.727 -12.108  0.00  0.00    -0.370 N 
HETATM   10  H           1     -23.046  -4.319 -12.686  0.00  0.00     0.159 HD
HETATM   11  H           1     -22.250  -5.733 -12.021  0.00  0.00     0.159 HD
HETATM   12  O           1     -21.522  -2.717 -11.551  0.00  0.00    -0.274 OA
ENDBRANCH   7   8
ENDBRANCH   6   7
ENDBRANCH   5   6
BRANCH   5  13
HETATM   13  N           1     -22.750  -3.907  -8.201  0.00  0.00    -0.066 N 
HETATM   14  H           1     -23.137  -3.609  -9.125  0.00  0.00     0.275 HD
HETATM   15  H           1     -23.478  -4.442  -7.675  0.00  0.00     0.275 HD
HETATM   16  H           1     -22.472  -3.064  -7.651  0.00  0.00     0.275 HD
ENDBRANCH   5  13
ENDBRANCH   3   5
BRANCH   4  17
HETATM   17  C           1     -20.682  -6.948  -5.380  0.00  0.00     0.210 C 
BRANCH  17  18
HETATM   18  C           1     -20.168  -8.362  -5.497  0.00  0.00     0.198 C 
HETATM   19  O           1     -20.893  -9.320  -5.152  0.00  0.00    -0.646 OA
HETATM   20  O           1     -19.019  -8.574  -5.939  0.00  0.00    -0.646 OA
ENDBRANCH  17  18
BRANCH  17  21
HETATM   21  C           1     -21.791  -6.894  -4.338  0.00  0.00     0.217 C 
BRANCH  21  22
HETATM   22  O           1     -21.250  -6.524  -3.098  0.00  0.00    -0.287 OA
BRANCH  22  23
HETATM   23  P           1     -21.451  -7.583  -1.894  0.00  0.00     0.406 P 
HETATM   24  O           1     -22.432  -7.047  -0.925  0.00  0.00    -0.624 OA
HETATM   25  O           1     -20.157  -7.807  -1.213  0.00  0.00    -0.624 OA
BRANCH  23  26
HETATM   26  O           1     -21.995  -8.981  -2.493  0.00  0.00    -0.300 OA
HETATM   27  H           1     -22.510  -9.358  -1.801  0.00  0.00     0.223 HD
ENDBRANCH  23  26
ENDBRANCH  22  23
ENDBRANCH  21  22
ENDBRANCH  17  21
ENDBRANCH   4  17
TORSDOF 11
ENDMDL
