MODEL 1
REMARK VINA RESULT:      -5.4      0.000      0.000
REMARK  6 active torsions:
REMARK  status: ('A' for Active; 'I' for Inactive)
REMARK    1  A    between atoms: O_2  and  C_4 
REMARK    2  A    between atoms: C_3  and  C_9 
REMARK    3  A    between atoms: C_4  and  C_11 
REMARK    4  A    between atoms: N_5  and  C_11 
REMARK    5  A    between atoms: C_9  and  N_12 
REMARK    6  A    between atoms: C_11  and  C_13 
REMARK       I    between atoms: N_12  and  C_13 
ROOT
HETATM    1  H           1     -28.054  -6.955 -20.045  0.00  0.00     0.163 HD
HETATM    2  O           1     -26.029  -6.189 -17.775  0.00  0.00    -0.271 OA
HETATM    3  N           1     -27.741  -6.645 -19.135  0.00  0.00    -0.345 N 
HETATM    4  C           1     -26.402  -6.560 -18.862  0.00  0.00     0.251 C 
ENDROOT
BRANCH   4   5
HETATM    5  C           1     -25.392  -6.930 -19.921  0.00  0.00     0.297 C 
BRANCH   5   6
HETATM    6  C           1     -26.041  -7.858 -20.940  0.00  0.00     0.206 C 
BRANCH   6   7
HETATM    7  O           1     -25.046  -8.550 -21.644  0.00  0.00    -0.398 OA
HETATM    8  H           1     -25.050  -8.215 -22.524  0.00  0.00     0.209 HD
ENDBRANCH   6   7
ENDBRANCH   5   6
BRANCH   5   9
HETATM    9  N           1     -24.230  -7.627 -19.280  0.00  0.00    -0.064 N 
HETATM   10  H           1     -24.225  -8.632 -19.568  0.00  0.00     0.275 HD
HETATM   11  H           1     -23.339  -7.175 -19.588  0.00  0.00     0.275 HD
HETATM   12  H           1     -24.314  -7.562 -18.241  0.00  0.00     0.275 HD
ENDBRANCH   5   9
ENDBRANCH   4   5
BRANCH   3  13
HETATM   13  C           1     -28.712  -6.289 -18.117  0.00  0.00     0.181 C 
HETATM   14  C           1     -29.258  -4.896 -18.402  0.00  0.00     0.043 C 
BRANCH  13  15
HETATM   15  C           1     -29.843  -7.287 -18.132  0.00  0.00     0.196 C 
HETATM   16  O           1     -29.768  -8.307 -18.851  0.00  0.00    -0.646 OA
HETATM   17  O           1     -30.856  -7.094 -17.426  0.00  0.00    -0.646 OA
ENDBRANCH  13  15
ENDBRANCH   3  13
TORSDOF 6
ENDMDL
MODEL 2
REMARK VINA RESULT:      -5.3      3.160      4.771
REMARK  6 active torsions:
REMARK  status: ('A' for Active; 'I' for Inactive)
REMARK    1  A    between atoms: O_2  and  C_4 
REMARK    2  A    between atoms: C_3  and  C_9 
REMARK    3  A    between atoms: C_4  and  C_11 
REMARK    4  A    between atoms: N_5  and  C_11 
REMARK    5  A    between atoms: C_9  and  N_12 
REMARK    6  A    between atoms: C_11  and  C_13 
REMARK       I    between atoms: N_12  and  C_13 
ROOT
HETATM    1  H           1     -28.334  -7.543 -16.704  0.00  0.00     0.163 HD
HETATM    2  O           1     -29.025  -5.276 -18.759  0.00  0.00    -0.271 OA
HETATM    3  N           1     -28.269  -6.645 -17.164  0.00  0.00    -0.345 N 
HETATM    4  C           1     -29.102  -6.349 -18.210  0.00  0.00     0.251 C 
ENDROOT
BRANCH   4   5
HETATM    5  C           1     -30.115  -7.365 -18.677  0.00  0.00     0.297 C 
BRANCH   5   6
HETATM    6  C           1     -31.281  -7.407 -17.697  0.00  0.00     0.206 C 
BRANCH   6   7
HETATM    7  O           1     -31.243  -6.271 -16.875  0.00  0.00    -0.398 OA
HETATM    8  H           1     -30.855  -6.537 -16.059  0.00  0.00     0.209 HD
ENDBRANCH   6   7
ENDBRANCH   5   6
BRANCH   5   9
HETATM    9  N           1     -29.472  -8.718 -18.744  0.00  0.00    -0.064 N 
HETATM   10  H           1     -29.343  -8.993 -19.744  0.00  0.00     0.275 HD
HETATM   11  H           1     -28.541  -8.685 -18.270  0.00  0.00     0.275 HD
HETATM   12  H           1     -30.082  -9.419 -18.266  0.00  0.00     0.275 HD
ENDBRANCH   5   9
ENDBRANCH   4   5
BRANCH   3  13
HETATM   13  C           1     -27.295  -5.668 -16.715  0.00  0.00     0.181 C 
HETATM   14  C           1     -27.969  -4.671 -15.782  0.00  0.00     0.043 C 
BRANCH  13  15
HETATM   15  C           1     -26.181  -6.373 -15.980  0.00  0.00     0.196 C 
HETATM   16  O           1     -25.054  -5.839 -15.892  0.00  0.00    -0.646 OA
HETATM   17  O           1     -26.385  -7.491 -15.459  0.00  0.00    -0.646 OA
ENDBRANCH  13  15
ENDBRANCH   3  13
TORSDOF 6
ENDMDL
MODEL 3
REMARK VINA RESULT:      -5.3      3.075      5.862
REMARK  6 active torsions:
REMARK  status: ('A' for Active; 'I' for Inactive)
REMARK    1  A    between atoms: O_2  and  C_4 
REMARK    2  A    between atoms: C_3  and  C_9 
REMARK    3  A    between atoms: C_4  and  C_11 
REMARK    4  A    between atoms: N_5  and  C_11 
REMARK    5  A    between atoms: C_9  and  N_12 
REMARK    6  A    between atoms: C_11  and  C_13 
REMARK       I    between atoms: N_12  and  C_13 
ROOT
HETATM    1  H           1     -28.355  -4.339 -16.718  0.00  0.00     0.163 HD
HETATM    2  O           1     -30.634  -6.320 -17.567  0.00  0.00    -0.271 OA
HETATM    3  N           1     -28.776  -5.207 -17.023  0.00  0.00    -0.345 N 
HETATM    4  C           1     -30.132  -5.285 -17.202  0.00  0.00     0.251 C 
ENDROOT
BRANCH   4   5
HETATM    5  C           1     -30.996  -4.075 -16.944  0.00  0.00     0.297 C 
BRANCH   5   6
HETATM    6  C           1     -32.455  -4.504 -16.848  0.00  0.00     0.206 C 
BRANCH   6   7
HETATM    7  O           1     -33.279  -3.467 -17.307  0.00  0.00    -0.398 OA
HETATM    8  H           1     -34.169  -3.766 -17.221  0.00  0.00     0.209 HD
ENDBRANCH   6   7
ENDBRANCH   5   6
BRANCH   5   9
HETATM    9  N           1     -30.836  -3.097 -18.070  0.00  0.00    -0.064 N 
HETATM   10  H           1     -30.852  -2.123 -17.690  0.00  0.00     0.275 HD
HETATM   11  H           1     -29.925  -3.267 -18.551  0.00  0.00     0.275 HD
HETATM   12  H           1     -31.619  -3.219 -18.751  0.00  0.00     0.275 HD
ENDBRANCH   5   9
ENDBRANCH   4   5
BRANCH   3  13
HETATM   13  C           1     -27.945  -6.369 -17.272  0.00  0.00     0.181 C 
HETATM   14  C           1     -27.350  -6.277 -18.671  0.00  0.00     0.043 C 
BRANCH  13  15
HETATM   15  C           1     -26.833  -6.418 -16.254  0.00  0.00     0.196 C 
HETATM   16  O           1     -26.766  -7.368 -15.444  0.00  0.00    -0.646 OA
HETATM   17  O           1     -25.977  -5.507 -16.219  0.00  0.00    -0.646 OA
ENDBRANCH  13  15
ENDBRANCH   3  13
TORSDOF 6
ENDMDL
MODEL 4
REMARK VINA RESULT:      -5.3     11.281     12.500
REMARK  6 active torsions:
REMARK  status: ('A' for Active; 'I' for Inactive)
REMARK    1  A    between atoms: O_2  and  C_4 
REMARK    2  A    between atoms: C_3  and  C_9 
REMARK    3  A    between atoms: C_4  and  C_11 
REMARK    4  A    between atoms: N_5  and  C_11 
REMARK    5  A    between atoms: C_9  and  N_12 
REMARK    6  A    between atoms: C_11  and  C_13 
REMARK       I    between atoms: N_12  and  C_13 
ROOT
HETATM    1  H           1     -22.340  -5.761  -9.417  0.00  0.00     0.163 HD
HETATM    2  O           1     -21.615  -3.671  -7.193  0.00  0.00    -0.271 OA
HETATM    3  N           1     -22.258  -4.855  -8.974  0.00  0.00    -0.345 N 
HETATM    4  C           1     -21.714  -4.752  -7.722  0.00  0.00     0.251 C 
ENDROOT
BRANCH   4   5
HETATM    5  C           1     -21.239  -5.991  -7.002  0.00  0.00     0.297 C 
BRANCH   5   6
HETATM    6  C           1     -21.476  -5.833  -5.507  0.00  0.00     0.206 C 
BRANCH   6   7
HETATM    7  O           1     -22.850  -5.921  -5.238  0.00  0.00    -0.398 OA
HETATM    8  H           1     -22.938  -6.319  -4.389  0.00  0.00     0.209 HD
ENDBRANCH   6   7
ENDBRANCH   5   6
BRANCH   5   9
HETATM    9  N           1     -19.773  -6.184  -7.257  0.00  0.00    -0.064 N 
HETATM   10  H           1     -19.326  -5.257  -7.438  0.00  0.00     0.275 HD
HETATM   11  H           1     -19.330  -6.627  -6.421  0.00  0.00     0.275 HD
HETATM   12  H           1     -19.642  -6.803  -8.090  0.00  0.00     0.275 HD
ENDBRANCH   5   9
ENDBRANCH   4   5
BRANCH   3  13
HETATM   13  C           1     -22.715  -3.665  -9.666  0.00  0.00     0.181 C 
HETATM   14  C           1     -21.830  -3.413 -10.880  0.00  0.00     0.043 C 
BRANCH  13  15
HETATM   15  C           1     -24.142  -3.861 -10.114  0.00  0.00     0.196 C 
HETATM   16  O           1     -24.707  -2.986 -10.804  0.00  0.00    -0.646 OA
HETATM   17  O           1     -24.760  -4.900  -9.794  0.00  0.00    -0.646 OA
ENDBRANCH  13  15
ENDBRANCH   3  13
TORSDOF 6
ENDMDL
MODEL 5
REMARK VINA RESULT:      -5.3      1.758      2.279
REMARK  6 active torsions:
REMARK  status: ('A' for Active; 'I' for Inactive)
REMARK    1  A    between atoms: O_2  and  C_4 
REMARK    2  A    between atoms: C_3  and  C_9 
REMARK    3  A    between atoms: C_4  and  C_11 
REMARK    4  A    between atoms: N_5  and  C_11 
REMARK    5  A    between atoms: C_9  and  N_12 
REMARK    6  A    between atoms: C_11  and  C_13 
REMARK       I    between atoms: N_12  and  C_13 
ROOT
HETATM    1  H           1     -26.511  -7.062 -17.872  0.00  0.00     0.163 HD
HETATM    2  O           1     -27.092  -5.743 -20.658  0.00  0.00    -0.271 OA
HETATM    3  N           1     -27.023  -6.545 -18.575  0.00  0.00    -0.345 N 
HETATM    4  C           1     -26.481  -6.360 -19.819  0.00  0.00     0.251 C 
ENDROOT
BRANCH   4   5
HETATM    5  C           1     -25.120  -6.927 -20.140  0.00  0.00     0.297 C 
BRANCH   5   6
HETATM    6  C           1     -25.268  -8.063 -21.143  0.00  0.00     0.206 C 
BRANCH   6   7
HETATM    7  O           1     -26.597  -8.509 -21.155  0.00  0.00    -0.398 OA
HETATM    8  H           1     -26.818  -8.735 -20.267  0.00  0.00     0.209 HD
ENDBRANCH   6   7
ENDBRANCH   5   6
BRANCH   5   9
HETATM    9  N           1     -24.487  -7.449 -18.885  0.00  0.00    -0.064 N 
HETATM   10  H           1     -24.940  -7.002 -18.055  0.00  0.00     0.275 HD
HETATM   11  H           1     -24.615  -8.485 -18.834  0.00  0.00     0.275 HD
HETATM   12  H           1     -23.467  -7.223 -18.888  0.00  0.00     0.275 HD
ENDBRANCH   5   9
ENDBRANCH   4   5
BRANCH   3  13
HETATM   13  C           1     -28.331  -6.000 -18.265  0.00  0.00     0.181 C 
HETATM   14  C           1     -29.359  -7.124 -18.259  0.00  0.00     0.043 C 
BRANCH  13  15
HETATM   15  C           1     -28.293  -5.344 -16.908  0.00  0.00     0.196 C 
HETATM   16  O           1     -29.042  -5.752 -15.994  0.00  0.00    -0.646 OA
HETATM   17  O           1     -27.511  -4.391 -16.696  0.00  0.00    -0.646 OA
ENDBRANCH  13  15
ENDBRANCH   3  13
TORSDOF 6
ENDMDL
MODEL 6
REMARK VINA RESULT:      -5.1      2.588      3.609
REMARK  6 active torsions:
REMARK  status: ('A' for Active; 'I' for Inactive)
REMARK    1  A    between atoms: O_2  and  C_4 
REMARK    2  A    between atoms: C_3  and  C_9 
REMARK    3  A    between atoms: C_4  and  C_11 
REMARK    4  A    between atoms: N_5  and  C_11 
REMARK    5  A    between atoms: C_9  and  N_12 
REMARK    6  A    between atoms: C_11  and  C_13 
REMARK       I    between atoms: N_12  and  C_13 
ROOT
HETATM    1  H           1     -27.199  -6.668 -16.262  0.00  0.00     0.163 HD
HETATM    2  O           1     -25.548  -6.379 -18.914  0.00  0.00    -0.271 OA
HETATM    3  N           1     -26.995  -6.389 -17.213  0.00  0.00    -0.345 N 
HETATM    4  C           1     -25.791  -6.711 -17.778  0.00  0.00     0.251 C 
ENDROOT
BRANCH   4   5
HETATM    5  C           1     -24.767  -7.483 -16.983  0.00  0.00     0.297 C 
BRANCH   5   6
HETATM    6  C           1     -24.766  -6.990 -15.542  0.00  0.00     0.206 C 
BRANCH   6   7
HETATM    7  O           1     -24.628  -5.594 -15.525  0.00  0.00    -0.398 OA
HETATM    8  H           1     -23.792  -5.406 -15.134  0.00  0.00     0.209 HD
ENDBRANCH   6   7
ENDBRANCH   5   6
BRANCH   5   9
HETATM    9  N           1     -23.408  -7.275 -17.583  0.00  0.00    -0.064 N 
HETATM   10  H           1     -22.729  -7.939 -17.146  0.00  0.00     0.275 HD
HETATM   11  H           1     -23.451  -7.450 -18.612  0.00  0.00     0.275 HD
HETATM   12  H           1     -23.096  -6.293 -17.408  0.00  0.00     0.275 HD
ENDBRANCH   5   9
ENDBRANCH   4   5
BRANCH   3  13
HETATM   13  C           1     -27.980  -5.648 -17.977  0.00  0.00     0.181 C 
HETATM   14  C           1     -29.213  -6.515 -18.193  0.00  0.00     0.043 C 
BRANCH  13  15
HETATM   15  C           1     -28.367  -4.401 -17.221  0.00  0.00     0.196 C 
HETATM   16  O           1     -29.148  -3.573 -17.738  0.00  0.00    -0.646 OA
HETATM   17  O           1     -27.907  -4.196 -16.077  0.00  0.00    -0.646 OA
ENDBRANCH  13  15
ENDBRANCH   3  13
TORSDOF 6
ENDMDL
MODEL 7
REMARK VINA RESULT:      -4.9     11.226     12.469
REMARK  6 active torsions:
REMARK  status: ('A' for Active; 'I' for Inactive)
REMARK    1  A    between atoms: O_2  and  C_4 
REMARK    2  A    between atoms: C_3  and  C_9 
REMARK    3  A    between atoms: C_4  and  C_11 
REMARK    4  A    between atoms: N_5  and  C_11 
REMARK    5  A    between atoms: C_9  and  N_12 
REMARK    6  A    between atoms: C_11  and  C_13 
REMARK       I    between atoms: N_12  and  C_13 
ROOT
HETATM    1  H           1     -22.170  -4.276  -7.981  0.00  0.00     0.163 HD
HETATM    2  O           1     -19.976  -4.911 -10.132  0.00  0.00    -0.271 OA
HETATM    3  N           1     -21.320  -4.670  -8.365  0.00  0.00    -0.345 N 
HETATM    4  C           1     -20.990  -4.441  -9.674  0.00  0.00     0.251 C 
ENDROOT
BRANCH   4   5
HETATM    5  C           1     -21.894  -3.602 -10.544  0.00  0.00     0.297 C 
BRANCH   5   6
HETATM    6  C           1     -23.034  -4.463 -11.071  0.00  0.00     0.206 C 
BRANCH   6   7
HETATM    7  O           1     -22.886  -4.642 -12.454  0.00  0.00    -0.398 OA
HETATM    8  H           1     -23.441  -5.363 -12.698  0.00  0.00     0.209 HD
ENDBRANCH   6   7
ENDBRANCH   5   6
BRANCH   5   9
HETATM    9  N           1     -21.107  -3.055 -11.698  0.00  0.00    -0.064 N 
HETATM   10  H           1     -20.736  -2.110 -11.449  0.00  0.00     0.275 HD
HETATM   11  H           1     -20.310  -3.696 -11.912  0.00  0.00     0.275 HD
HETATM   12  H           1     -21.727  -2.976 -12.536  0.00  0.00     0.275 HD
ENDBRANCH   5   9
ENDBRANCH   4   5
BRANCH   3  13
HETATM   13  C           1     -20.452  -5.476  -7.528  0.00  0.00     0.181 C 
HETATM   14  C           1     -19.434  -4.577  -6.839  0.00  0.00     0.043 C 
BRANCH  13  15
HETATM   15  C           1     -21.279  -6.191  -6.489  0.00  0.00     0.196 C 
HETATM   16  O           1     -21.115  -7.414  -6.290  0.00  0.00    -0.646 OA
HETATM   17  O           1     -22.130  -5.559  -5.825  0.00  0.00    -0.646 OA
ENDBRANCH  13  15
ENDBRANCH   3  13
TORSDOF 6
ENDMDL
MODEL 8
REMARK VINA RESULT:      -4.8      2.698      5.252
REMARK  6 active torsions:
REMARK  status: ('A' for Active; 'I' for Inactive)
REMARK    1  A    between atoms: O_2  and  C_4 
REMARK    2  A    between atoms: C_3  and  C_9 
REMARK    3  A    between atoms: C_4  and  C_11 
REMARK    4  A    between atoms: N_5  and  C_11 
REMARK    5  A    between atoms: C_9  and  N_12 
REMARK    6  A    between atoms: C_11  and  C_13 
REMARK       I    between atoms: N_12  and  C_13 
ROOT
HETATM    1  H           1     -28.107  -7.124 -17.877  0.00  0.00     0.163 HD
HETATM    2  O           1     -28.282  -4.204 -16.746  0.00  0.00    -0.271 OA
HETATM    3  N           1     -27.787  -6.263 -17.454  0.00  0.00    -0.345 N 
HETATM    4  C           1     -28.664  -5.231 -17.251  0.00  0.00     0.251 C 
ENDROOT
BRANCH   4   5
HETATM    5  C           1     -30.110  -5.380 -17.659  0.00  0.00     0.297 C 
BRANCH   5   6
HETATM    6  C           1     -30.880  -4.126 -17.267  0.00  0.00     0.206 C 
BRANCH   6   7
HETATM    7  O           1     -30.631  -3.112 -18.204  0.00  0.00    -0.398 OA
HETATM    8  H           1     -31.218  -2.403 -18.003  0.00  0.00     0.209 HD
ENDBRANCH   6   7
ENDBRANCH   5   6
BRANCH   5   9
HETATM    9  N           1     -30.705  -6.568 -16.963  0.00  0.00    -0.064 N 
HETATM   10  H           1     -29.938  -7.180 -16.600  0.00  0.00     0.275 HD
HETATM   11  H           1     -31.297  -6.244 -16.165  0.00  0.00     0.275 HD
HETATM   12  H           1     -31.293  -7.109 -17.637  0.00  0.00     0.275 HD
ENDBRANCH   5   9
ENDBRANCH   4   5
BRANCH   3  13
HETATM   13  C           1     -26.398  -6.120 -17.062  0.00  0.00     0.181 C 
HETATM   14  C           1     -26.137  -6.945 -15.808  0.00  0.00     0.043 C 
BRANCH  13  15
HETATM   15  C           1     -25.509  -6.607 -18.179  0.00  0.00     0.196 C 
HETATM   16  O           1     -25.949  -6.667 -19.348  0.00  0.00    -0.646 OA
HETATM   17  O           1     -24.331  -6.951 -17.937  0.00  0.00    -0.646 OA
ENDBRANCH  13  15
ENDBRANCH   3  13
TORSDOF 6
ENDMDL
MODEL 9
REMARK VINA RESULT:      -4.8     10.886     12.052
REMARK  6 active torsions:
REMARK  status: ('A' for Active; 'I' for Inactive)
REMARK    1  A    between atoms: O_2  and  C_4 
REMARK    2  A    between atoms: C_3  and  C_9 
REMARK    3  A    between atoms: C_4  and  C_11 
REMARK    4  A    between atoms: N_5  and  C_11 
REMARK    5  A    between atoms: C_9  and  N_12 
REMARK    6  A    between atoms: C_11  and  C_13 
REMARK       I    between atoms: N_12  and  C_13 
ROOT
HETATM    1  H           1     -22.261  -2.741  -8.976  0.00  0.00     0.163 HD
HETATM    2  O           1     -22.139  -5.682  -7.891  0.00  0.00    -0.271 OA
HETATM    3  N           1     -22.510  -3.718  -8.886  0.00  0.00    -0.345 N 
HETATM    4  C           1     -21.841  -4.517  -7.998  0.00  0.00     0.251 C 
ENDROOT
BRANCH   4   5
HETATM    5  C           1     -20.731  -3.940  -7.154  0.00  0.00     0.297 C 
BRANCH   5   6
HETATM    6  C           1     -19.410  -4.059  -7.901  0.00  0.00     0.206 C 
BRANCH   6   7
HETATM    7  O           1     -19.641  -4.583  -9.182  0.00  0.00    -0.398 OA
HETATM    8  H           1     -20.197  -5.336  -9.073  0.00  0.00     0.209 HD
ENDBRANCH   6   7
ENDBRANCH   5   6
BRANCH   5   9
HETATM    9  N           1     -20.643  -4.696  -5.861  0.00  0.00    -0.064 N 
HETATM   10  H           1     -20.588  -5.721  -6.060  0.00  0.00     0.275 HD
HETATM   11  H           1     -19.788  -4.397  -5.340  0.00  0.00     0.275 HD
HETATM   12  H           1     -21.491  -4.499  -5.283  0.00  0.00     0.275 HD
ENDBRANCH   5   9
ENDBRANCH   4   5
BRANCH   3  13
HETATM   13  C           1     -23.578  -4.271  -9.698  0.00  0.00     0.181 C 
HETATM   14  C           1     -24.751  -3.301  -9.723  0.00  0.00     0.043 C 
BRANCH  13  15
HETATM   15  C           1     -23.076  -4.492 -11.103  0.00  0.00     0.196 C 
HETATM   16  O           1     -23.886  -4.570 -12.052  0.00  0.00    -0.646 OA
HETATM   17  O           1     -21.848  -4.597 -11.319  0.00  0.00    -0.646 OA
ENDBRANCH  13  15
ENDBRANCH   3  13
TORSDOF 6
ENDMDL
