MODEL 1
REMARK VINA RESULT:      -7.4      0.000      0.000
REMARK  10 active torsions:
REMARK  status: ('A' for Active; 'I' for Inactive)
REMARK    1  A    between atoms: C_1  and  O_20 
REMARK    2  A    between atoms: C_3  and  C_9 
REMARK       I    between atoms: C_4  and  N_15 
REMARK    3  A    between atoms: C_4  and  C_22 
REMARK    4  A    between atoms: C_9  and  C_10 
REMARK    5  A    between atoms: C_10  and  C_18 
REMARK    6  A    between atoms: N_15  and  C_18 
REMARK    7  A    between atoms: C_18  and  C_23 
REMARK    8  A    between atoms: N_19  and  C_22 
REMARK    9  A    between atoms: C_22  and  C_26 
REMARK   10  A    between atoms: C_25  and  C_26 
ROOT
HETATM    1  C           1     -21.960  -5.441  -6.687  0.00  0.00     0.278 C 
ENDROOT
BRANCH   1   2
HETATM    2  C           1     -20.989  -6.087  -5.730  0.00  0.00     0.249 C 
HETATM    3  N           1     -21.177  -7.385  -5.335  0.00  0.00    -0.345 N 
HETATM    4  H           1     -21.967  -7.910  -5.686  0.00  0.00     0.163 HD
HETATM    5  O           1     -20.046  -5.459  -5.311  0.00  0.00    -0.271 OA
BRANCH   3   6
HETATM    6  C           1     -20.243  -8.005  -4.416  0.00  0.00     0.186 C 
BRANCH   6   7
HETATM    7  C           1     -20.990  -8.475  -3.175  0.00  0.00     0.046 C 
BRANCH   7   8
HETATM    8  C           1     -20.816  -7.453  -2.059  0.00  0.00     0.116 C 
BRANCH   8   9
HETATM    9  C           1     -22.098  -6.675  -1.886  0.00  0.00     0.172 C 
HETATM   10  O           1     -22.737  -6.753  -0.815  0.00  0.00    -0.648 OA
HETATM   11  O           1     -22.520  -5.952  -2.815  0.00  0.00    -0.648 OA
ENDBRANCH   8   9
ENDBRANCH   7   8
ENDBRANCH   6   7
BRANCH   6  12
HETATM   12  C           1     -19.589  -9.187  -5.088  0.00  0.00     0.196 C 
HETATM   13  O           1     -18.359  -9.376  -4.962  0.00  0.00    -0.646 OA
HETATM   14  O           1     -20.276  -9.977  -5.771  0.00  0.00    -0.646 OA
ENDBRANCH   6  12
ENDBRANCH   3   6
ENDBRANCH   1   2
BRANCH   1  15
HETATM   15  N           1     -23.267  -5.205  -5.989  0.00  0.00    -0.066 N 
HETATM   16  H           1     -24.025  -5.091  -6.699  0.00  0.00     0.275 HD
HETATM   17  H           1     -23.200  -4.339  -5.407  0.00  0.00     0.275 HD
HETATM   18  H           1     -23.486  -6.021  -5.374  0.00  0.00     0.275 HD
ENDBRANCH   1  15
BRANCH   1  19
HETATM   19  C           1     -21.394  -4.110  -7.165  0.00  0.00     0.081 C 
BRANCH  19  20
HETATM   20  C           1     -21.482  -4.037  -8.658  0.00  0.00    -0.056 A 
HETATM   21  C           1     -22.697  -3.732  -9.270  0.00  0.00     0.010 A 
HETATM   22  C           1     -22.778  -3.665 -10.662  0.00  0.00     0.037 A 
HETATM   23  C           1     -21.645  -3.903 -11.439  0.00  0.00     0.065 A 
HETATM   24  C           1     -20.431  -4.209 -10.826  0.00  0.00     0.037 A 
HETATM   25  C           1     -20.349  -4.276  -9.435  0.00  0.00     0.010 A 
BRANCH  23  26
HETATM   26  O           1     -21.725  -3.838 -12.790  0.00  0.00    -0.361 OA
HETATM   27  H           1     -21.000  -3.273 -13.107  0.00  0.00     0.217 HD
ENDBRANCH  23  26
ENDBRANCH  19  20
ENDBRANCH   1  19
TORSDOF 10
ENDMDL
MODEL 2
REMARK VINA RESULT:      -7.2      1.328      1.778
REMARK  10 active torsions:
REMARK  status: ('A' for Active; 'I' for Inactive)
REMARK    1  A    between atoms: C_1  and  O_20 
REMARK    2  A    between atoms: C_3  and  C_9 
REMARK       I    between atoms: C_4  and  N_15 
REMARK    3  A    between atoms: C_4  and  C_22 
REMARK    4  A    between atoms: C_9  and  C_10 
REMARK    5  A    between atoms: C_10  and  C_18 
REMARK    6  A    between atoms: N_15  and  C_18 
REMARK    7  A    between atoms: C_18  and  C_23 
REMARK    8  A    between atoms: N_19  and  C_22 
REMARK    9  A    between atoms: C_22  and  C_26 
REMARK   10  A    between atoms: C_25  and  C_26 
ROOT
HETATM    1  C           1     -22.194  -5.136  -6.670  0.00  0.00     0.278 C 
ENDROOT
BRANCH   1   2
HETATM    2  C           1     -21.428  -5.616  -5.462  0.00  0.00     0.249 C 
HETATM    3  N           1     -22.065  -6.341  -4.490  0.00  0.00    -0.345 N 
HETATM    4  H           1     -23.050  -6.555  -4.583  0.00  0.00     0.163 HD
HETATM    5  O           1     -20.253  -5.360  -5.351  0.00  0.00    -0.271 OA
BRANCH   3   6
HETATM    6  C           1     -21.329  -6.802  -3.330  0.00  0.00     0.186 C 
BRANCH   6   7
HETATM    7  C           1     -22.192  -6.646  -2.085  0.00  0.00     0.046 C 
BRANCH   7   8
HETATM    8  C           1     -21.551  -7.395  -0.924  0.00  0.00     0.116 C 
BRANCH   8   9
HETATM    9  C           1     -22.611  -8.172  -0.181  0.00  0.00     0.172 C 
HETATM   10  O           1     -23.556  -7.569   0.371  0.00  0.00    -0.648 OA
HETATM   11  O           1     -22.541  -9.418  -0.116  0.00  0.00    -0.648 OA
ENDBRANCH   8   9
ENDBRANCH   7   8
ENDBRANCH   6   7
BRANCH   6  12
HETATM   12  C           1     -20.966  -8.256  -3.511  0.00  0.00     0.196 C 
HETATM   13  O           1     -21.863  -9.102  -3.717  0.00  0.00    -0.646 OA
HETATM   14  O           1     -19.770  -8.613  -3.454  0.00  0.00    -0.646 OA
ENDBRANCH   6  12
ENDBRANCH   3   6
ENDBRANCH   1   2
BRANCH   1  15
HETATM   15  N           1     -23.618  -4.863  -6.282  0.00  0.00    -0.066 N 
HETATM   16  H           1     -24.232  -4.963  -7.121  0.00  0.00     0.275 HD
HETATM   17  H           1     -23.695  -3.891  -5.906  0.00  0.00     0.275 HD
HETATM   18  H           1     -23.916  -5.545  -5.549  0.00  0.00     0.275 HD
ENDBRANCH   1  15
BRANCH   1  19
HETATM   19  C           1     -21.559  -3.857  -7.200  0.00  0.00     0.081 C 
BRANCH  19  20
HETATM   20  C           1     -21.599  -3.863  -8.696  0.00  0.00    -0.056 A 
HETATM   21  C           1     -22.795  -3.601  -9.363  0.00  0.00     0.010 A 
HETATM   22  C           1     -22.831  -3.607 -10.758  0.00  0.00     0.037 A 
HETATM   23  C           1     -21.671  -3.874 -11.485  0.00  0.00     0.065 A 
HETATM   24  C           1     -20.475  -4.137 -10.817  0.00  0.00     0.037 A 
HETATM   25  C           1     -20.438  -4.131  -9.422  0.00  0.00     0.010 A 
BRANCH  23  26
HETATM   26  O           1     -21.707  -3.881 -12.839  0.00  0.00    -0.361 OA
HETATM   27  H           1     -21.833  -4.799 -13.131  0.00  0.00     0.217 HD
ENDBRANCH  23  26
ENDBRANCH  19  20
ENDBRANCH   1  19
TORSDOF 10
ENDMDL
MODEL 3
REMARK VINA RESULT:      -7.0     13.926     15.928
REMARK  10 active torsions:
REMARK  status: ('A' for Active; 'I' for Inactive)
REMARK    1  A    between atoms: C_1  and  O_20 
REMARK    2  A    between atoms: C_3  and  C_9 
REMARK       I    between atoms: C_4  and  N_15 
REMARK    3  A    between atoms: C_4  and  C_22 
REMARK    4  A    between atoms: C_9  and  C_10 
REMARK    5  A    between atoms: C_10  and  C_18 
REMARK    6  A    between atoms: N_15  and  C_18 
REMARK    7  A    between atoms: C_18  and  C_23 
REMARK    8  A    between atoms: N_19  and  C_22 
REMARK    9  A    between atoms: C_22  and  C_26 
REMARK   10  A    between atoms: C_25  and  C_26 
ROOT
HETATM    1  C           1     -36.294  -0.733 -10.864  0.00  0.00     0.278 C 
ENDROOT
BRANCH   1   2
HETATM    2  C           1     -35.212  -1.776 -11.006  0.00  0.00     0.249 C 
HETATM    3  N           1     -35.549  -3.095 -11.160  0.00  0.00    -0.345 N 
HETATM    4  H           1     -36.523  -3.370 -11.178  0.00  0.00     0.163 HD
HETATM    5  O           1     -34.051  -1.448 -10.984  0.00  0.00    -0.271 OA
BRANCH   3   6
HETATM    6  C           1     -34.510  -4.097 -11.298  0.00  0.00     0.186 C 
BRANCH   6   7
HETATM    7  C           1     -34.891  -5.337 -10.501  0.00  0.00     0.046 C 
BRANCH   7   8
HETATM    8  C           1     -33.821  -6.406 -10.680  0.00  0.00     0.116 C 
BRANCH   8   9
HETATM    9  C           1     -34.323  -7.718 -10.129  0.00  0.00     0.172 C 
HETATM   10  O           1     -35.480  -7.799  -9.663  0.00  0.00    -0.648 OA
HETATM   11  O           1     -33.582  -8.724 -10.139  0.00  0.00    -0.648 OA
ENDBRANCH   8   9
ENDBRANCH   7   8
ENDBRANCH   6   7
BRANCH   6  12
HETATM   12  C           1     -34.356  -4.462 -12.754  0.00  0.00     0.196 C 
HETATM   13  O           1     -33.435  -3.956 -13.431  0.00  0.00    -0.646 OA
HETATM   14  O           1     -35.150  -5.270 -13.283  0.00  0.00    -0.646 OA
ENDBRANCH   6  12
ENDBRANCH   3   6
ENDBRANCH   1   2
BRANCH   1  15
HETATM   15  N           1     -36.416  -0.334  -9.423  0.00  0.00    -0.066 N 
HETATM   16  H           1     -35.516  -0.533  -8.929  0.00  0.00     0.275 HD
HETATM   17  H           1     -37.187  -0.879  -8.975  0.00  0.00     0.275 HD
HETATM   18  H           1     -36.629   0.687  -9.361  0.00  0.00     0.275 HD
ENDBRANCH   1  15
BRANCH   1  19
HETATM   19  C           1     -35.934   0.489 -11.699  0.00  0.00     0.081 C 
BRANCH  19  20
HETATM   20  C           1     -36.166   0.188 -13.147  0.00  0.00    -0.056 A 
HETATM   21  C           1     -37.447  -0.127 -13.598  0.00  0.00     0.010 A 
HETATM   22  C           1     -37.662  -0.407 -14.949  0.00  0.00     0.037 A 
HETATM   23  C           1     -36.595  -0.372 -15.846  0.00  0.00     0.065 A 
HETATM   24  C           1     -35.314  -0.058 -15.395  0.00  0.00     0.037 A 
HETATM   25  C           1     -35.098   0.223 -14.045  0.00  0.00     0.010 A 
BRANCH  23  26
HETATM   26  O           1     -36.804  -0.645 -17.157  0.00  0.00    -0.361 OA
HETATM   27  H           1     -37.576  -1.231 -17.222  0.00  0.00     0.217 HD
ENDBRANCH  23  26
ENDBRANCH  19  20
ENDBRANCH   1  19
TORSDOF 10
ENDMDL
MODEL 4
REMARK VINA RESULT:      -6.6      1.308      3.220
REMARK  10 active torsions:
REMARK  status: ('A' for Active; 'I' for Inactive)
REMARK    1  A    between atoms: C_1  and  O_20 
REMARK    2  A    between atoms: C_3  and  C_9 
REMARK       I    between atoms: C_4  and  N_15 
REMARK    3  A    between atoms: C_4  and  C_22 
REMARK    4  A    between atoms: C_9  and  C_10 
REMARK    5  A    between atoms: C_10  and  C_18 
REMARK    6  A    between atoms: N_15  and  C_18 
REMARK    7  A    between atoms: C_18  and  C_23 
REMARK    8  A    between atoms: N_19  and  C_22 
REMARK    9  A    between atoms: C_22  and  C_26 
REMARK   10  A    between atoms: C_25  and  C_26 
ROOT
HETATM    1  C           1     -20.464  -5.225  -6.347  0.00  0.00     0.278 C 
ENDROOT
BRANCH   1   2
HETATM    2  C           1     -21.349  -5.997  -5.399  0.00  0.00     0.249 C 
HETATM    3  N           1     -20.789  -6.801  -4.442  0.00  0.00    -0.345 N 
HETATM    4  H           1     -19.783  -6.877  -4.370  0.00  0.00     0.163 HD
HETATM    5  O           1     -22.550  -5.906  -5.485  0.00  0.00    -0.271 OA
BRANCH   3   6
HETATM    6  C           1     -21.640  -7.542  -3.531  0.00  0.00     0.186 C 
BRANCH   6   7
HETATM    7  C           1     -21.073  -8.941  -3.332  0.00  0.00     0.046 C 
BRANCH   7   8
HETATM    8  C           1     -21.759  -9.908  -4.288  0.00  0.00     0.116 C 
BRANCH   8   9
HETATM    9  C           1     -20.872 -10.146  -5.486  0.00  0.00     0.172 C 
HETATM   10  O           1     -21.234 -10.934  -6.385  0.00  0.00    -0.648 OA
HETATM   11  O           1     -19.774  -9.556  -5.577  0.00  0.00    -0.648 OA
ENDBRANCH   8   9
ENDBRANCH   7   8
ENDBRANCH   6   7
BRANCH   6  12
HETATM   12  C           1     -21.694  -6.828  -2.203  0.00  0.00     0.196 C 
HETATM   13  O           1     -21.450  -7.453  -1.147  0.00  0.00    -0.646 OA
HETATM   14  O           1     -21.984  -5.613  -2.157  0.00  0.00    -0.646 OA
ENDBRANCH   6  12
ENDBRANCH   3   6
ENDBRANCH   1   2
BRANCH   1  15
HETATM   15  N           1     -20.124  -6.088  -7.527  0.00  0.00    -0.066 N 
HETATM   16  H           1     -19.866  -5.482  -8.338  0.00  0.00     0.275 HD
HETATM   17  H           1     -20.951  -6.676  -7.778  0.00  0.00     0.275 HD
HETATM   18  H           1     -19.318  -6.708  -7.285  0.00  0.00     0.275 HD
ENDBRANCH   1  15
BRANCH   1  19
HETATM   19  C           1     -21.197  -3.979  -6.826  0.00  0.00     0.081 C 
BRANCH  19  20
HETATM   20  C           1     -21.435  -4.076  -8.301  0.00  0.00    -0.056 A 
HETATM   21  C           1     -22.716  -4.341  -8.784  0.00  0.00     0.010 A 
HETATM   22  C           1     -22.937  -4.432 -10.160  0.00  0.00     0.037 A 
HETATM   23  C           1     -21.877  -4.257 -11.049  0.00  0.00     0.065 A 
HETATM   24  C           1     -20.597  -3.994 -10.565  0.00  0.00     0.037 A 
HETATM   25  C           1     -20.375  -3.903  -9.190  0.00  0.00     0.010 A 
BRANCH  23  26
HETATM   26  O           1     -22.092  -4.346 -12.384  0.00  0.00    -0.361 OA
HETATM   27  H           1     -22.277  -5.276 -12.597  0.00  0.00     0.217 HD
ENDBRANCH  23  26
ENDBRANCH  19  20
ENDBRANCH   1  19
TORSDOF 10
ENDMDL
MODEL 5
REMARK VINA RESULT:      -6.5     13.635     17.332
REMARK  10 active torsions:
REMARK  status: ('A' for Active; 'I' for Inactive)
REMARK    1  A    between atoms: C_1  and  O_20 
REMARK    2  A    between atoms: C_3  and  C_9 
REMARK       I    between atoms: C_4  and  N_15 
REMARK    3  A    between atoms: C_4  and  C_22 
REMARK    4  A    between atoms: C_9  and  C_10 
REMARK    5  A    between atoms: C_10  and  C_18 
REMARK    6  A    between atoms: N_15  and  C_18 
REMARK    7  A    between atoms: C_18  and  C_23 
REMARK    8  A    between atoms: N_19  and  C_22 
REMARK    9  A    between atoms: C_22  and  C_26 
REMARK   10  A    between atoms: C_25  and  C_26 
ROOT
HETATM    1  C           1     -35.142  -0.623 -11.957  0.00  0.00     0.278 C 
ENDROOT
BRANCH   1   2
HETATM    2  C           1     -35.752  -1.067 -13.265  0.00  0.00     0.249 C 
HETATM    3  N           1     -34.952  -1.279 -14.356  0.00  0.00    -0.345 N 
HETATM    4  H           1     -33.952  -1.137 -14.286  0.00  0.00     0.163 HD
HETATM    5  O           1     -36.944  -1.236 -13.348  0.00  0.00    -0.271 OA
BRANCH   3   6
HETATM    6  C           1     -35.537  -1.706 -15.612  0.00  0.00     0.186 C 
BRANCH   6   7
HETATM    7  C           1     -35.594  -0.526 -16.573  0.00  0.00     0.046 C 
BRANCH   7   8
HETATM    8  C           1     -36.630   0.478 -16.086  0.00  0.00     0.116 C 
BRANCH   8   9
HETATM    9  C           1     -35.947   1.778 -15.740  0.00  0.00     0.172 C 
HETATM   10  O           1     -35.228   1.855 -14.720  0.00  0.00    -0.648 OA
HETATM   11  O           1     -36.101   2.779 -16.472  0.00  0.00    -0.648 OA
ENDBRANCH   8   9
ENDBRANCH   7   8
ENDBRANCH   6   7
BRANCH   6  12
HETATM   12  C           1     -34.693  -2.803 -16.211  0.00  0.00     0.196 C 
HETATM   13  O           1     -34.735  -3.957 -15.730  0.00  0.00    -0.646 OA
HETATM   14  O           1     -33.950  -2.559 -17.186  0.00  0.00    -0.646 OA
ENDBRANCH   6  12
ENDBRANCH   3   6
ENDBRANCH   1   2
BRANCH   1  15
HETATM   15  N           1     -35.614   0.763 -11.632  0.00  0.00    -0.066 N 
HETATM   16  H           1     -36.500   0.959 -12.148  0.00  0.00     0.275 HD
HETATM   17  H           1     -34.883   1.455 -11.915  0.00  0.00     0.275 HD
HETATM   18  H           1     -35.785   0.841 -10.604  0.00  0.00     0.275 HD
ENDBRANCH   1  15
BRANCH   1  19
HETATM   19  C           1     -35.568  -1.577 -10.848  0.00  0.00     0.081 C 
BRANCH  19  20
HETATM   20  C           1     -34.820  -2.866 -10.985  0.00  0.00    -0.056 A 
HETATM   21  C           1     -35.472  -4.078 -10.763  0.00  0.00     0.010 A 
HETATM   22  C           1     -34.774  -5.280 -10.890  0.00  0.00     0.037 A 
HETATM   23  C           1     -33.423  -5.268 -11.239  0.00  0.00     0.065 A 
HETATM   24  C           1     -32.771  -4.056 -11.459  0.00  0.00     0.037 A 
HETATM   25  C           1     -33.469  -2.854 -11.332  0.00  0.00     0.010 A 
BRANCH  23  26
HETATM   26  O           1     -32.745  -6.435 -11.361  0.00  0.00    -0.361 OA
HETATM   27  H           1     -33.234  -7.118 -10.873  0.00  0.00     0.217 HD
ENDBRANCH  23  26
ENDBRANCH  19  20
ENDBRANCH   1  19
TORSDOF 10
ENDMDL
MODEL 6
REMARK VINA RESULT:      -6.4     13.653     17.459
REMARK  10 active torsions:
REMARK  status: ('A' for Active; 'I' for Inactive)
REMARK    1  A    between atoms: C_1  and  O_20 
REMARK    2  A    between atoms: C_3  and  C_9 
REMARK       I    between atoms: C_4  and  N_15 
REMARK    3  A    between atoms: C_4  and  C_22 
REMARK    4  A    between atoms: C_9  and  C_10 
REMARK    5  A    between atoms: C_10  and  C_18 
REMARK    6  A    between atoms: N_15  and  C_18 
REMARK    7  A    between atoms: C_18  and  C_23 
REMARK    8  A    between atoms: N_19  and  C_22 
REMARK    9  A    between atoms: C_22  and  C_26 
REMARK   10  A    between atoms: C_25  and  C_26 
ROOT
HETATM    1  C           1     -35.533  -0.645 -11.494  0.00  0.00     0.278 C 
ENDROOT
BRANCH   1   2
HETATM    2  C           1     -35.807  -0.577 -12.977  0.00  0.00     0.249 C 
HETATM    3  N           1     -34.835  -0.131 -13.833  0.00  0.00    -0.345 N 
HETATM    4  H           1     -33.933   0.153 -13.471  0.00  0.00     0.163 HD
HETATM    5  O           1     -36.882  -0.915 -13.409  0.00  0.00    -0.271 OA
BRANCH   3   6
HETATM    6  C           1     -35.098  -0.066 -15.257  0.00  0.00     0.186 C 
BRANCH   6   7
HETATM    7  C           1     -35.840  -1.321 -15.694  0.00  0.00     0.046 C 
BRANCH   7   8
HETATM    8  C           1     -35.280  -1.806 -17.024  0.00  0.00     0.116 C 
BRANCH   8   9
HETATM    9  C           1     -34.209  -2.839 -16.773  0.00  0.00     0.172 C 
HETATM   10  O           1     -34.318  -3.632 -15.813  0.00  0.00    -0.648 OA
HETATM   11  O           1     -33.211  -2.901 -17.524  0.00  0.00    -0.648 OA
ENDBRANCH   8   9
ENDBRANCH   7   8
ENDBRANCH   6   7
BRANCH   6  12
HETATM   12  C           1     -35.942   1.148 -15.556  0.00  0.00     0.196 C 
HETATM   13  O           1     -35.516   2.290 -15.277  0.00  0.00    -0.646 OA
HETATM   14  O           1     -37.069   1.012 -16.080  0.00  0.00    -0.646 OA
ENDBRANCH   6  12
ENDBRANCH   3   6
ENDBRANCH   1   2
BRANCH   1  15
HETATM   15  N           1     -36.163   0.535 -10.816  0.00  0.00    -0.066 N 
HETATM   16  H           1     -36.760   0.204 -10.025  0.00  0.00     0.275 HD
HETATM   17  H           1     -36.752   1.058 -11.503  0.00  0.00     0.275 HD
HETATM   18  H           1     -35.415   1.166 -10.448  0.00  0.00     0.275 HD
ENDBRANCH   1  15
BRANCH   1  19
HETATM   19  C           1     -36.123  -1.930 -10.928  0.00  0.00     0.081 C 
BRANCH  19  20
HETATM   20  C           1     -35.130  -3.041 -11.074  0.00  0.00    -0.056 A 
HETATM   21  C           1     -33.806  -2.755 -11.401  0.00  0.00     0.010 A 
HETATM   22  C           1     -32.881  -3.791 -11.538  0.00  0.00     0.037 A 
HETATM   23  C           1     -33.282  -5.113 -11.346  0.00  0.00     0.065 A 
HETATM   24  C           1     -34.607  -5.399 -11.019  0.00  0.00     0.037 A 
HETATM   25  C           1     -35.532  -4.363 -10.882  0.00  0.00     0.010 A 
BRANCH  23  26
HETATM   26  O           1     -32.384  -6.119 -11.479  0.00  0.00    -0.361 OA
HETATM   27  H           1     -32.305  -6.327 -12.425  0.00  0.00     0.217 HD
ENDBRANCH  23  26
ENDBRANCH  19  20
ENDBRANCH   1  19
TORSDOF 10
ENDMDL
MODEL 7
REMARK VINA RESULT:      -6.2      2.044      3.151
REMARK  10 active torsions:
REMARK  status: ('A' for Active; 'I' for Inactive)
REMARK    1  A    between atoms: C_1  and  O_20 
REMARK    2  A    between atoms: C_3  and  C_9 
REMARK       I    between atoms: C_4  and  N_15 
REMARK    3  A    between atoms: C_4  and  C_22 
REMARK    4  A    between atoms: C_9  and  C_10 
REMARK    5  A    between atoms: C_10  and  C_18 
REMARK    6  A    between atoms: N_15  and  C_18 
REMARK    7  A    between atoms: C_18  and  C_23 
REMARK    8  A    between atoms: N_19  and  C_22 
REMARK    9  A    between atoms: C_22  and  C_26 
REMARK   10  A    between atoms: C_25  and  C_26 
ROOT
HETATM    1  C           1     -20.528  -5.316  -6.330  0.00  0.00     0.278 C 
ENDROOT
BRANCH   1   2
HETATM    2  C           1     -21.446  -5.975  -5.330  0.00  0.00     0.249 C 
HETATM    3  N           1     -20.921  -6.649  -4.259  0.00  0.00    -0.345 N 
HETATM    4  H           1     -19.917  -6.705  -4.139  0.00  0.00     0.163 HD
HETATM    5  O           1     -22.643  -5.909  -5.473  0.00  0.00    -0.271 OA
BRANCH   3   6
HETATM    6  C           1     -21.802  -7.281  -3.298  0.00  0.00     0.186 C 
BRANCH   6   7
HETATM    7  C           1     -21.159  -8.563  -2.786  0.00  0.00     0.046 C 
BRANCH   7   8
HETATM    8  C           1     -21.873  -9.766  -3.389  0.00  0.00     0.116 C 
BRANCH   8   9
HETATM    9  C           1     -22.468 -10.604  -2.284  0.00  0.00     0.172 C 
HETATM   10  O           1     -22.702 -10.093  -1.168  0.00  0.00    -0.648 OA
HETATM   11  O           1     -22.727 -11.811  -2.485  0.00  0.00    -0.648 OA
ENDBRANCH   8   9
ENDBRANCH   7   8
ENDBRANCH   6   7
BRANCH   6  12
HETATM   12  C           1     -22.040  -6.341  -2.142  0.00  0.00     0.196 C 
HETATM   13  O           1     -21.601  -5.171  -2.187  0.00  0.00    -0.646 OA
HETATM   14  O           1     -22.674  -6.733  -1.138  0.00  0.00    -0.646 OA
ENDBRANCH   6  12
ENDBRANCH   3   6
ENDBRANCH   1   2
BRANCH   1  15
HETATM   15  N           1     -20.317  -6.237  -7.496  0.00  0.00    -0.066 N 
HETATM   16  H           1     -20.506  -7.221  -7.201  0.00  0.00     0.275 HD
HETATM   17  H           1     -19.329  -6.156  -7.829  0.00  0.00     0.275 HD
HETATM   18  H           1     -20.967  -5.974  -8.270  0.00  0.00     0.275 HD
ENDBRANCH   1  15
BRANCH   1  19
HETATM   19  C           1     -21.157  -4.018  -6.818  0.00  0.00     0.081 C 
BRANCH  19  20
HETATM   20  C           1     -21.408  -4.108  -8.291  0.00  0.00    -0.056 A 
HETATM   21  C           1     -20.352  -3.960  -9.189  0.00  0.00     0.010 A 
HETATM   22  C           1     -20.586  -4.044 -10.563  0.00  0.00     0.037 A 
HETATM   23  C           1     -21.878  -4.276 -11.036  0.00  0.00     0.065 A 
HETATM   24  C           1     -22.934  -4.423 -10.138  0.00  0.00     0.037 A 
HETATM   25  C           1     -22.700  -4.339  -8.765  0.00  0.00     0.010 A 
BRANCH  23  26
HETATM   26  O           1     -22.105  -4.357 -12.370  0.00  0.00    -0.361 OA
HETATM   27  H           1     -21.813  -5.233 -12.671  0.00  0.00     0.217 HD
ENDBRANCH  23  26
ENDBRANCH  19  20
ENDBRANCH   1  19
TORSDOF 10
ENDMDL
MODEL 8
REMARK VINA RESULT:      -6.1      2.410      3.310
REMARK  10 active torsions:
REMARK  status: ('A' for Active; 'I' for Inactive)
REMARK    1  A    between atoms: C_1  and  O_20 
REMARK    2  A    between atoms: C_3  and  C_9 
REMARK       I    between atoms: C_4  and  N_15 
REMARK    3  A    between atoms: C_4  and  C_22 
REMARK    4  A    between atoms: C_9  and  C_10 
REMARK    5  A    between atoms: C_10  and  C_18 
REMARK    6  A    between atoms: N_15  and  C_18 
REMARK    7  A    between atoms: C_18  and  C_23 
REMARK    8  A    between atoms: N_19  and  C_22 
REMARK    9  A    between atoms: C_22  and  C_26 
REMARK   10  A    between atoms: C_25  and  C_26 
ROOT
HETATM    1  C           1     -21.308  -6.248  -5.677  0.00  0.00     0.278 C 
ENDROOT
BRANCH   1   2
HETATM    2  C           1     -20.261  -7.332  -5.587  0.00  0.00     0.249 C 
HETATM    3  N           1     -20.303  -8.241  -4.564  0.00  0.00    -0.345 N 
HETATM    4  H           1     -21.036  -8.187  -3.869  0.00  0.00     0.163 HD
HETATM    5  O           1     -19.386  -7.396  -6.417  0.00  0.00    -0.271 OA
BRANCH   3   6
HETATM    6  C           1     -19.297  -9.282  -4.479  0.00  0.00     0.186 C 
BRANCH   6   7
HETATM    7  C           1     -18.825  -9.415  -3.037  0.00  0.00     0.046 C 
BRANCH   7   8
HETATM    8  C           1     -17.303  -9.427  -3.000  0.00  0.00     0.116 C 
BRANCH   8   9
HETATM    9  C           1     -16.826 -10.660  -2.271  0.00  0.00     0.172 C 
HETATM   10  O           1     -15.647 -10.729  -1.866  0.00  0.00    -0.648 OA
HETATM   11  O           1     -17.613 -11.611  -2.074  0.00  0.00    -0.648 OA
ENDBRANCH   8   9
ENDBRANCH   7   8
ENDBRANCH   6   7
BRANCH   6  12
HETATM   12  C           1     -19.892 -10.592  -4.936  0.00  0.00     0.196 C 
HETATM   13  O           1     -20.048 -10.815  -6.156  0.00  0.00    -0.646 OA
HETATM   14  O           1     -20.230 -11.452  -4.094  0.00  0.00    -0.646 OA
ENDBRANCH   6  12
ENDBRANCH   3   6
ENDBRANCH   1   2
BRANCH   1  15
HETATM   15  N           1     -21.998  -6.110  -4.352  0.00  0.00    -0.066 N 
HETATM   16  H           1     -21.560  -6.761  -3.662  0.00  0.00     0.275 HD
HETATM   17  H           1     -23.010  -6.346  -4.460  0.00  0.00     0.275 HD
HETATM   18  H           1     -21.905  -5.127  -4.011  0.00  0.00     0.275 HD
ENDBRANCH   1  15
BRANCH   1  19
HETATM   19  C           1     -20.642  -4.927  -6.041  0.00  0.00     0.081 C 
BRANCH  19  20
HETATM   20  C           1     -21.074  -4.513  -7.414  0.00  0.00    -0.056 A 
HETATM   21  C           1     -22.407  -4.184  -7.655  0.00  0.00     0.010 A 
HETATM   22  C           1     -22.809  -3.799  -8.935  0.00  0.00     0.037 A 
HETATM   23  C           1     -21.878  -3.742  -9.971  0.00  0.00     0.065 A 
HETATM   24  C           1     -20.545  -4.072  -9.729  0.00  0.00     0.037 A 
HETATM   25  C           1     -20.142  -4.458  -8.450  0.00  0.00     0.010 A 
BRANCH  23  26
HETATM   26  O           1     -22.268  -3.368 -11.214  0.00  0.00    -0.361 OA
HETATM   27  H           1     -21.505  -3.459 -11.808  0.00  0.00     0.217 HD
ENDBRANCH  23  26
ENDBRANCH  19  20
ENDBRANCH   1  19
TORSDOF 10
ENDMDL
MODEL 9
REMARK VINA RESULT:      -6.1      2.271      3.887
REMARK  10 active torsions:
REMARK  status: ('A' for Active; 'I' for Inactive)
REMARK    1  A    between atoms: C_1  and  O_20 
REMARK    2  A    between atoms: C_3  and  C_9 
REMARK       I    between atoms: C_4  and  N_15 
REMARK    3  A    between atoms: C_4  and  C_22 
REMARK    4  A    between atoms: C_9  and  C_10 
REMARK    5  A    between atoms: C_10  and  C_18 
REMARK    6  A    between atoms: N_15  and  C_18 
REMARK    7  A    between atoms: C_18  and  C_23 
REMARK    8  A    between atoms: N_19  and  C_22 
REMARK    9  A    between atoms: C_22  and  C_26 
REMARK   10  A    between atoms: C_25  and  C_26 
ROOT
HETATM    1  C           1     -21.526  -6.254  -4.908  0.00  0.00     0.278 C 
ENDROOT
BRANCH   1   2
HETATM    2  C           1     -20.978  -7.647  -5.097  0.00  0.00     0.249 C 
HETATM    3  N           1     -20.216  -8.222  -4.115  0.00  0.00    -0.345 N 
HETATM    4  H           1     -20.021  -7.712  -3.262  0.00  0.00     0.163 HD
HETATM    5  O           1     -21.210  -8.255  -6.114  0.00  0.00    -0.271 OA
BRANCH   3   6
HETATM    6  C           1     -19.690  -9.561  -4.296  0.00  0.00     0.186 C 
BRANCH   6   7
HETATM    7  C           1     -18.176  -9.496  -4.441  0.00  0.00     0.046 C 
BRANCH   7   8
HETATM    8  C           1     -17.797  -9.684  -5.904  0.00  0.00     0.116 C 
BRANCH   8   9
HETATM    9  C           1     -18.107 -11.100  -6.327  0.00  0.00     0.172 C 
HETATM   10  O           1     -17.599 -12.061  -5.711  0.00  0.00    -0.648 OA
HETATM   11  O           1     -18.872 -11.310  -7.293  0.00  0.00    -0.648 OA
ENDBRANCH   8   9
ENDBRANCH   7   8
ENDBRANCH   6   7
BRANCH   6  12
HETATM   12  C           1     -20.045 -10.405  -3.096  0.00  0.00     0.196 C 
HETATM   13  O           1     -19.660 -11.593  -3.033  0.00  0.00    -0.646 OA
HETATM   14  O           1     -20.724  -9.918  -2.167  0.00  0.00    -0.646 OA
ENDBRANCH   6  12
ENDBRANCH   3   6
ENDBRANCH   1   2
BRANCH   1  15
HETATM   15  N           1     -21.793  -6.016  -3.452  0.00  0.00    -0.066 N 
HETATM   16  H           1     -20.894  -6.060  -2.921  0.00  0.00     0.275 HD
HETATM   17  H           1     -22.447  -6.748  -3.093  0.00  0.00     0.275 HD
HETATM   18  H           1     -22.225  -5.073  -3.326  0.00  0.00     0.275 HD
ENDBRANCH   1  15
BRANCH   1  19
HETATM   19  C           1     -20.510  -5.236  -5.410  0.00  0.00     0.081 C 
BRANCH  19  20
HETATM   20  C           1     -20.890  -4.789  -6.787  0.00  0.00    -0.056 A 
HETATM   21  C           1     -22.229  -4.555  -7.099  0.00  0.00     0.010 A 
HETATM   22  C           1     -22.584  -4.138  -8.383  0.00  0.00     0.037 A 
HETATM   23  C           1     -21.598  -3.955  -9.354  0.00  0.00     0.065 A 
HETATM   24  C           1     -20.260  -4.190  -9.041  0.00  0.00     0.037 A 
HETATM   25  C           1     -19.905  -4.606  -7.758  0.00  0.00     0.010 A 
BRANCH  23  26
HETATM   26  O           1     -21.943  -3.551 -10.600  0.00  0.00    -0.361 OA
HETATM   27  H           1     -22.770  -4.000 -10.843  0.00  0.00     0.217 HD
ENDBRANCH  23  26
ENDBRANCH  19  20
ENDBRANCH   1  19
TORSDOF 10
ENDMDL
