MODEL 1
REMARK VINA RESULT:      -6.4      0.000      0.000
REMARK  7 active torsions:
REMARK  status: ('A' for Active; 'I' for Inactive)
REMARK    1  A    between atoms: C_1  and  C_7 
REMARK    2  A    between atoms: C_1  and  C_21 
REMARK    3  A    between atoms: C_1  and  N_6 
REMARK    4  A    between atoms: N_3  and  C_10 
REMARK       I    between atoms: N_3  and  C_7 
REMARK    5  A    between atoms: C_10  and  C_16 
REMARK       I    between atoms: N_18  and  C_19 
REMARK    6  A    between atoms: C_19  and  C_20 
REMARK    7  A    between atoms: C_20  and  C_21 
ROOT
HETATM    1  C           1     -29.687  -6.697 -17.887  0.00  0.00     0.275 C 
ENDROOT
BRANCH   1   2
HETATM    2  C           1     -28.553  -6.331 -18.812  0.00  0.00     0.249 C 
HETATM    3  N           1     -27.766  -7.310 -19.353  0.00  0.00    -0.345 N 
HETATM    4  H           1     -27.945  -8.282 -19.133  0.00  0.00     0.163 HD
HETATM    5  O           1     -28.339  -5.170 -19.074  0.00  0.00    -0.271 OA
BRANCH   3   6
HETATM    6  C           1     -26.676  -6.957 -20.241  0.00  0.00     0.181 C 
HETATM    7  C           1     -25.413  -6.714 -19.424  0.00  0.00     0.043 C 
BRANCH   6   8
HETATM    8  C           1     -26.436  -8.085 -21.215  0.00  0.00     0.196 C 
HETATM    9  O           1     -27.375  -8.848 -21.531  0.00  0.00    -0.646 OA
HETATM   10  O           1     -25.299  -8.257 -21.706  0.00  0.00    -0.646 OA
ENDBRANCH   6   8
ENDBRANCH   3   6
ENDBRANCH   1   2
BRANCH   1  11
HETATM   11  C           1     -29.854  -5.613 -16.831  0.00  0.00     0.052 C 
BRANCH  11  12
HETATM   12  C           1     -31.263  -5.040 -16.911  0.00  0.00     0.105 C 
BRANCH  12  13
HETATM   13  C           1     -31.208  -3.645 -17.485  0.00  0.00     0.215 C 
HETATM   14  O           1     -32.231  -3.047 -17.718  0.00  0.00    -0.274 OA
HETATM   15  N           1     -29.998  -3.059 -17.741  0.00  0.00    -0.370 N 
HETATM   16  H           1     -29.141  -3.560 -17.545  0.00  0.00     0.159 HD
HETATM   17  H           1     -29.961  -2.123 -18.126  0.00  0.00     0.159 HD
ENDBRANCH  12  13
ENDBRANCH  11  12
ENDBRANCH   1  11
BRANCH   1  18
HETATM   18  N           1     -29.383  -8.005 -17.218  0.00  0.00    -0.066 N 
HETATM   19  H           1     -28.975  -7.827 -16.273  0.00  0.00     0.275 HD
HETATM   20  H           1     -30.265  -8.557 -17.117  0.00  0.00     0.275 HD
HETATM   21  H           1     -28.699  -8.541 -17.797  0.00  0.00     0.275 HD
ENDBRANCH   1  18
TORSDOF 7
ENDMDL
MODEL 2
REMARK VINA RESULT:      -6.4      9.149     10.516
REMARK  7 active torsions:
REMARK  status: ('A' for Active; 'I' for Inactive)
REMARK    1  A    between atoms: C_1  and  C_7 
REMARK    2  A    between atoms: C_1  and  C_21 
REMARK    3  A    between atoms: C_1  and  N_6 
REMARK    4  A    between atoms: N_3  and  C_10 
REMARK       I    between atoms: N_3  and  C_7 
REMARK    5  A    between atoms: C_10  and  C_16 
REMARK       I    between atoms: N_18  and  C_19 
REMARK    6  A    between atoms: C_19  and  C_20 
REMARK    7  A    between atoms: C_20  and  C_21 
ROOT
HETATM    1  C           1     -34.169  -1.785 -11.735  0.00  0.00     0.275 C 
ENDROOT
BRANCH   1   2
HETATM    2  C           1     -35.207  -1.316 -12.725  0.00  0.00     0.249 C 
HETATM    3  N           1     -34.819  -0.717 -13.892  0.00  0.00    -0.345 N 
HETATM    4  H           1     -33.836  -0.589 -14.092  0.00  0.00     0.163 HD
HETATM    5  O           1     -36.382  -1.469 -12.485  0.00  0.00    -0.271 OA
BRANCH   3   6
HETATM    6  C           1     -35.817  -0.265 -14.842  0.00  0.00     0.181 C 
HETATM    7  C           1     -35.576   1.202 -15.172  0.00  0.00     0.043 C 
BRANCH   6   8
HETATM    8  C           1     -35.717  -1.088 -16.104  0.00  0.00     0.196 C 
HETATM    9  O           1     -36.342  -0.738 -17.129  0.00  0.00    -0.646 OA
HETATM   10  O           1     -35.009  -2.118 -16.125  0.00  0.00    -0.646 OA
ENDBRANCH   6   8
ENDBRANCH   3   6
ENDBRANCH   1   2
BRANCH   1  11
HETATM   11  C           1     -33.822  -3.242 -12.014  0.00  0.00     0.052 C 
BRANCH  11  12
HETATM   12  C           1     -33.861  -4.031 -10.711  0.00  0.00     0.105 C 
BRANCH  12  13
HETATM   13  C           1     -34.307  -5.445 -10.992  0.00  0.00     0.215 C 
HETATM   14  O           1     -34.363  -6.250 -10.093  0.00  0.00    -0.274 OA
HETATM   15  N           1     -34.646  -5.814 -12.266  0.00  0.00    -0.370 N 
HETATM   16  H           1     -34.598  -5.140 -13.018  0.00  0.00     0.159 HD
HETATM   17  H           1     -34.945  -6.764 -12.454  0.00  0.00     0.159 HD
ENDBRANCH  12  13
ENDBRANCH  11  12
ENDBRANCH   1  11
BRANCH   1  18
HETATM   18  N           1     -34.713  -1.658 -10.343  0.00  0.00    -0.066 N 
HETATM   19  H           1     -34.011  -1.179  -9.736  0.00  0.00     0.275 HD
HETATM   20  H           1     -35.595  -1.098 -10.364  0.00  0.00     0.275 HD
HETATM   21  H           1     -34.913  -2.610  -9.960  0.00  0.00     0.275 HD
ENDBRANCH   1  18
TORSDOF 7
ENDMDL
MODEL 3
REMARK VINA RESULT:      -6.0     13.086     14.126
REMARK  7 active torsions:
REMARK  status: ('A' for Active; 'I' for Inactive)
REMARK    1  A    between atoms: C_1  and  C_7 
REMARK    2  A    between atoms: C_1  and  C_21 
REMARK    3  A    between atoms: C_1  and  N_6 
REMARK    4  A    between atoms: N_3  and  C_10 
REMARK       I    between atoms: N_3  and  C_7 
REMARK    5  A    between atoms: C_10  and  C_16 
REMARK       I    between atoms: N_18  and  C_19 
REMARK    6  A    between atoms: C_19  and  C_20 
REMARK    7  A    between atoms: C_20  and  C_21 
ROOT
HETATM    1  C           1     -21.240  -5.878  -6.908  0.00  0.00     0.275 C 
ENDROOT
BRANCH   1   2
HETATM    2  C           1     -21.668  -4.666  -7.699  0.00  0.00     0.249 C 
HETATM    3  N           1     -22.211  -4.819  -8.946  0.00  0.00    -0.345 N 
HETATM    4  H           1     -22.327  -5.745  -9.337  0.00  0.00     0.163 HD
HETATM    5  O           1     -21.531  -3.561  -7.231  0.00  0.00    -0.271 OA
BRANCH   3   6
HETATM    6  C           1     -22.622  -3.655  -9.706  0.00  0.00     0.181 C 
HETATM    7  C           1     -21.711  -3.491 -10.915  0.00  0.00     0.043 C 
BRANCH   6   8
HETATM    8  C           1     -24.047  -3.835 -10.170  0.00  0.00     0.196 C 
HETATM    9  O           1     -24.636  -4.920  -9.971  0.00  0.00    -0.646 OA
HETATM   10  O           1     -24.638  -2.901 -10.752  0.00  0.00    -0.646 OA
ENDBRANCH   6   8
ENDBRANCH   3   6
ENDBRANCH   1   2
BRANCH   1  11
HETATM   11  C           1     -21.239  -5.541  -5.422  0.00  0.00     0.052 C 
BRANCH  11  12
HETATM   12  C           1     -22.135  -6.524  -4.679  0.00  0.00     0.105 C 
BRANCH  12  13
HETATM   13  C           1     -21.712  -6.596  -3.232  0.00  0.00     0.215 C 
HETATM   14  O           1     -20.825  -7.346  -2.899  0.00  0.00    -0.274 OA
HETATM   15  N           1     -22.334  -5.812  -2.299  0.00  0.00    -0.370 N 
HETATM   16  H           1     -23.077  -5.185  -2.578  0.00  0.00     0.159 HD
HETATM   17  H           1     -22.050  -5.861  -1.327  0.00  0.00     0.159 HD
ENDBRANCH  12  13
ENDBRANCH  11  12
ENDBRANCH   1  11
BRANCH   1  18
HETATM   18  N           1     -19.860  -6.287  -7.329  0.00  0.00    -0.066 N 
HETATM   19  H           1     -19.184  -5.526  -7.096  0.00  0.00     0.275 HD
HETATM   20  H           1     -19.588  -7.161  -6.824  0.00  0.00     0.275 HD
HETATM   21  H           1     -19.848  -6.461  -8.359  0.00  0.00     0.275 HD
ENDBRANCH   1  18
TORSDOF 7
ENDMDL
MODEL 4
REMARK VINA RESULT:      -5.7     14.382     15.454
REMARK  7 active torsions:
REMARK  status: ('A' for Active; 'I' for Inactive)
REMARK    1  A    between atoms: C_1  and  C_7 
REMARK    2  A    between atoms: C_1  and  C_21 
REMARK    3  A    between atoms: C_1  and  N_6 
REMARK    4  A    between atoms: N_3  and  C_10 
REMARK       I    between atoms: N_3  and  C_7 
REMARK    5  A    between atoms: C_10  and  C_16 
REMARK       I    between atoms: N_18  and  C_19 
REMARK    6  A    between atoms: C_19  and  C_20 
REMARK    7  A    between atoms: C_20  and  C_21 
ROOT
HETATM    1  C           1     -20.505  -4.970  -6.626  0.00  0.00     0.275 C 
ENDROOT
BRANCH   1   2
HETATM    2  C           1     -21.416  -5.748  -5.709  0.00  0.00     0.249 C 
HETATM    3  N           1     -20.891  -6.664  -4.838  0.00  0.00    -0.345 N 
HETATM    4  H           1     -19.892  -6.819  -4.809  0.00  0.00     0.163 HD
HETATM    5  O           1     -22.609  -5.562  -5.744  0.00  0.00    -0.271 OA
BRANCH   3   6
HETATM    6  C           1     -21.767  -7.412  -3.957  0.00  0.00     0.181 C 
HETATM    7  C           1     -21.369  -8.882  -3.975  0.00  0.00     0.043 C 
BRANCH   6   8
HETATM    8  C           1     -21.645  -6.873  -2.552  0.00  0.00     0.196 C 
HETATM    9  O           1     -22.309  -5.872  -2.208  0.00  0.00    -0.646 OA
HETATM   10  O           1     -20.880  -7.428  -1.734  0.00  0.00    -0.646 OA
ENDBRANCH   6   8
ENDBRANCH   3   6
ENDBRANCH   1   2
BRANCH   1  11
HETATM   11  C           1     -21.254  -3.770  -7.191  0.00  0.00     0.052 C 
BRANCH  11  12
HETATM   12  C           1     -21.471  -3.965  -8.686  0.00  0.00     0.105 C 
BRANCH  12  13
HETATM   13  C           1     -22.940  -3.831  -9.003  0.00  0.00     0.215 C 
HETATM   14  O           1     -23.292  -3.519 -10.117  0.00  0.00    -0.274 OA
HETATM   15  N           1     -23.874  -4.061  -8.029  0.00  0.00    -0.370 N 
HETATM   16  H           1     -23.580  -4.322  -7.097  0.00  0.00     0.159 HD
HETATM   17  H           1     -24.860  -3.971  -8.243  0.00  0.00     0.159 HD
ENDBRANCH  12  13
ENDBRANCH  11  12
ENDBRANCH   1  11
BRANCH   1  18
HETATM   18  N           1     -20.056  -5.853  -7.752  0.00  0.00    -0.066 N 
HETATM   19  H           1     -20.632  -5.658  -8.601  0.00  0.00     0.275 HD
HETATM   20  H           1     -19.050  -5.663  -7.963  0.00  0.00     0.275 HD
HETATM   21  H           1     -20.171  -6.854  -7.475  0.00  0.00     0.275 HD
ENDBRANCH   1  18
TORSDOF 7
ENDMDL
MODEL 5
REMARK VINA RESULT:      -5.7      2.708      6.146
REMARK  7 active torsions:
REMARK  status: ('A' for Active; 'I' for Inactive)
REMARK    1  A    between atoms: C_1  and  C_7 
REMARK    2  A    between atoms: C_1  and  C_21 
REMARK    3  A    between atoms: C_1  and  N_6 
REMARK    4  A    between atoms: N_3  and  C_10 
REMARK       I    between atoms: N_3  and  C_7 
REMARK    5  A    between atoms: C_10  and  C_16 
REMARK       I    between atoms: N_18  and  C_19 
REMARK    6  A    between atoms: C_19  and  C_20 
REMARK    7  A    between atoms: C_20  and  C_21 
ROOT
HETATM    1  C           1     -24.868  -6.750 -17.228  0.00  0.00     0.275 C 
ENDROOT
BRANCH   1   2
HETATM    2  C           1     -26.120  -6.945 -16.409  0.00  0.00     0.249 C 
HETATM    3  N           1     -27.334  -6.564 -16.911  0.00  0.00    -0.345 N 
HETATM    4  H           1     -27.393  -6.151 -17.833  0.00  0.00     0.163 HD
HETATM    5  O           1     -26.050  -7.439 -15.308  0.00  0.00    -0.271 OA
BRANCH   3   6
HETATM    6  C           1     -28.537  -6.752 -16.124  0.00  0.00     0.181 C 
HETATM    7  C           1     -28.865  -5.463 -15.383  0.00  0.00     0.043 C 
BRANCH   6   8
HETATM    8  C           1     -29.684  -7.114 -17.037  0.00  0.00     0.196 C 
HETATM    9  O           1     -29.678  -8.207 -17.644  0.00  0.00    -0.646 OA
HETATM   10  O           1     -30.639  -6.321 -17.186  0.00  0.00    -0.646 OA
ENDBRANCH   6   8
ENDBRANCH   3   6
ENDBRANCH   1   2
BRANCH   1  11
HETATM   11  C           1     -25.232  -6.675 -18.705  0.00  0.00     0.052 C 
BRANCH  11  12
HETATM   12  C           1     -24.179  -7.409 -19.525  0.00  0.00     0.105 C 
BRANCH  12  13
HETATM   13  C           1     -24.783  -7.863 -20.830  0.00  0.00     0.215 C 
HETATM   14  O           1     -24.097  -7.929 -21.823  0.00  0.00    -0.274 OA
HETATM   15  N           1     -26.109  -8.200 -20.890  0.00  0.00    -0.370 N 
HETATM   16  H           1     -26.683  -8.145 -20.059  0.00  0.00     0.159 HD
HETATM   17  H           1     -26.514  -8.505 -21.767  0.00  0.00     0.159 HD
ENDBRANCH  12  13
ENDBRANCH  11  12
ENDBRANCH   1  11
BRANCH   1  18
HETATM   18  N           1     -23.937  -7.903 -17.000  0.00  0.00    -0.066 N 
HETATM   19  H           1     -23.331  -7.704 -16.173  0.00  0.00     0.275 HD
HETATM   20  H           1     -24.493  -8.769 -16.823  0.00  0.00     0.275 HD
HETATM   21  H           1     -23.339  -8.039 -17.846  0.00  0.00     0.275 HD
ENDBRANCH   1  18
TORSDOF 7
ENDMDL
MODEL 6
REMARK VINA RESULT:      -5.6     12.683     13.511
REMARK  7 active torsions:
REMARK  status: ('A' for Active; 'I' for Inactive)
REMARK    1  A    between atoms: C_1  and  C_7 
REMARK    2  A    between atoms: C_1  and  C_21 
REMARK    3  A    between atoms: C_1  and  N_6 
REMARK    4  A    between atoms: N_3  and  C_10 
REMARK       I    between atoms: N_3  and  C_7 
REMARK    5  A    between atoms: C_10  and  C_16 
REMARK       I    between atoms: N_18  and  C_19 
REMARK    6  A    between atoms: C_19  and  C_20 
REMARK    7  A    between atoms: C_20  and  C_21 
ROOT
HETATM    1  C           1     -21.067  -4.165  -9.454  0.00  0.00     0.275 C 
ENDROOT
BRANCH   1   2
HETATM    2  C           1     -20.272  -4.580  -8.242  0.00  0.00     0.249 C 
HETATM    3  N           1     -20.828  -5.412  -7.308  0.00  0.00    -0.345 N 
HETATM    4  H           1     -21.774  -5.749  -7.432  0.00  0.00     0.163 HD
HETATM    5  O           1     -19.142  -4.177  -8.094  0.00  0.00    -0.271 OA
BRANCH   3   6
HETATM    6  C           1     -20.063  -5.810  -6.143  0.00  0.00     0.181 C 
HETATM    7  C           1     -20.264  -4.790  -5.031  0.00  0.00     0.043 C 
BRANCH   6   8
HETATM    8  C           1     -20.532  -7.166  -5.674  0.00  0.00     0.196 C 
HETATM    9  O           1     -21.334  -7.825  -6.371  0.00  0.00    -0.646 OA
HETATM   10  O           1     -20.119  -7.630  -4.589  0.00  0.00    -0.646 OA
ENDBRANCH   6   8
ENDBRANCH   3   6
ENDBRANCH   1   2
BRANCH   1  11
HETATM   11  C           1     -22.415  -4.874  -9.446  0.00  0.00     0.052 C 
BRANCH  11  12
HETATM   12  C           1     -23.231  -4.427 -10.653  0.00  0.00     0.105 C 
BRANCH  12  13
HETATM   13  C           1     -24.405  -3.600 -10.189  0.00  0.00     0.215 C 
HETATM   14  O           1     -25.190  -3.160 -10.995  0.00  0.00    -0.274 OA
HETATM   15  N           1     -24.579  -3.349  -8.855  0.00  0.00    -0.370 N 
HETATM   16  H           1     -23.922  -3.717  -8.180  0.00  0.00     0.159 HD
HETATM   17  H           1     -25.367  -2.794  -8.543  0.00  0.00     0.159 HD
ENDBRANCH  12  13
ENDBRANCH  11  12
ENDBRANCH   1  11
BRANCH   1  18
HETATM   18  N           1     -20.315  -4.536 -10.697  0.00  0.00    -0.066 N 
HETATM   19  H           1     -20.940  -5.076 -11.336  0.00  0.00     0.275 HD
HETATM   20  H           1     -19.991  -3.667 -11.180  0.00  0.00     0.275 HD
HETATM   21  H           1     -19.489  -5.122 -10.441  0.00  0.00     0.275 HD
ENDBRANCH   1  18
TORSDOF 7
ENDMDL
MODEL 7
REMARK VINA RESULT:      -5.5      9.169     10.581
REMARK  7 active torsions:
REMARK  status: ('A' for Active; 'I' for Inactive)
REMARK    1  A    between atoms: C_1  and  C_7 
REMARK    2  A    between atoms: C_1  and  C_21 
REMARK    3  A    between atoms: C_1  and  N_6 
REMARK    4  A    between atoms: N_3  and  C_10 
REMARK       I    between atoms: N_3  and  C_7 
REMARK    5  A    between atoms: C_10  and  C_16 
REMARK       I    between atoms: N_18  and  C_19 
REMARK    6  A    between atoms: C_19  and  C_20 
REMARK    7  A    between atoms: C_20  and  C_21 
ROOT
HETATM    1  C           1     -34.297  -3.640 -13.001  0.00  0.00     0.275 C 
ENDROOT
BRANCH   1   2
HETATM    2  C           1     -35.019  -2.316 -12.949  0.00  0.00     0.249 C 
HETATM    3  N           1     -34.925  -1.442 -13.998  0.00  0.00    -0.345 N 
HETATM    4  H           1     -34.371  -1.684 -14.809  0.00  0.00     0.163 HD
HETATM    5  O           1     -35.681  -2.028 -11.980  0.00  0.00    -0.271 OA
BRANCH   3   6
HETATM    6  C           1     -35.619  -0.171 -13.947  0.00  0.00     0.181 C 
HETATM    7  C           1     -34.602   0.962 -13.922  0.00  0.00     0.043 C 
BRANCH   6   8
HETATM    8  C           1     -36.499  -0.030 -15.166  0.00  0.00     0.196 C 
HETATM    9  O           1     -37.436  -0.835 -15.356  0.00  0.00    -0.646 OA
HETATM   10  O           1     -36.291   0.891 -15.984  0.00  0.00    -0.646 OA
ENDBRANCH   6   8
ENDBRANCH   3   6
ENDBRANCH   1   2
BRANCH   1  11
HETATM   11  C           1     -33.169  -3.645 -11.978  0.00  0.00     0.052 C 
BRANCH  11  12
HETATM   12  C           1     -32.880  -5.077 -11.548  0.00  0.00     0.105 C 
BRANCH  12  13
HETATM   13  C           1     -34.084  -5.642 -10.836  0.00  0.00     0.215 C 
HETATM   14  O           1     -34.141  -6.823 -10.588  0.00  0.00    -0.274 OA
HETATM   15  N           1     -35.113  -4.815 -10.472  0.00  0.00    -0.370 N 
HETATM   16  H           1     -35.066  -3.826 -10.679  0.00  0.00     0.159 HD
HETATM   17  H           1     -35.921  -5.195  -9.994  0.00  0.00     0.159 HD
ENDBRANCH  12  13
ENDBRANCH  11  12
ENDBRANCH   1  11
BRANCH   1  18
HETATM   18  N           1     -33.728  -3.845 -14.373  0.00  0.00    -0.066 N 
HETATM   19  H           1     -34.486  -4.153 -15.023  0.00  0.00     0.275 HD
HETATM   20  H           1     -33.319  -2.947 -14.718  0.00  0.00     0.275 HD
HETATM   21  H           1     -32.983  -4.576 -14.335  0.00  0.00     0.275 HD
ENDBRANCH   1  18
TORSDOF 7
ENDMDL
MODEL 8
REMARK VINA RESULT:      -5.4     20.481     22.304
REMARK  7 active torsions:
REMARK  status: ('A' for Active; 'I' for Inactive)
REMARK    1  A    between atoms: C_1  and  C_7 
REMARK    2  A    between atoms: C_1  and  C_21 
REMARK    3  A    between atoms: C_1  and  N_6 
REMARK    4  A    between atoms: N_3  and  C_10 
REMARK       I    between atoms: N_3  and  C_7 
REMARK    5  A    between atoms: C_10  and  C_16 
REMARK       I    between atoms: N_18  and  C_19 
REMARK    6  A    between atoms: C_19  and  C_20 
REMARK    7  A    between atoms: C_20  and  C_21 
ROOT
HETATM    1  C           1     -12.933   5.284 -20.455  0.00  0.00     0.275 C 
ENDROOT
BRANCH   1   2
HETATM    2  C           1     -12.554   6.721 -20.712  0.00  0.00     0.249 C 
HETATM    3  N           1     -12.421   7.592 -19.665  0.00  0.00    -0.345 N 
HETATM    4  H           1     -12.577   7.272 -18.717  0.00  0.00     0.163 HD
HETATM    5  O           1     -12.367   7.104 -21.843  0.00  0.00    -0.271 OA
BRANCH   3   6
HETATM    6  C           1     -12.056   8.973 -19.911  0.00  0.00     0.181 C 
HETATM    7  C           1     -12.940   9.889 -19.074  0.00  0.00     0.043 C 
BRANCH   6   8
HETATM    8  C           1     -10.610   9.186 -19.535  0.00  0.00     0.196 C 
HETATM    9  O           1     -10.201   8.839 -18.406  0.00  0.00    -0.646 OA
HETATM   10  O           1      -9.822   9.709 -20.351  0.00  0.00    -0.646 OA
ENDBRANCH   6   8
ENDBRANCH   3   6
ENDBRANCH   1   2
BRANCH   1  11
HETATM   11  C           1     -11.932   4.656 -19.494  0.00  0.00     0.052 C 
BRANCH  11  12
HETATM   12  C           1     -10.577   4.537 -20.179  0.00  0.00     0.105 C 
BRANCH  12  13
HETATM   13  C           1      -9.616   5.527 -19.568  0.00  0.00     0.215 C 
HETATM   14  O           1      -8.888   6.179 -20.279  0.00  0.00    -0.274 OA
HETATM   15  N           1      -9.568   5.684 -18.209  0.00  0.00    -0.370 N 
HETATM   16  H           1     -10.177   5.138 -17.614  0.00  0.00     0.159 HD
HETATM   17  H           1      -8.922   6.349 -17.800  0.00  0.00     0.159 HD
ENDBRANCH  12  13
ENDBRANCH  11  12
ENDBRANCH   1  11
BRANCH   1  18
HETATM   18  N           1     -12.925   4.526 -21.750  0.00  0.00    -0.066 N 
HETATM   19  H           1     -13.881   4.148 -21.939  0.00  0.00     0.275 HD
HETATM   20  H           1     -12.645   5.168 -22.526  0.00  0.00     0.275 HD
HETATM   21  H           1     -12.244   3.737 -21.686  0.00  0.00     0.275 HD
ENDBRANCH   1  18
TORSDOF 7
ENDMDL
MODEL 9
REMARK VINA RESULT:      -5.0     20.563     22.411
REMARK  7 active torsions:
REMARK  status: ('A' for Active; 'I' for Inactive)
REMARK    1  A    between atoms: C_1  and  C_7 
REMARK    2  A    between atoms: C_1  and  C_21 
REMARK    3  A    between atoms: C_1  and  N_6 
REMARK    4  A    between atoms: N_3  and  C_10 
REMARK       I    between atoms: N_3  and  C_7 
REMARK    5  A    between atoms: C_10  and  C_16 
REMARK       I    between atoms: N_18  and  C_19 
REMARK    6  A    between atoms: C_19  and  C_20 
REMARK    7  A    between atoms: C_20  and  C_21 
ROOT
HETATM    1  C           1      -9.384   6.202 -20.622  0.00  0.00     0.275 C 
ENDROOT
BRANCH   1   2
HETATM    2  C           1      -9.880   7.627 -20.640  0.00  0.00     0.249 C 
HETATM    3  N           1     -11.215   7.887 -20.784  0.00  0.00    -0.345 N 
HETATM    4  H           1     -11.872   7.122 -20.879  0.00  0.00     0.163 HD
HETATM    5  O           1      -9.096   8.540 -20.526  0.00  0.00    -0.271 OA
BRANCH   3   6
HETATM    6  C           1     -11.691   9.256 -20.801  0.00  0.00     0.181 C 
HETATM    7  C           1     -12.587   9.467 -22.014  0.00  0.00     0.043 C 
BRANCH   6   8
HETATM    8  C           1     -12.475   9.531 -19.541  0.00  0.00     0.196 C 
HETATM    9  O           1     -12.025   9.168 -18.433  0.00  0.00    -0.646 OA
HETATM   10  O           1     -13.575  10.121 -19.605  0.00  0.00    -0.646 OA
ENDBRANCH   6   8
ENDBRANCH   3   6
ENDBRANCH   1   2
BRANCH   1  11
HETATM   11  C           1     -10.377   5.309 -21.354  0.00  0.00     0.052 C 
BRANCH  11  12
HETATM   12  C           1     -10.937   4.273 -20.387  0.00  0.00     0.105 C 
BRANCH  12  13
HETATM   13  C           1     -12.353   4.643 -20.018  0.00  0.00     0.215 C 
HETATM   14  O           1     -12.561   5.582 -19.287  0.00  0.00    -0.274 OA
HETATM   15  N           1     -13.400   3.912 -20.512  0.00  0.00    -0.370 N 
HETATM   16  H           1     -13.226   3.126 -21.124  0.00  0.00     0.159 HD
HETATM   17  H           1     -14.351   4.161 -20.264  0.00  0.00     0.159 HD
ENDBRANCH  12  13
ENDBRANCH  11  12
ENDBRANCH   1  11
BRANCH   1  18
HETATM   18  N           1      -9.246   5.738 -19.203  0.00  0.00    -0.066 N 
HETATM   19  H           1      -9.498   4.726 -19.140  0.00  0.00     0.275 HD
HETATM   20  H           1      -8.259   5.871 -18.888  0.00  0.00     0.275 HD
HETATM   21  H           1      -9.886   6.295 -18.592  0.00  0.00     0.275 HD
ENDBRANCH   1  18
TORSDOF 7
ENDMDL
