MODEL 1
REMARK VINA RESULT:      -5.2      0.000      0.000
REMARK  7 active torsions:
REMARK  status: ('A' for Active; 'I' for Inactive)
REMARK    1  A    between atoms: C_2  and  C_14 
REMARK    2  A    between atoms: C_2  and  S_3 
REMARK    3  A    between atoms: N_4  and  C_14 
REMARK    4  A    between atoms: C_7  and  C_12 
REMARK    5  A    between atoms: C_12  and  C_19 
REMARK    6  A    between atoms: C_12  and  N_16 
REMARK    7  A    between atoms: C_14  and  C_15 
REMARK       I    between atoms: C_15  and  N_16 
ROOT
HETATM    1  H           1     -34.792  -0.205 -12.040  0.00  0.00     0.163 HD
HETATM    2  O           1     -37.597  -0.808 -13.307  0.00  0.00    -0.271 OA
HETATM    3  C           1     -36.491  -0.332 -13.214  0.00  0.00     0.249 C 
HETATM    4  N           1     -35.717  -0.605 -12.118  0.00  0.00    -0.344 N 
ENDROOT
BRANCH   3   5
HETATM    5  C           1     -35.963   0.566 -14.306  0.00  0.00     0.283 C 
BRANCH   5   6
HETATM    6  C           1     -36.714   0.288 -15.601  0.00  0.00     0.113 C 
BRANCH   6   7
HETATM    7  S           1     -35.843  -0.996 -16.542  0.00  0.00    -0.180 SA
HETATM    8  H           1     -34.935  -0.173 -17.095  0.00  0.00     0.101 HD
ENDBRANCH   6   7
ENDBRANCH   5   6
BRANCH   5   9
HETATM    9  N           1     -34.501   0.298 -14.508  0.00  0.00    -0.066 N 
HETATM   10  H           1     -34.228   0.570 -15.480  0.00  0.00     0.275 HD
HETATM   11  H           1     -33.946   0.858 -13.822  0.00  0.00     0.275 HD
HETATM   12  H           1     -34.310  -0.719 -14.364  0.00  0.00     0.275 HD
ENDBRANCH   5   9
ENDBRANCH   3   5
BRANCH   4  13
HETATM   13  C           1     -36.225  -1.467 -11.069  0.00  0.00     0.189 C 
BRANCH  13  14
HETATM   14  C           1     -35.113  -2.389 -10.587  0.00  0.00     0.010 C 
HETATM   15  C           1     -35.458  -3.829 -10.942  0.00  0.00     0.012 C 
HETATM   16  C           1     -33.804  -1.999 -11.262  0.00  0.00     0.012 C 
ENDBRANCH  13  14
BRANCH  13  17
HETATM   17  C           1     -36.714  -0.624  -9.917  0.00  0.00     0.197 C 
HETATM   18  O           1     -37.902  -0.238  -9.885  0.00  0.00    -0.646 OA
HETATM   19  O           1     -35.930  -0.310  -8.995  0.00  0.00    -0.646 OA
ENDBRANCH  13  17
ENDBRANCH   4  13
TORSDOF 7
ENDMDL
MODEL 2
REMARK VINA RESULT:      -5.2      1.540      1.994
REMARK  7 active torsions:
REMARK  status: ('A' for Active; 'I' for Inactive)
REMARK    1  A    between atoms: C_2  and  C_14 
REMARK    2  A    between atoms: C_2  and  S_3 
REMARK    3  A    between atoms: N_4  and  C_14 
REMARK    4  A    between atoms: C_7  and  C_12 
REMARK    5  A    between atoms: C_12  and  C_19 
REMARK    6  A    between atoms: C_12  and  N_16 
REMARK    7  A    between atoms: C_14  and  C_15 
REMARK       I    between atoms: C_15  and  N_16 
ROOT
HETATM    1  H           1     -33.923  -1.176 -13.425  0.00  0.00     0.163 HD
HETATM    2  O           1     -37.006  -0.972 -12.884  0.00  0.00    -0.271 OA
HETATM    3  C           1     -35.943  -0.727 -13.402  0.00  0.00     0.249 C 
HETATM    4  N           1     -34.813  -1.382 -12.991  0.00  0.00    -0.344 N 
ENDROOT
BRANCH   3   5
HETATM    5  C           1     -35.859   0.304 -14.501  0.00  0.00     0.283 C 
BRANCH   5   6
HETATM    6  C           1     -36.621  -0.193 -15.723  0.00  0.00     0.113 C 
BRANCH   6   7
HETATM    7  S           1     -35.574  -1.340 -16.663  0.00  0.00    -0.180 SA
HETATM    8  H           1     -34.895  -0.392 -17.334  0.00  0.00     0.101 HD
ENDBRANCH   6   7
ENDBRANCH   5   6
BRANCH   5   9
HETATM    9  N           1     -34.422   0.530 -14.866  0.00  0.00    -0.066 N 
HETATM   10  H           1     -34.340   1.400 -15.438  0.00  0.00     0.275 HD
HETATM   11  H           1     -33.854   0.631 -13.995  0.00  0.00     0.275 HD
HETATM   12  H           1     -34.071  -0.285 -15.418  0.00  0.00     0.275 HD
ENDBRANCH   5   9
ENDBRANCH   3   5
BRANCH   4  13
HETATM   13  C           1     -34.894  -2.372 -11.935  0.00  0.00     0.189 C 
BRANCH  13  14
HETATM   14  C           1     -33.901  -3.493 -12.214  0.00  0.00     0.010 C 
HETATM   15  C           1     -34.162  -4.651 -11.259  0.00  0.00     0.012 C 
HETATM   16  C           1     -34.069  -3.972 -13.651  0.00  0.00     0.012 C 
ENDBRANCH  13  14
BRANCH  13  17
HETATM   17  C           1     -34.562  -1.725 -10.613  0.00  0.00     0.197 C 
HETATM   18  O           1     -33.374  -1.653 -10.232  0.00  0.00    -0.646 OA
HETATM   19  O           1     -35.477  -1.259  -9.899  0.00  0.00    -0.646 OA
ENDBRANCH  13  17
ENDBRANCH   4  13
TORSDOF 7
ENDMDL
MODEL 3
REMARK VINA RESULT:      -4.5     11.647     12.972
REMARK  7 active torsions:
REMARK  status: ('A' for Active; 'I' for Inactive)
REMARK    1  A    between atoms: C_2  and  C_14 
REMARK    2  A    between atoms: C_2  and  S_3 
REMARK    3  A    between atoms: N_4  and  C_14 
REMARK    4  A    between atoms: C_7  and  C_12 
REMARK    5  A    between atoms: C_12  and  C_19 
REMARK    6  A    between atoms: C_12  and  N_16 
REMARK    7  A    between atoms: C_14  and  C_15 
REMARK       I    between atoms: C_15  and  N_16 
ROOT
HETATM    1  H           1     -26.748  -7.335 -18.200  0.00  0.00     0.163 HD
HETATM    2  O           1     -28.666  -5.129 -19.338  0.00  0.00    -0.271 OA
HETATM    3  C           1     -28.096  -5.796 -18.507  0.00  0.00     0.249 C 
HETATM    4  N           1     -27.224  -6.776 -18.896  0.00  0.00    -0.344 N 
ENDROOT
BRANCH   3   5
HETATM    5  C           1     -28.348  -5.548 -17.040  0.00  0.00     0.283 C 
BRANCH   5   6
HETATM    6  C           1     -29.690  -6.151 -16.645  0.00  0.00     0.113 C 
BRANCH   6   7
HETATM    7  S           1     -30.980  -4.879 -16.752  0.00  0.00    -0.180 SA
HETATM    8  H           1     -31.756  -5.541 -17.628  0.00  0.00     0.101 HD
ENDBRANCH   6   7
ENDBRANCH   5   6
BRANCH   5   9
HETATM    9  N           1     -28.367  -4.072 -16.778  0.00  0.00    -0.066 N 
HETATM   10  H           1     -28.809  -3.580 -17.587  0.00  0.00     0.275 HD
HETATM   11  H           1     -28.918  -3.879 -15.911  0.00  0.00     0.275 HD
HETATM   12  H           1     -27.389  -3.727 -16.653  0.00  0.00     0.275 HD
ENDBRANCH   5   9
ENDBRANCH   3   5
BRANCH   4  13
HETATM   13  C           1     -26.982  -7.014 -20.306  0.00  0.00     0.189 C 
BRANCH  13  14
HETATM   14  C           1     -25.486  -7.159 -20.546  0.00  0.00     0.010 C 
HETATM   15  C           1     -25.031  -6.115 -21.556  0.00  0.00     0.012 C 
HETATM   16  C           1     -24.739  -6.956 -19.234  0.00  0.00     0.012 C 
ENDBRANCH  13  14
BRANCH  13  17
HETATM   17  C           1     -27.685  -8.280 -20.729  0.00  0.00     0.197 C 
HETATM   18  O           1     -28.759  -8.612 -20.182  0.00  0.00    -0.646 OA
HETATM   19  O           1     -27.194  -8.997 -21.629  0.00  0.00    -0.646 OA
ENDBRANCH  13  17
ENDBRANCH   4  13
TORSDOF 7
ENDMDL
MODEL 4
REMARK VINA RESULT:      -4.5     25.241     26.214
REMARK  7 active torsions:
REMARK  status: ('A' for Active; 'I' for Inactive)
REMARK    1  A    between atoms: C_2  and  C_14 
REMARK    2  A    between atoms: C_2  and  S_3 
REMARK    3  A    between atoms: N_4  and  C_14 
REMARK    4  A    between atoms: C_7  and  C_12 
REMARK    5  A    between atoms: C_12  and  C_19 
REMARK    6  A    between atoms: C_12  and  N_16 
REMARK    7  A    between atoms: C_14  and  C_15 
REMARK       I    between atoms: C_15  and  N_16 
ROOT
HETATM    1  H           1     -11.901   5.733 -19.221  0.00  0.00     0.163 HD
HETATM    2  O           1     -11.647   7.146 -22.010  0.00  0.00    -0.271 OA
HETATM    3  C           1     -11.468   6.960 -20.830  0.00  0.00     0.249 C 
HETATM    4  N           1     -12.050   5.887 -20.209  0.00  0.00    -0.344 N 
ENDROOT
BRANCH   3   5
HETATM    5  C           1     -10.605   7.912 -20.039  0.00  0.00     0.283 C 
BRANCH   5   6
HETATM    6  C           1     -11.182   9.319 -20.132  0.00  0.00     0.113 C 
BRANCH   6   7
HETATM    7  S           1     -12.652   9.442 -19.076  0.00  0.00    -0.180 SA
HETATM    8  H           1     -12.127   8.785 -18.028  0.00  0.00     0.101 HD
ENDBRANCH   6   7
ENDBRANCH   5   6
BRANCH   5   9
HETATM    9  N           1      -9.213   7.905 -20.596  0.00  0.00    -0.066 N 
HETATM   10  H           1      -9.083   7.064 -21.202  0.00  0.00     0.275 HD
HETATM   11  H           1      -9.061   8.769 -21.165  0.00  0.00     0.275 HD
HETATM   12  H           1      -8.524   7.879 -19.811  0.00  0.00     0.275 HD
ENDBRANCH   5   9
ENDBRANCH   3   5
BRANCH   4  13
HETATM   13  C           1     -12.879   4.973 -20.970  0.00  0.00     0.189 C 
BRANCH  13  14
HETATM   14  C           1     -12.629   3.548 -20.495  0.00  0.00     0.010 C 
HETATM   15  C           1     -13.357   2.573 -21.410  0.00  0.00     0.012 C 
HETATM   16  C           1     -11.134   3.257 -20.528  0.00  0.00     0.012 C 
ENDBRANCH  13  14
BRANCH  13  17
HETATM   17  C           1     -14.332   5.324 -20.765  0.00  0.00     0.197 C 
HETATM   18  O           1     -15.046   5.626 -21.745  0.00  0.00    -0.646 OA
HETATM   19  O           1     -14.822   5.312 -19.615  0.00  0.00    -0.646 OA
ENDBRANCH  13  17
ENDBRANCH   4  13
TORSDOF 7
ENDMDL
MODEL 5
REMARK VINA RESULT:      -4.4      2.232      2.976
REMARK  7 active torsions:
REMARK  status: ('A' for Active; 'I' for Inactive)
REMARK    1  A    between atoms: C_2  and  C_14 
REMARK    2  A    between atoms: C_2  and  S_3 
REMARK    3  A    between atoms: N_4  and  C_14 
REMARK    4  A    between atoms: C_7  and  C_12 
REMARK    5  A    between atoms: C_12  and  C_19 
REMARK    6  A    between atoms: C_12  and  N_16 
REMARK    7  A    between atoms: C_14  and  C_15 
REMARK       I    between atoms: C_15  and  N_16 
ROOT
HETATM    1  H           1     -36.457  -1.835 -13.053  0.00  0.00     0.163 HD
HETATM    2  O           1     -34.455   0.574 -13.225  0.00  0.00    -0.271 OA
HETATM    3  C           1     -35.448  -0.074 -13.458  0.00  0.00     0.249 C 
HETATM    4  N           1     -35.627  -1.292 -12.857  0.00  0.00    -0.344 N 
ENDROOT
BRANCH   3   5
HETATM    5  C           1     -36.489   0.456 -14.412  0.00  0.00     0.283 C 
BRANCH   5   6
HETATM    6  C           1     -36.987  -0.675 -15.303  0.00  0.00     0.113 C 
BRANCH   6   7
HETATM    7  S           1     -35.739  -1.043 -16.568  0.00  0.00    -0.180 SA
HETATM    8  H           1     -35.378   0.234 -16.784  0.00  0.00     0.101 HD
ENDBRANCH   6   7
ENDBRANCH   5   6
BRANCH   5   9
HETATM    9  N           1     -35.884   1.532 -15.264  0.00  0.00    -0.066 N 
HETATM   10  H           1     -35.416   2.239 -14.653  0.00  0.00     0.275 HD
HETATM   11  H           1     -35.179   1.110 -15.910  0.00  0.00     0.275 HD
HETATM   12  H           1     -36.635   1.997 -15.823  0.00  0.00     0.275 HD
ENDBRANCH   5   9
ENDBRANCH   3   5
BRANCH   4  13
HETATM   13  C           1     -34.626  -1.802 -11.940  0.00  0.00     0.189 C 
BRANCH  13  14
HETATM   14  C           1     -35.290  -2.178 -10.623  0.00  0.00     0.010 C 
HETATM   15  C           1     -36.297  -1.102 -10.236  0.00  0.00     0.012 C 
HETATM   16  C           1     -36.009  -3.512 -10.780  0.00  0.00     0.012 C 
ENDBRANCH  13  14
BRANCH  13  17
HETATM   17  C           1     -33.970  -3.021 -12.540  0.00  0.00     0.197 C 
HETATM   18  O           1     -34.347  -3.451 -13.651  0.00  0.00    -0.646 OA
HETATM   19  O           1     -33.048  -3.601 -11.925  0.00  0.00    -0.646 OA
ENDBRANCH  13  17
ENDBRANCH   4  13
TORSDOF 7
ENDMDL
MODEL 6
REMARK VINA RESULT:      -4.4     15.980     17.518
REMARK  7 active torsions:
REMARK  status: ('A' for Active; 'I' for Inactive)
REMARK    1  A    between atoms: C_2  and  C_14 
REMARK    2  A    between atoms: C_2  and  S_3 
REMARK    3  A    between atoms: N_4  and  C_14 
REMARK    4  A    between atoms: C_7  and  C_12 
REMARK    5  A    between atoms: C_12  and  C_19 
REMARK    6  A    between atoms: C_12  and  N_16 
REMARK    7  A    between atoms: C_14  and  C_15 
REMARK       I    between atoms: C_15  and  N_16 
ROOT
HETATM    1  H           1     -19.825  -6.740  -4.649  0.00  0.00     0.163 HD
HETATM    2  O           1     -22.717  -5.894  -5.522  0.00  0.00    -0.271 OA
HETATM    3  C           1     -21.509  -5.916  -5.525  0.00  0.00     0.249 C 
HETATM    4  N           1     -20.836  -6.723  -4.647  0.00  0.00    -0.344 N 
ENDROOT
BRANCH   3   5
HETATM    5  C           1     -20.741  -5.053  -6.496  0.00  0.00     0.283 C 
BRANCH   5   6
HETATM    6  C           1     -21.697  -4.087  -7.184  0.00  0.00     0.113 C 
BRANCH   6   7
HETATM    7  S           1     -21.713  -4.418  -8.968  0.00  0.00    -0.180 SA
HETATM    8  H           1     -21.539  -3.141  -9.350  0.00  0.00     0.101 HD
ENDBRANCH   6   7
ENDBRANCH   5   6
BRANCH   5   9
HETATM    9  N           1     -20.083  -5.923  -7.526  0.00  0.00    -0.066 N 
HETATM   10  H           1     -19.064  -5.698  -7.573  0.00  0.00     0.275 HD
HETATM   11  H           1     -20.205  -6.927  -7.263  0.00  0.00     0.275 HD
HETATM   12  H           1     -20.522  -5.750  -8.458  0.00  0.00     0.275 HD
ENDBRANCH   5   9
ENDBRANCH   3   5
BRANCH   4  13
HETATM   13  C           1     -21.574  -7.552  -3.714  0.00  0.00     0.189 C 
BRANCH  13  14
HETATM   14  C           1     -20.901  -8.913  -3.604  0.00  0.00     0.010 C 
HETATM   15  C           1     -21.886 -10.001  -4.014  0.00  0.00     0.012 C 
HETATM   16  C           1     -19.687  -8.955  -4.523  0.00  0.00     0.012 C 
ENDBRANCH  13  14
BRANCH  13  17
HETATM   17  C           1     -21.594  -6.889  -2.359  0.00  0.00     0.197 C 
HETATM   18  O           1     -22.276  -5.858  -2.177  0.00  0.00    -0.646 OA
HETATM   19  O           1     -20.927  -7.371  -1.417  0.00  0.00    -0.646 OA
ENDBRANCH  13  17
ENDBRANCH   4  13
TORSDOF 7
ENDMDL
MODEL 7
REMARK VINA RESULT:      -4.3     18.276     19.475
REMARK  7 active torsions:
REMARK  status: ('A' for Active; 'I' for Inactive)
REMARK    1  A    between atoms: C_2  and  C_14 
REMARK    2  A    between atoms: C_2  and  S_3 
REMARK    3  A    between atoms: N_4  and  C_14 
REMARK    4  A    between atoms: C_7  and  C_12 
REMARK    5  A    between atoms: C_12  and  C_19 
REMARK    6  A    between atoms: C_12  and  N_16 
REMARK    7  A    between atoms: C_14  and  C_15 
REMARK       I    between atoms: C_15  and  N_16 
ROOT
HETATM    1  H           1     -22.358  -8.423  -3.137  0.00  0.00     0.163 HD
HETATM    2  O           1     -19.312  -9.060  -2.741  0.00  0.00    -0.271 OA
HETATM    3  C           1     -20.319  -8.726  -3.319  0.00  0.00     0.249 C 
HETATM    4  N           1     -21.515  -8.702  -2.653  0.00  0.00    -0.344 N 
ENDROOT
BRANCH   3   5
HETATM    5  C           1     -20.259  -8.337  -4.776  0.00  0.00     0.283 C 
BRANCH   5   6
HETATM    6  C           1     -21.463  -7.470  -5.121  0.00  0.00     0.113 C 
BRANCH   6   7
HETATM    7  S           1     -20.942  -5.738  -5.263  0.00  0.00    -0.180 SA
HETATM    8  H           1     -22.157  -5.207  -5.039  0.00  0.00     0.101 HD
ENDBRANCH   6   7
ENDBRANCH   5   6
BRANCH   5   9
HETATM    9  N           1     -20.274  -9.574  -5.624  0.00  0.00    -0.066 N 
HETATM   10  H           1     -20.136 -10.414  -5.019  0.00  0.00     0.275 HD
HETATM   11  H           1     -21.194  -9.648  -6.116  0.00  0.00     0.275 HD
HETATM   12  H           1     -19.505  -9.522  -6.329  0.00  0.00     0.275 HD
ENDBRANCH   5   9
ENDBRANCH   3   5
BRANCH   4  13
HETATM   13  C           1     -21.572  -9.076  -1.253  0.00  0.00     0.189 C 
BRANCH  13  14
HETATM   14  C           1     -22.434  -8.075  -0.496  0.00  0.00     0.010 C 
HETATM   15  C           1     -21.977  -8.007   0.955  0.00  0.00     0.012 C 
HETATM   16  C           1     -22.296  -6.700  -1.137  0.00  0.00     0.012 C 
ENDBRANCH  13  14
BRANCH  13  17
HETATM   17  C           1     -22.172 -10.454  -1.125  0.00  0.00     0.197 C 
HETATM   18  O           1     -23.412 -10.593  -1.055  0.00  0.00    -0.646 OA
HETATM   19  O           1     -21.427 -11.459  -1.090  0.00  0.00    -0.646 OA
ENDBRANCH  13  17
ENDBRANCH   4  13
TORSDOF 7
ENDMDL
MODEL 8
REMARK VINA RESULT:      -4.3     14.880     16.468
REMARK  7 active torsions:
REMARK  status: ('A' for Active; 'I' for Inactive)
REMARK    1  A    between atoms: C_2  and  C_14 
REMARK    2  A    between atoms: C_2  and  S_3 
REMARK    3  A    between atoms: N_4  and  C_14 
REMARK    4  A    between atoms: C_7  and  C_12 
REMARK    5  A    between atoms: C_12  and  C_19 
REMARK    6  A    between atoms: C_12  and  N_16 
REMARK    7  A    between atoms: C_14  and  C_15 
REMARK       I    between atoms: C_15  and  N_16 
ROOT
HETATM    1  H           1     -22.534  -3.963  -7.361  0.00  0.00     0.163 HD
HETATM    2  O           1     -20.847  -6.607  -7.416  0.00  0.00    -0.271 OA
HETATM    3  C           1     -21.480  -5.694  -6.942  0.00  0.00     0.249 C 
HETATM    4  N           1     -22.005  -4.728  -7.758  0.00  0.00    -0.344 N 
ENDROOT
BRANCH   3   5
HETATM    5  C           1     -21.691  -5.616  -5.449  0.00  0.00     0.283 C 
BRANCH   5   6
HETATM    6  C           1     -20.688  -6.521  -4.746  0.00  0.00     0.113 C 
BRANCH   6   7
HETATM    7  S           1     -21.369  -7.057  -3.152  0.00  0.00    -0.180 SA
HETATM    8  H           1     -21.192  -5.882  -2.522  0.00  0.00     0.101 HD
ENDBRANCH   6   7
ENDBRANCH   5   6
BRANCH   5   9
HETATM    9  N           1     -23.084  -6.063  -5.118  0.00  0.00    -0.066 N 
HETATM   10  H           1     -23.255  -5.945  -4.094  0.00  0.00     0.275 HD
HETATM   11  H           1     -23.772  -5.486  -5.654  0.00  0.00     0.275 HD
HETATM   12  H           1     -23.198  -7.070  -5.376  0.00  0.00     0.275 HD
ENDBRANCH   5   9
ENDBRANCH   3   5
BRANCH   4  13
HETATM   13  C           1     -21.802  -4.802  -9.192  0.00  0.00     0.189 C 
BRANCH  13  14
HETATM   14  C           1     -22.928  -4.063  -9.902  0.00  0.00     0.010 C 
HETATM   15  C           1     -23.526  -4.962 -10.976  0.00  0.00     0.012 C 
HETATM   16  C           1     -24.006  -3.691  -8.893  0.00  0.00     0.012 C 
ENDBRANCH  13  14
BRANCH  13  17
HETATM   17  C           1     -20.480  -4.166  -9.545  0.00  0.00     0.197 C 
HETATM   18  O           1     -20.093  -4.148 -10.733  0.00  0.00    -0.646 OA
HETATM   19  O           1     -19.772  -3.656  -8.650  0.00  0.00    -0.646 OA
ENDBRANCH  13  17
ENDBRANCH   4  13
TORSDOF 7
ENDMDL
MODEL 9
REMARK VINA RESULT:      -4.2     19.329     20.228
REMARK  7 active torsions:
REMARK  status: ('A' for Active; 'I' for Inactive)
REMARK    1  A    between atoms: C_2  and  C_14 
REMARK    2  A    between atoms: C_2  and  S_3 
REMARK    3  A    between atoms: N_4  and  C_14 
REMARK    4  A    between atoms: C_7  and  C_12 
REMARK    5  A    between atoms: C_12  and  C_19 
REMARK    6  A    between atoms: C_12  and  N_16 
REMARK    7  A    between atoms: C_14  and  C_15 
REMARK       I    between atoms: C_15  and  N_16 
ROOT
HETATM    1  H           1     -22.373  -9.621  -1.670  0.00  0.00     0.163 HD
HETATM    2  O           1     -19.321  -9.256  -2.301  0.00  0.00    -0.271 OA
HETATM    3  C           1     -20.468  -9.594  -2.478  0.00  0.00     0.249 C 
HETATM    4  N           1     -21.413  -9.337  -1.522  0.00  0.00    -0.344 N 
ENDROOT
BRANCH   3   5
HETATM    5  C           1     -20.857 -10.303  -3.752  0.00  0.00     0.283 C 
BRANCH   5   6
HETATM    6  C           1     -20.476  -9.441  -4.950  0.00  0.00     0.113 C 
BRANCH   6   7
HETATM    7  S           1     -21.468  -7.922  -4.942  0.00  0.00    -0.180 SA
HETATM    8  H           1     -22.228  -8.256  -3.884  0.00  0.00     0.101 HD
ENDBRANCH   6   7
ENDBRANCH   5   6
BRANCH   5   9
HETATM    9  N           1     -22.337 -10.541  -3.759  0.00  0.00    -0.066 N 
HETATM   10  H           1     -22.825  -9.725  -3.325  0.00  0.00     0.275 HD
HETATM   11  H           1     -22.666 -10.659  -4.744  0.00  0.00     0.275 HD
HETATM   12  H           1     -22.553 -11.406  -3.213  0.00  0.00     0.275 HD
ENDBRANCH   5   9
ENDBRANCH   3   5
BRANCH   4  13
HETATM   13  C           1     -21.040  -8.656  -0.297  0.00  0.00     0.189 C 
BRANCH  13  14
HETATM   14  C           1     -22.069  -7.579   0.019  0.00  0.00     0.010 C 
HETATM   15  C           1     -22.305  -6.725  -1.220  0.00  0.00     0.012 C 
HETATM   16  C           1     -23.377  -8.236   0.439  0.00  0.00     0.012 C 
ENDBRANCH  13  14
BRANCH  13  17
HETATM   17  C           1     -20.988  -9.652   0.835  0.00  0.00     0.197 C 
HETATM   18  O           1     -20.561  -9.302   1.956  0.00  0.00    -0.646 OA
HETATM   19  O           1     -21.375 -10.827   0.653  0.00  0.00    -0.646 OA
ENDBRANCH  13  17
ENDBRANCH   4  13
TORSDOF 7
ENDMDL
