MODEL 1
REMARK VINA RESULT:      -6.8      0.000      0.000
REMARK  10 active torsions:
REMARK  status: ('A' for Active; 'I' for Inactive)
REMARK    1  A    between atoms: N_2  and  C_9 
REMARK    2  A    between atoms: O_5  and  P_6 
REMARK    3  A    between atoms: P_6  and  O_7 
REMARK    4  A    between atoms: O_7  and  C_8 
REMARK    5  A    between atoms: C_8  and  C_9 
REMARK    6  A    between atoms: C_9  and  C_10 
REMARK       I    between atoms: C_10  and  N_11 
REMARK    7  A    between atoms: N_11  and  C_15 
REMARK    8  A    between atoms: C_14  and  C_15 
REMARK    9  A    between atoms: C_15  and  C_17 
REMARK   10  A    between atoms: C_17  and  C_18 
ROOT
HETATM    1  C           1     -33.051  -4.522 -16.613  0.00  0.00     0.298 C 
ENDROOT
BRANCH   1   2
HETATM    2  N           1     -33.163  -3.194 -17.301  0.00  0.00    -0.064 N 
HETATM    3  H           1     -32.261  -2.970 -17.778  0.00  0.00     0.275 HD
HETATM    4  H           1     -33.932  -3.231 -18.008  0.00  0.00     0.275 HD
HETATM    5  H           1     -33.375  -2.453 -16.594  0.00  0.00     0.275 HD
ENDBRANCH   1   2
BRANCH   1   6
HETATM    6  C           1     -31.605  -4.757 -16.195  0.00  0.00     0.224 C 
BRANCH   6   7
HETATM    7  O           1     -30.856  -5.160 -17.309  0.00  0.00    -0.287 OA
BRANCH   7   8
HETATM    8  P           1     -29.563  -4.257 -17.657  0.00  0.00     0.406 P 
HETATM    9  O           1     -28.969  -4.717 -18.933  0.00  0.00    -0.624 OA
HETATM   10  O           1     -28.565  -4.387 -16.572  0.00  0.00    -0.624 OA
BRANCH   8  11
HETATM   11  O           1     -30.007  -2.710 -17.798  0.00  0.00    -0.300 OA
HETATM   12  H           1     -30.338  -2.474 -16.949  0.00  0.00     0.223 HD
ENDBRANCH   8  11
ENDBRANCH   7   8
ENDBRANCH   6   7
ENDBRANCH   1   6
BRANCH   1  13
HETATM   13  C           1     -33.936  -4.532 -15.392  0.00  0.00     0.251 C 
HETATM   14  O           1     -35.046  -5.006 -15.454  0.00  0.00    -0.271 OA
HETATM   15  N           1     -33.482  -4.005 -14.213  0.00  0.00    -0.344 N 
HETATM   16  H           1     -32.552  -3.609 -14.161  0.00  0.00     0.163 HD
BRANCH  15  17
HETATM   17  C           1     -34.332  -4.016 -13.038  0.00  0.00     0.189 C 
BRANCH  17  18
HETATM   18  C           1     -35.000  -2.670 -12.891  0.00  0.00     0.197 C 
HETATM   19  O           1     -35.812  -2.474 -11.961  0.00  0.00    -0.646 OA
HETATM   20  O           1     -34.742  -1.753 -13.700  0.00  0.00    -0.646 OA
ENDBRANCH  17  18
BRANCH  17  21
HETATM   21  C           1     -33.487  -4.301 -11.803  0.00  0.00     0.014 C 
HETATM   22  C           1     -32.906  -2.996 -11.275  0.00  0.00     0.012 C 
BRANCH  21  23
HETATM   23  C           1     -34.358  -4.940 -10.731  0.00  0.00     0.002 C 
HETATM   24  C           1     -34.154  -6.449 -10.742  0.00  0.00     0.005 C 
ENDBRANCH  21  23
ENDBRANCH  17  21
ENDBRANCH  15  17
ENDBRANCH   1  13
TORSDOF 10
ENDMDL
MODEL 2
REMARK VINA RESULT:      -6.6      4.077      5.740
REMARK  10 active torsions:
REMARK  status: ('A' for Active; 'I' for Inactive)
REMARK    1  A    between atoms: N_2  and  C_9 
REMARK    2  A    between atoms: O_5  and  P_6 
REMARK    3  A    between atoms: P_6  and  O_7 
REMARK    4  A    between atoms: O_7  and  C_8 
REMARK    5  A    between atoms: C_8  and  C_9 
REMARK    6  A    between atoms: C_9  and  C_10 
REMARK       I    between atoms: C_10  and  N_11 
REMARK    7  A    between atoms: N_11  and  C_15 
REMARK    8  A    between atoms: C_14  and  C_15 
REMARK    9  A    between atoms: C_15  and  C_17 
REMARK   10  A    between atoms: C_17  and  C_18 
ROOT
HETATM    1  C           1     -36.431  -0.527 -11.426  0.00  0.00     0.298 C 
ENDROOT
BRANCH   1   2
HETATM    2  N           1     -36.517   0.523 -10.359  0.00  0.00    -0.064 N 
HETATM    3  H           1     -37.507   0.615 -10.038  0.00  0.00     0.275 HD
HETATM    4  H           1     -35.913   0.248  -9.551  0.00  0.00     0.275 HD
HETATM    5  H           1     -36.190   1.438 -10.744  0.00  0.00     0.275 HD
ENDBRANCH   1   2
BRANCH   1   6
HETATM    6  C           1     -35.989   0.116 -12.735  0.00  0.00     0.224 C 
BRANCH   6   7
HETATM    7  O           1     -36.483  -0.632 -13.813  0.00  0.00    -0.287 OA
BRANCH   7   8
HETATM    8  P           1     -35.642  -0.530 -15.189  0.00  0.00     0.406 P 
HETATM    9  O           1     -34.494   0.385 -14.999  0.00  0.00    -0.624 OA
HETATM   10  O           1     -36.517  -0.009 -16.263  0.00  0.00    -0.624 OA
BRANCH   8  11
HETATM   11  O           1     -35.100  -1.995 -15.600  0.00  0.00    -0.300 OA
HETATM   12  H           1     -35.079  -1.992 -16.541  0.00  0.00     0.223 HD
ENDBRANCH   8  11
ENDBRANCH   7   8
ENDBRANCH   6   7
ENDBRANCH   1   6
BRANCH   1  13
HETATM   13  C           1     -35.429  -1.578 -11.019  0.00  0.00     0.251 C 
HETATM   14  O           1     -34.704  -1.387 -10.072  0.00  0.00    -0.271 OA
HETATM   15  N           1     -35.341  -2.750 -11.722  0.00  0.00    -0.344 N 
HETATM   16  H           1     -35.949  -2.911 -12.515  0.00  0.00     0.163 HD
BRANCH  15  17
HETATM   17  C           1     -34.378  -3.761 -11.330  0.00  0.00     0.189 C 
BRANCH  17  18
HETATM   18  C           1     -33.356  -3.932 -12.427  0.00  0.00     0.197 C 
HETATM   19  O           1     -33.655  -3.656 -13.609  0.00  0.00    -0.646 OA
HETATM   20  O           1     -32.211  -4.351 -12.153  0.00  0.00    -0.646 OA
ENDBRANCH  17  18
BRANCH  17  21
HETATM   21  C           1     -35.098  -5.082 -11.096  0.00  0.00     0.014 C 
HETATM   22  C           1     -35.081  -5.902 -12.379  0.00  0.00     0.012 C 
BRANCH  21  23
HETATM   23  C           1     -34.391  -5.855  -9.990  0.00  0.00     0.002 C 
HETATM   24  C           1     -34.758  -7.330 -10.085  0.00  0.00     0.005 C 
ENDBRANCH  21  23
ENDBRANCH  17  21
ENDBRANCH  15  17
ENDBRANCH   1  13
TORSDOF 10
ENDMDL
MODEL 3
REMARK VINA RESULT:      -6.6     12.735     14.422
REMARK  10 active torsions:
REMARK  status: ('A' for Active; 'I' for Inactive)
REMARK    1  A    between atoms: N_2  and  C_9 
REMARK    2  A    between atoms: O_5  and  P_6 
REMARK    3  A    between atoms: P_6  and  O_7 
REMARK    4  A    between atoms: O_7  and  C_8 
REMARK    5  A    between atoms: C_8  and  C_9 
REMARK    6  A    between atoms: C_9  and  C_10 
REMARK       I    between atoms: C_10  and  N_11 
REMARK    7  A    between atoms: N_11  and  C_15 
REMARK    8  A    between atoms: C_14  and  C_15 
REMARK    9  A    between atoms: C_15  and  C_17 
REMARK   10  A    between atoms: C_17  and  C_18 
ROOT
HETATM    1  C           1     -22.176  -4.376  -7.146  0.00  0.00     0.298 C 
ENDROOT
BRANCH   1   2
HETATM    2  N           1     -21.687  -2.960  -7.207  0.00  0.00    -0.064 N 
HETATM    3  H           1     -20.736  -2.936  -7.639  0.00  0.00     0.275 HD
HETATM    4  H           1     -22.347  -2.389  -7.784  0.00  0.00     0.275 HD
HETATM    5  H           1     -21.639  -2.566  -6.239  0.00  0.00     0.275 HD
ENDBRANCH   1   2
BRANCH   1   6
HETATM    6  C           1     -22.254  -4.947  -8.556  0.00  0.00     0.224 C 
BRANCH   6   7
HETATM    7  O           1     -22.623  -3.933  -9.451  0.00  0.00    -0.287 OA
BRANCH   7   8
HETATM    8  P           1     -23.961  -4.203 -10.316  0.00  0.00     0.406 P 
HETATM    9  O           1     -23.641  -5.095 -11.453  0.00  0.00    -0.624 OA
HETATM   10  O           1     -24.484  -2.917 -10.828  0.00  0.00    -0.624 OA
BRANCH   8  11
HETATM   11  O           1     -25.075  -4.903  -9.379  0.00  0.00    -0.300 OA
HETATM   12  H           1     -25.538  -4.189  -8.976  0.00  0.00     0.223 HD
ENDBRANCH   8  11
ENDBRANCH   7   8
ENDBRANCH   6   7
ENDBRANCH   1   6
BRANCH   1  13
HETATM   13  C           1     -21.220  -5.203  -6.322  0.00  0.00     0.251 C 
HETATM   14  O           1     -20.037  -4.963  -6.348  0.00  0.00    -0.271 OA
HETATM   15  N           1     -21.694  -6.224  -5.544  0.00  0.00    -0.344 N 
HETATM   16  H           1     -22.686  -6.425  -5.521  0.00  0.00     0.163 HD
BRANCH  15  17
HETATM   17  C           1     -20.776  -7.018  -4.751  0.00  0.00     0.189 C 
BRANCH  17  18
HETATM   18  C           1     -20.378  -8.250  -5.527  0.00  0.00     0.197 C 
HETATM   19  O           1     -19.188  -8.412  -5.875  0.00  0.00    -0.646 OA
HETATM   20  O           1     -21.238  -9.107  -5.823  0.00  0.00    -0.646 OA
ENDBRANCH  17  18
BRANCH  17  21
HETATM   21  C           1     -21.455  -7.434  -3.453  0.00  0.00     0.014 C 
HETATM   22  C           1     -20.469  -8.213  -2.592  0.00  0.00     0.012 C 
BRANCH  21  23
HETATM   23  C           1     -21.915  -6.193  -2.701  0.00  0.00     0.002 C 
HETATM   24  C           1     -22.303  -6.573  -1.278  0.00  0.00     0.005 C 
ENDBRANCH  21  23
ENDBRANCH  17  21
ENDBRANCH  15  17
ENDBRANCH   1  13
TORSDOF 10
ENDMDL
MODEL 4
REMARK VINA RESULT:      -6.4      3.634      6.666
REMARK  10 active torsions:
REMARK  status: ('A' for Active; 'I' for Inactive)
REMARK    1  A    between atoms: N_2  and  C_9 
REMARK    2  A    between atoms: O_5  and  P_6 
REMARK    3  A    between atoms: P_6  and  O_7 
REMARK    4  A    between atoms: O_7  and  C_8 
REMARK    5  A    between atoms: C_8  and  C_9 
REMARK    6  A    between atoms: C_9  and  C_10 
REMARK       I    between atoms: C_10  and  N_11 
REMARK    7  A    between atoms: N_11  and  C_15 
REMARK    8  A    between atoms: C_14  and  C_15 
REMARK    9  A    between atoms: C_15  and  C_17 
REMARK   10  A    between atoms: C_17  and  C_18 
ROOT
HETATM    1  C           1     -33.869  -4.104 -16.202  0.00  0.00     0.298 C 
ENDROOT
BRANCH   1   2
HETATM    2  N           1     -33.736  -4.134 -14.709  0.00  0.00    -0.064 N 
HETATM    3  H           1     -33.814  -5.120 -14.370  0.00  0.00     0.275 HD
HETATM    4  H           1     -32.806  -3.744 -14.434  0.00  0.00     0.275 HD
HETATM    5  H           1     -34.496  -3.558 -14.280  0.00  0.00     0.275 HD
ENDBRANCH   1   2
BRANCH   1   6
HETATM    6  C           1     -34.580  -2.824 -16.622  0.00  0.00     0.224 C 
BRANCH   6   7
HETATM    7  O           1     -35.123  -2.198 -15.491  0.00  0.00    -0.287 OA
BRANCH   7   8
HETATM    8  P           1     -35.819  -0.762 -15.743  0.00  0.00     0.406 P 
HETATM    9  O           1     -34.850   0.315 -15.437  0.00  0.00    -0.624 OA
HETATM   10  O           1     -37.002  -0.627 -14.865  0.00  0.00    -0.624 OA
BRANCH   8  11
HETATM   11  O           1     -36.279  -0.648 -17.287  0.00  0.00    -0.300 OA
HETATM   12  H           1     -35.980  -1.445 -17.689  0.00  0.00     0.223 HD
ENDBRANCH   8  11
ENDBRANCH   7   8
ENDBRANCH   6   7
ENDBRANCH   1   6
BRANCH   1  13
HETATM   13  C           1     -32.498  -4.147 -16.830  0.00  0.00     0.251 C 
HETATM   14  O           1     -32.136  -3.251 -17.554  0.00  0.00    -0.271 OA
HETATM   15  N           1     -31.663  -5.203 -16.579  0.00  0.00    -0.344 N 
HETATM   16  H           1     -31.965  -5.954 -15.972  0.00  0.00     0.163 HD
BRANCH  15  17
HETATM   17  C           1     -30.345  -5.245 -17.182  0.00  0.00     0.189 C 
BRANCH  17  18
HETATM   18  C           1     -30.120  -6.602 -17.803  0.00  0.00     0.197 C 
HETATM   19  O           1     -30.911  -7.540 -17.559  0.00  0.00    -0.646 OA
HETATM   20  O           1     -29.144  -6.789 -18.560  0.00  0.00    -0.646 OA
ENDBRANCH  17  18
BRANCH  17  21
HETATM   21  C           1     -29.290  -4.995 -16.112  0.00  0.00     0.014 C 
HETATM   22  C           1     -28.712  -6.326 -15.651  0.00  0.00     0.012 C 
BRANCH  21  23
HETATM   23  C           1     -28.177  -4.131 -16.691  0.00  0.00     0.002 C 
HETATM   24  C           1     -28.769  -2.841 -17.244  0.00  0.00     0.005 C 
ENDBRANCH  21  23
ENDBRANCH  17  21
ENDBRANCH  15  17
ENDBRANCH   1  13
TORSDOF 10
ENDMDL
MODEL 5
REMARK VINA RESULT:      -6.2     13.369     14.768
REMARK  10 active torsions:
REMARK  status: ('A' for Active; 'I' for Inactive)
REMARK    1  A    between atoms: N_2  and  C_9 
REMARK    2  A    between atoms: O_5  and  P_6 
REMARK    3  A    between atoms: P_6  and  O_7 
REMARK    4  A    between atoms: O_7  and  C_8 
REMARK    5  A    between atoms: C_8  and  C_9 
REMARK    6  A    between atoms: C_9  and  C_10 
REMARK       I    between atoms: C_10  and  N_11 
REMARK    7  A    between atoms: N_11  and  C_15 
REMARK    8  A    between atoms: C_14  and  C_15 
REMARK    9  A    between atoms: C_15  and  C_17 
REMARK   10  A    between atoms: C_17  and  C_18 
ROOT
HETATM    1  C           1     -21.707  -5.070  -6.667  0.00  0.00     0.298 C 
ENDROOT
BRANCH   1   2
HETATM    2  N           1     -20.870  -5.842  -7.643  0.00  0.00    -0.064 N 
HETATM    3  H           1     -20.532  -6.722  -7.194  0.00  0.00     0.275 HD
HETATM    4  H           1     -21.444  -6.078  -8.484  0.00  0.00     0.275 HD
HETATM    5  H           1     -20.049  -5.262  -7.933  0.00  0.00     0.275 HD
ENDBRANCH   1   2
BRANCH   1   6
HETATM    6  C           1     -22.931  -4.509  -7.381  0.00  0.00     0.224 C 
BRANCH   6   7
HETATM    7  O           1     -22.530  -3.864  -8.559  0.00  0.00    -0.287 OA
BRANCH   7   8
HETATM    8  P           1     -23.644  -3.762  -9.725  0.00  0.00     0.406 P 
HETATM    9  O           1     -24.082  -5.123 -10.108  0.00  0.00    -0.624 OA
HETATM   10  O           1     -23.063  -3.079 -10.902  0.00  0.00    -0.624 OA
BRANCH   8  11
HETATM   11  O           1     -24.913  -2.920  -9.186  0.00  0.00    -0.300 OA
HETATM   12  H           1     -25.614  -3.546  -9.130  0.00  0.00     0.223 HD
ENDBRANCH   8  11
ENDBRANCH   7   8
ENDBRANCH   6   7
ENDBRANCH   1   6
BRANCH   1  13
HETATM   13  C           1     -22.151  -5.983  -5.552  0.00  0.00     0.251 C 
HETATM   14  O           1     -23.326  -6.105  -5.301  0.00  0.00    -0.271 OA
HETATM   15  N           1     -21.221  -6.676  -4.823  0.00  0.00    -0.344 N 
HETATM   16  H           1     -20.236  -6.575  -5.034  0.00  0.00     0.163 HD
BRANCH  15  17
HETATM   17  C           1     -21.646  -7.555  -3.751  0.00  0.00     0.189 C 
BRANCH  17  18
HETATM   18  C           1     -21.474  -6.851  -2.427  0.00  0.00     0.197 C 
HETATM   19  O           1     -22.142  -5.826  -2.173  0.00  0.00    -0.646 OA
HETATM   20  O           1     -20.662  -7.293  -1.586  0.00  0.00    -0.646 OA
ENDBRANCH  17  18
BRANCH  17  21
HETATM   21  C           1     -20.800  -8.821  -3.767  0.00  0.00     0.014 C 
HETATM   22  C           1     -21.662 -10.000  -4.197  0.00  0.00     0.012 C 
BRANCH  21  23
HETATM   23  C           1     -19.649  -8.649  -4.749  0.00  0.00     0.002 C 
HETATM   24  C           1     -18.440  -9.434  -4.259  0.00  0.00     0.005 C 
ENDBRANCH  21  23
ENDBRANCH  17  21
ENDBRANCH  15  17
ENDBRANCH   1  13
TORSDOF 10
ENDMDL
MODEL 6
REMARK VINA RESULT:      -5.9     23.024     25.173
REMARK  10 active torsions:
REMARK  status: ('A' for Active; 'I' for Inactive)
REMARK    1  A    between atoms: N_2  and  C_9 
REMARK    2  A    between atoms: O_5  and  P_6 
REMARK    3  A    between atoms: P_6  and  O_7 
REMARK    4  A    between atoms: O_7  and  C_8 
REMARK    5  A    between atoms: C_8  and  C_9 
REMARK    6  A    between atoms: C_9  and  C_10 
REMARK       I    between atoms: C_10  and  N_11 
REMARK    7  A    between atoms: N_11  and  C_15 
REMARK    8  A    between atoms: C_14  and  C_15 
REMARK    9  A    between atoms: C_15  and  C_17 
REMARK   10  A    between atoms: C_17  and  C_18 
ROOT
HETATM    1  C           1     -10.775   4.398 -20.988  0.00  0.00     0.298 C 
ENDROOT
BRANCH   1   2
HETATM    2  N           1     -11.411   3.597 -19.891  0.00  0.00    -0.064 N 
HETATM    3  H           1     -10.985   3.861 -18.974  0.00  0.00     0.275 HD
HETATM    4  H           1     -12.438   3.793 -19.868  0.00  0.00     0.275 HD
HETATM    5  H           1     -11.254   2.579 -20.067  0.00  0.00     0.275 HD
ENDBRANCH   1   2
BRANCH   1   6
HETATM    6  C           1     -11.832   4.781 -22.015  0.00  0.00     0.224 C 
BRANCH   6   7
HETATM    7  O           1     -13.072   4.251 -21.630  0.00  0.00    -0.287 OA
BRANCH   7   8
HETATM    8  P           1     -14.101   5.288 -20.941  0.00  0.00     0.406 P 
HETATM    9  O           1     -14.319   4.901 -19.529  0.00  0.00    -0.624 OA
HETATM   10  O           1     -15.391   5.257 -21.666  0.00  0.00    -0.624 OA
BRANCH   8  11
HETATM   11  O           1     -13.486   6.780 -21.001  0.00  0.00    -0.300 OA
HETATM   12  H           1     -14.009   7.284 -20.402  0.00  0.00     0.223 HD
ENDBRANCH   8  11
ENDBRANCH   7   8
ENDBRANCH   6   7
ENDBRANCH   1   6
BRANCH   1  13
HETATM   13  C           1     -10.161   5.648 -20.408  0.00  0.00     0.251 C 
HETATM   14  O           1      -9.312   5.563 -19.553  0.00  0.00    -0.271 OA
HETATM   15  N           1     -10.567   6.878 -20.850  0.00  0.00    -0.344 N 
HETATM   16  H           1     -11.278   6.950 -21.567  0.00  0.00     0.163 HD
BRANCH  15  17
HETATM   17  C           1      -9.977   8.080 -20.293  0.00  0.00     0.189 C 
BRANCH  17  18
HETATM   18  C           1     -10.814   8.558 -19.132  0.00  0.00     0.197 C 
HETATM   19  O           1     -10.263   9.054 -18.126  0.00  0.00    -0.646 OA
HETATM   20  O           1     -12.059   8.458 -19.178  0.00  0.00    -0.646 OA
ENDBRANCH  17  18
BRANCH  17  21
HETATM   21  C           1      -9.926   9.163 -21.363  0.00  0.00     0.014 C 
HETATM   22  C           1      -8.475   9.456 -21.718  0.00  0.00     0.012 C 
BRANCH  21  23
HETATM   23  C           1     -10.667   8.684 -22.604  0.00  0.00     0.002 C 
HETATM   24  C           1     -11.857   9.595 -22.870  0.00  0.00     0.005 C 
ENDBRANCH  21  23
ENDBRANCH  17  21
ENDBRANCH  15  17
ENDBRANCH   1  13
TORSDOF 10
ENDMDL
MODEL 7
REMARK VINA RESULT:      -5.7      4.405      6.758
REMARK  10 active torsions:
REMARK  status: ('A' for Active; 'I' for Inactive)
REMARK    1  A    between atoms: N_2  and  C_9 
REMARK    2  A    between atoms: O_5  and  P_6 
REMARK    3  A    between atoms: P_6  and  O_7 
REMARK    4  A    between atoms: O_7  and  C_8 
REMARK    5  A    between atoms: C_8  and  C_9 
REMARK    6  A    between atoms: C_9  and  C_10 
REMARK       I    between atoms: C_10  and  N_11 
REMARK    7  A    between atoms: N_11  and  C_15 
REMARK    8  A    between atoms: C_14  and  C_15 
REMARK    9  A    between atoms: C_15  and  C_17 
REMARK   10  A    between atoms: C_17  and  C_18 
ROOT
HETATM    1  C           1     -34.548  -2.441 -11.859  0.00  0.00     0.298 C 
ENDROOT
BRANCH   1   2
HETATM    2  N           1     -33.808  -1.498 -10.958  0.00  0.00    -0.064 N 
HETATM    3  H           1     -34.008  -1.737  -9.961  0.00  0.00     0.275 HD
HETATM    4  H           1     -32.781  -1.580 -11.137  0.00  0.00     0.275 HD
HETATM    5  H           1     -34.119  -0.518 -11.149  0.00  0.00     0.275 HD
ENDBRANCH   1   2
BRANCH   1   6
HETATM    6  C           1     -35.324  -3.445 -11.015  0.00  0.00     0.224 C 
BRANCH   6   7
HETATM    7  O           1     -34.425  -4.284 -10.342  0.00  0.00    -0.287 OA
BRANCH   7   8
HETATM    8  P           1     -34.184  -5.739 -11.002  0.00  0.00     0.406 P 
HETATM    9  O           1     -32.744  -5.914 -11.296  0.00  0.00    -0.624 OA
HETATM   10  O           1     -34.961  -5.844 -12.257  0.00  0.00    -0.624 OA
BRANCH   8  11
HETATM   11  O           1     -34.667  -6.885  -9.972  0.00  0.00    -0.300 OA
HETATM   12  H           1     -34.121  -6.777  -9.213  0.00  0.00     0.223 HD
ENDBRANCH   8  11
ENDBRANCH   7   8
ENDBRANCH   6   7
ENDBRANCH   1   6
BRANCH   1  13
HETATM   13  C           1     -35.509  -1.662 -12.723  0.00  0.00     0.251 C 
HETATM   14  O           1     -36.630  -1.443 -12.333  0.00  0.00    -0.271 OA
HETATM   15  N           1     -35.108  -1.203 -13.949  0.00  0.00    -0.344 N 
HETATM   16  H           1     -34.168  -1.386 -14.276  0.00  0.00     0.163 HD
BRANCH  15  17
HETATM   17  C           1     -36.030  -0.454 -14.780  0.00  0.00     0.189 C 
BRANCH  17  18
HETATM   18  C           1     -35.891  -0.902 -16.214  0.00  0.00     0.197 C 
HETATM   19  O           1     -36.842  -0.751 -17.012  0.00  0.00    -0.646 OA
HETATM   20  O           1     -34.824  -1.423 -16.604  0.00  0.00    -0.646 OA
ENDBRANCH  17  18
BRANCH  17  21
HETATM   21  C           1     -35.712   1.032 -14.678  0.00  0.00     0.014 C 
HETATM   22  C           1     -34.496   1.229 -13.783  0.00  0.00     0.012 C 
BRANCH  21  23
HETATM   23  C           1     -35.415   1.582 -16.067  0.00  0.00     0.002 C 
HETATM   24  C           1     -36.302   2.790 -16.336  0.00  0.00     0.005 C 
ENDBRANCH  21  23
ENDBRANCH  17  21
ENDBRANCH  15  17
ENDBRANCH   1  13
TORSDOF 10
ENDMDL
MODEL 8
REMARK VINA RESULT:      -5.7      3.915      6.532
REMARK  10 active torsions:
REMARK  status: ('A' for Active; 'I' for Inactive)
REMARK    1  A    between atoms: N_2  and  C_9 
REMARK    2  A    between atoms: O_5  and  P_6 
REMARK    3  A    between atoms: P_6  and  O_7 
REMARK    4  A    between atoms: O_7  and  C_8 
REMARK    5  A    between atoms: C_8  and  C_9 
REMARK    6  A    between atoms: C_9  and  C_10 
REMARK       I    between atoms: C_10  and  N_11 
REMARK    7  A    between atoms: N_11  and  C_15 
REMARK    8  A    between atoms: C_14  and  C_15 
REMARK    9  A    between atoms: C_15  and  C_17 
REMARK   10  A    between atoms: C_17  and  C_18 
ROOT
HETATM    1  C           1     -35.169  -0.602 -11.527  0.00  0.00     0.298 C 
ENDROOT
BRANCH   1   2
HETATM    2  N           1     -36.140   0.175 -10.690  0.00  0.00    -0.064 N 
HETATM    3  H           1     -35.687   1.055 -10.355  0.00  0.00     0.275 HD
HETATM    4  H           1     -36.981   0.414 -11.264  0.00  0.00     0.275 HD
HETATM    5  H           1     -36.431  -0.401  -9.868  0.00  0.00     0.275 HD
ENDBRANCH   1   2
BRANCH   1   6
HETATM    6  C           1     -34.752  -1.863 -10.780  0.00  0.00     0.224 C 
BRANCH   6   7
HETATM    7  O           1     -33.585  -2.384 -11.357  0.00  0.00    -0.287 OA
BRANCH   7   8
HETATM    8  P           1     -33.601  -3.968 -11.678  0.00  0.00     0.406 P 
HETATM    9  O           1     -33.960  -4.715 -10.452  0.00  0.00    -0.624 OA
HETATM   10  O           1     -32.261  -4.390 -12.140  0.00  0.00    -0.624 OA
BRANCH   8  11
HETATM   11  O           1     -34.689  -4.273 -12.832  0.00  0.00    -0.300 OA
HETATM   12  H           1     -35.398  -3.677 -12.663  0.00  0.00     0.223 HD
ENDBRANCH   8  11
ENDBRANCH   7   8
ENDBRANCH   6   7
ENDBRANCH   1   6
BRANCH   1  13
HETATM   13  C           1     -35.822  -0.984 -12.832  0.00  0.00     0.251 C 
HETATM   14  O           1     -37.019  -1.141 -12.886  0.00  0.00    -0.271 OA
HETATM   15  N           1     -35.059  -1.154 -13.956  0.00  0.00    -0.344 N 
HETATM   16  H           1     -34.056  -1.023 -13.911  0.00  0.00     0.163 HD
BRANCH  15  17
HETATM   17  C           1     -35.687  -1.521 -15.210  0.00  0.00     0.189 C 
BRANCH  17  18
HETATM   18  C           1     -34.761  -2.423 -15.989  0.00  0.00     0.197 C 
HETATM   19  O           1     -34.268  -2.031 -17.069  0.00  0.00    -0.646 OA
HETATM   20  O           1     -34.488  -3.563 -15.555  0.00  0.00    -0.646 OA
ENDBRANCH  17  18
BRANCH  17  21
HETATM   21  C           1     -35.971  -0.263 -16.022  0.00  0.00     0.014 C 
HETATM   22  C           1     -37.477  -0.060 -16.129  0.00  0.00     0.012 C 
BRANCH  21  23
HETATM   23  C           1     -35.344   0.939 -15.329  0.00  0.00     0.002 C 
HETATM   24  C           1     -35.964   2.220 -15.872  0.00  0.00     0.005 C 
ENDBRANCH  21  23
ENDBRANCH  17  21
ENDBRANCH  15  17
ENDBRANCH   1  13
TORSDOF 10
ENDMDL
MODEL 9
REMARK VINA RESULT:      -5.7     23.420     24.832
REMARK  10 active torsions:
REMARK  status: ('A' for Active; 'I' for Inactive)
REMARK    1  A    between atoms: N_2  and  C_9 
REMARK    2  A    between atoms: O_5  and  P_6 
REMARK    3  A    between atoms: P_6  and  O_7 
REMARK    4  A    between atoms: O_7  and  C_8 
REMARK    5  A    between atoms: C_8  and  C_9 
REMARK    6  A    between atoms: C_9  and  C_10 
REMARK       I    between atoms: C_10  and  N_11 
REMARK    7  A    between atoms: N_11  and  C_15 
REMARK    8  A    between atoms: C_14  and  C_15 
REMARK    9  A    between atoms: C_15  and  C_17 
REMARK   10  A    between atoms: C_17  and  C_18 
ROOT
HETATM    1  C           1     -13.422   6.105 -21.712  0.00  0.00     0.298 C 
ENDROOT
BRANCH   1   2
HETATM    2  N           1     -14.343   6.052 -22.894  0.00  0.00    -0.064 N 
HETATM    3  H           1     -15.253   6.504 -22.650  0.00  0.00     0.275 HD
HETATM    4  H           1     -13.908   6.558 -23.699  0.00  0.00     0.275 HD
HETATM    5  H           1     -14.511   5.054 -23.160  0.00  0.00     0.275 HD
ENDBRANCH   1   2
BRANCH   1   6
HETATM    6  C           1     -12.377   5.003 -21.834  0.00  0.00     0.224 C 
BRANCH   6   7
HETATM    7  O           1     -11.154   5.461 -21.324  0.00  0.00    -0.287 OA
BRANCH   7   8
HETATM    8  P           1     -10.746   4.911 -19.861  0.00  0.00     0.406 P 
HETATM    9  O           1     -10.586   3.440 -19.915  0.00  0.00    -0.624 OA
HETATM   10  O           1     -11.809   5.257 -18.891  0.00  0.00    -0.624 OA
BRANCH   8  11
HETATM   11  O           1      -9.354   5.587 -19.398  0.00  0.00    -0.300 OA
HETATM   12  H           1      -9.466   6.508 -19.557  0.00  0.00     0.223 HD
ENDBRANCH   8  11
ENDBRANCH   7   8
ENDBRANCH   6   7
ENDBRANCH   1   6
BRANCH   1  13
HETATM   13  C           1     -12.735   7.447 -21.670  0.00  0.00     0.251 C 
HETATM   14  O           1     -12.486   8.031 -22.698  0.00  0.00    -0.271 OA
HETATM   15  N           1     -12.396   8.005 -20.467  0.00  0.00    -0.344 N 
HETATM   16  H           1     -12.606   7.517 -19.605  0.00  0.00     0.163 HD
BRANCH  15  17
HETATM   17  C           1     -11.736   9.296 -20.426  0.00  0.00     0.189 C 
BRANCH  17  18
HETATM   18  C           1     -10.374   9.144 -19.793  0.00  0.00     0.197 C 
HETATM   19  O           1      -9.387   9.732 -20.285  0.00  0.00    -0.646 OA
HETATM   20  O           1     -10.234   8.428 -18.778  0.00  0.00    -0.646 OA
ENDBRANCH  17  18
BRANCH  17  21
HETATM   21  C           1     -12.573  10.267 -19.603  0.00  0.00     0.014 C 
HETATM   22  C           1     -13.518  11.027 -20.523  0.00  0.00     0.012 C 
BRANCH  21  23
HETATM   23  C           1     -13.382   9.491 -18.572  0.00  0.00     0.002 C 
HETATM   24  C           1     -14.337  10.437 -17.857  0.00  0.00     0.005 C 
ENDBRANCH  21  23
ENDBRANCH  17  21
ENDBRANCH  15  17
ENDBRANCH   1  13
TORSDOF 10
ENDMDL
