MODEL 1
REMARK VINA RESULT:      -5.2      0.000      0.000
REMARK  8 active torsions:
REMARK  status: ('A' for Active; 'I' for Inactive)
REMARK    1  A    between atoms: C_1  and  C_9 
REMARK       I    between atoms: C_3  and  N_4 
REMARK    2  A    between atoms: C_3  and  C_15 
REMARK    3  A    between atoms: N_4  and  C_9 
REMARK    4  A    between atoms: O_8  and  C_10 
REMARK    5  A    between atoms: C_9  and  C_10 
REMARK    6  A    between atoms: S_13  and  C_14 
REMARK    7  A    between atoms: C_14  and  C_15 
REMARK    8  A    between atoms: C_15  and  N_16 
ROOT
HETATM    1  H           1     -22.196  -5.753  -9.397  0.00  0.00     0.163 HD
HETATM    2  C           1     -21.646  -4.549  -7.806  0.00  0.00     0.249 C 
HETATM    3  N           1     -22.139  -4.801  -9.058  0.00  0.00    -0.343 N 
HETATM    4  O           1     -21.577  -3.413  -7.401  0.00  0.00    -0.271 OA
ENDROOT
BRANCH   2   5
HETATM    5  C           1     -21.189  -5.690  -6.930  0.00  0.00     0.283 C 
BRANCH   5   6
HETATM    6  C           1     -20.937  -5.178  -5.519  0.00  0.00     0.113 C 
BRANCH   6   7
HETATM    7  S           1     -21.532  -6.399  -4.314  0.00  0.00    -0.180 SA
HETATM    8  H           1     -20.315  -6.777  -3.885  0.00  0.00     0.101 HD
ENDBRANCH   6   7
ENDBRANCH   5   6
BRANCH   5   9
HETATM    9  N           1     -19.922  -6.269  -7.486  0.00  0.00    -0.066 N 
HETATM   10  H           1     -20.155  -6.989  -8.207  0.00  0.00     0.275 HD
HETATM   11  H           1     -19.373  -6.713  -6.715  0.00  0.00     0.275 HD
HETATM   12  H           1     -19.354  -5.509  -7.924  0.00  0.00     0.275 HD
ENDBRANCH   5   9
ENDBRANCH   2   5
BRANCH   3  13
HETATM   13  C           1     -22.577  -3.704  -9.899  0.00  0.00     0.209 C 
BRANCH  13  14
HETATM   14  C           1     -24.043  -3.870 -10.216  0.00  0.00     0.198 C 
HETATM   15  O           1     -24.676  -2.935 -10.752  0.00  0.00    -0.646 OA
HETATM   16  O           1     -24.624  -4.943  -9.945  0.00  0.00    -0.646 OA
ENDBRANCH  13  14
BRANCH  13  17
HETATM   17  C           1     -21.774  -3.705 -11.193  0.00  0.00     0.200 C 
BRANCH  17  18
HETATM   18  O           1     -22.472  -4.419 -12.177  0.00  0.00    -0.398 OA
HETATM   19  H           1     -22.165  -5.308 -12.139  0.00  0.00     0.209 HD
ENDBRANCH  17  18
ENDBRANCH  13  17
ENDBRANCH   3  13
TORSDOF 8
ENDMDL
MODEL 2
REMARK VINA RESULT:      -4.9      9.759     11.125
REMARK  8 active torsions:
REMARK  status: ('A' for Active; 'I' for Inactive)
REMARK    1  A    between atoms: C_1  and  C_9 
REMARK       I    between atoms: C_3  and  N_4 
REMARK    2  A    between atoms: C_3  and  C_15 
REMARK    3  A    between atoms: N_4  and  C_9 
REMARK    4  A    between atoms: O_8  and  C_10 
REMARK    5  A    between atoms: C_9  and  C_10 
REMARK    6  A    between atoms: S_13  and  C_14 
REMARK    7  A    between atoms: C_14  and  C_15 
REMARK    8  A    between atoms: C_15  and  N_16 
ROOT
HETATM    1  H           1     -26.931  -7.432 -18.396  0.00  0.00     0.163 HD
HETATM    2  C           1     -27.628  -5.766 -17.384  0.00  0.00     0.249 C 
HETATM    3  N           1     -26.670  -6.642 -17.820  0.00  0.00    -0.343 N 
HETATM    4  O           1     -27.317  -4.823 -16.696  0.00  0.00    -0.271 OA
ENDROOT
BRANCH   2   5
HETATM    5  C           1     -29.074  -5.979 -17.763  0.00  0.00     0.283 C 
BRANCH   5   6
HETATM    6  C           1     -29.951  -5.815 -16.529  0.00  0.00     0.113 C 
BRANCH   6   7
HETATM    7  S           1     -31.292  -4.645 -16.890  0.00  0.00    -0.180 SA
HETATM    8  H           1     -30.510  -3.708 -17.456  0.00  0.00     0.101 HD
ENDBRANCH   6   7
ENDBRANCH   5   6
BRANCH   5   9
HETATM    9  N           1     -29.245  -7.361 -18.318  0.00  0.00    -0.066 N 
HETATM   10  H           1     -28.406  -7.938 -18.082  0.00  0.00     0.275 HD
HETATM   11  H           1     -29.351  -7.310 -19.356  0.00  0.00     0.275 HD
HETATM   12  H           1     -30.097  -7.801 -17.903  0.00  0.00     0.275 HD
ENDBRANCH   5   9
ENDBRANCH   2   5
BRANCH   3  13
HETATM   13  C           1     -25.282  -6.436 -17.455  0.00  0.00     0.209 C 
BRANCH  13  14
HETATM   14  C           1     -24.392  -6.928 -18.570  0.00  0.00     0.198 C 
HETATM   15  O           1     -24.894  -7.481 -19.573  0.00  0.00    -0.646 OA
HETATM   16  O           1     -23.153  -6.782 -18.492  0.00  0.00    -0.646 OA
ENDBRANCH  13  14
BRANCH  13  17
HETATM   17  C           1     -24.973  -7.210 -16.180  0.00  0.00     0.200 C 
BRANCH  17  18
HETATM   18  O           1     -24.285  -8.389 -16.501  0.00  0.00    -0.398 OA
HETATM   19  H           1     -23.960  -8.284 -17.379  0.00  0.00     0.209 HD
ENDBRANCH  17  18
ENDBRANCH  13  17
ENDBRANCH   3  13
TORSDOF 8
ENDMDL
MODEL 3
REMARK VINA RESULT:      -4.9     10.013     11.549
REMARK  8 active torsions:
REMARK  status: ('A' for Active; 'I' for Inactive)
REMARK    1  A    between atoms: C_1  and  C_9 
REMARK       I    between atoms: C_3  and  N_4 
REMARK    2  A    between atoms: C_3  and  C_15 
REMARK    3  A    between atoms: N_4  and  C_9 
REMARK    4  A    between atoms: O_8  and  C_10 
REMARK    5  A    between atoms: C_9  and  C_10 
REMARK    6  A    between atoms: S_13  and  C_14 
REMARK    7  A    between atoms: C_14  and  C_15 
REMARK    8  A    between atoms: C_15  and  N_16 
ROOT
HETATM    1  H           1     -27.357  -6.989 -18.637  0.00  0.00     0.163 HD
HETATM    2  C           1     -25.317  -6.869 -18.967  0.00  0.00     0.249 C 
HETATM    3  N           1     -26.475  -6.658 -18.268  0.00  0.00    -0.343 N 
HETATM    4  O           1     -24.265  -6.473 -18.526  0.00  0.00    -0.271 OA
ENDROOT
BRANCH   2   5
HETATM    5  C           1     -25.355  -7.597 -20.289  0.00  0.00     0.283 C 
BRANCH   5   6
HETATM    6  C           1     -24.737  -6.720 -21.369  0.00  0.00     0.113 C 
BRANCH   6   7
HETATM    7  S           1     -23.858  -7.763 -22.567  0.00  0.00    -0.180 SA
HETATM    8  H           1     -23.086  -6.781 -23.067  0.00  0.00     0.101 HD
ENDBRANCH   6   7
ENDBRANCH   5   6
BRANCH   5   9
HETATM    9  N           1     -26.779  -7.904 -20.648  0.00  0.00    -0.066 N 
HETATM   10  H           1     -26.817  -8.806 -21.175  0.00  0.00     0.275 HD
HETATM   11  H           1     -27.162  -7.136 -21.244  0.00  0.00     0.275 HD
HETATM   12  H           1     -27.348  -7.986 -19.776  0.00  0.00     0.275 HD
ENDBRANCH   5   9
ENDBRANCH   2   5
BRANCH   3  13
HETATM   13  C           1     -26.438  -5.958 -16.998  0.00  0.00     0.209 C 
BRANCH  13  14
HETATM   14  C           1     -26.398  -6.963 -15.873  0.00  0.00     0.198 C 
HETATM   15  O           1     -27.463  -7.423 -15.407  0.00  0.00    -0.646 OA
HETATM   16  O           1     -25.299  -7.336 -15.407  0.00  0.00    -0.646 OA
ENDBRANCH  13  14
BRANCH  13  17
HETATM   17  C           1     -27.682  -5.090 -16.860  0.00  0.00     0.200 C 
BRANCH  17  18
HETATM   18  O           1     -27.844  -4.712 -15.520  0.00  0.00    -0.398 OA
HETATM   19  H           1     -28.697  -4.320 -15.448  0.00  0.00     0.209 HD
ENDBRANCH  17  18
ENDBRANCH  13  17
ENDBRANCH   3  13
TORSDOF 8
ENDMDL
MODEL 4
REMARK VINA RESULT:      -4.8     10.362     11.728
REMARK  8 active torsions:
REMARK  status: ('A' for Active; 'I' for Inactive)
REMARK    1  A    between atoms: C_1  and  C_9 
REMARK       I    between atoms: C_3  and  N_4 
REMARK    2  A    between atoms: C_3  and  C_15 
REMARK    3  A    between atoms: N_4  and  C_9 
REMARK    4  A    between atoms: O_8  and  C_10 
REMARK    5  A    between atoms: C_9  and  C_10 
REMARK    6  A    between atoms: S_13  and  C_14 
REMARK    7  A    between atoms: C_14  and  C_15 
REMARK    8  A    between atoms: C_15  and  N_16 
ROOT
HETATM    1  H           1     -25.727  -6.568 -17.366  0.00  0.00     0.163 HD
HETATM    2  C           1     -26.502  -6.687 -19.282  0.00  0.00     0.249 C 
HETATM    3  N           1     -26.570  -6.521 -17.924  0.00  0.00    -0.343 N 
HETATM    4  O           1     -27.508  -6.632 -19.948  0.00  0.00    -0.271 OA
ENDROOT
BRANCH   2   5
HETATM    5  C           1     -25.170  -6.937 -19.946  0.00  0.00     0.283 C 
BRANCH   5   6
HETATM    6  C           1     -25.348  -7.940 -21.078  0.00  0.00     0.113 C 
BRANCH   6   7
HETATM    7  S           1     -23.916  -7.858 -22.191  0.00  0.00    -0.180 SA
HETATM    8  H           1     -24.617  -7.993 -23.331  0.00  0.00     0.101 HD
ENDBRANCH   6   7
ENDBRANCH   5   6
BRANCH   5   9
HETATM    9  N           1     -24.206  -7.488 -18.938  0.00  0.00    -0.066 N 
HETATM   10  H           1     -23.262  -7.584 -19.376  0.00  0.00     0.275 HD
HETATM   11  H           1     -24.536  -8.425 -18.614  0.00  0.00     0.275 HD
HETATM   12  H           1     -24.147  -6.839 -18.121  0.00  0.00     0.275 HD
ENDBRANCH   5   9
ENDBRANCH   2   5
BRANCH   3  13
HETATM   13  C           1     -27.850  -6.280 -17.287  0.00  0.00     0.209 C 
BRANCH  13  14
HETATM   14  C           1     -28.134  -4.798 -17.274  0.00  0.00     0.198 C 
HETATM   15  O           1     -27.557  -4.058 -16.448  0.00  0.00    -0.646 OA
HETATM   16  O           1     -28.945  -4.311 -18.091  0.00  0.00    -0.646 OA
ENDBRANCH  13  14
BRANCH  13  17
HETATM   17  C           1     -27.810  -6.802 -15.856  0.00  0.00     0.200 C 
BRANCH  17  18
HETATM   18  O           1     -26.591  -7.457 -15.630  0.00  0.00    -0.398 OA
HETATM   19  H           1     -25.914  -6.807 -15.704  0.00  0.00     0.209 HD
ENDBRANCH  17  18
ENDBRANCH  13  17
ENDBRANCH   3  13
TORSDOF 8
ENDMDL
MODEL 5
REMARK VINA RESULT:      -4.7     10.940     11.984
REMARK  8 active torsions:
REMARK  status: ('A' for Active; 'I' for Inactive)
REMARK    1  A    between atoms: C_1  and  C_9 
REMARK       I    between atoms: C_3  and  N_4 
REMARK    2  A    between atoms: C_3  and  C_15 
REMARK    3  A    between atoms: N_4  and  C_9 
REMARK    4  A    between atoms: O_8  and  C_10 
REMARK    5  A    between atoms: C_9  and  C_10 
REMARK    6  A    between atoms: S_13  and  C_14 
REMARK    7  A    between atoms: C_14  and  C_15 
REMARK    8  A    between atoms: C_15  and  N_16 
ROOT
HETATM    1  H           1     -27.951  -6.766 -19.497  0.00  0.00     0.163 HD
HETATM    2  C           1     -26.363  -6.399 -18.222  0.00  0.00     0.249 C 
HETATM    3  N           1     -27.686  -6.523 -18.551  0.00  0.00    -0.343 N 
HETATM    4  O           1     -26.046  -6.108 -17.093  0.00  0.00    -0.271 OA
ENDROOT
BRANCH   2   5
HETATM    5  C           1     -25.300  -6.625 -19.269  0.00  0.00     0.283 C 
BRANCH   5   6
HETATM    6  C           1     -25.928  -7.259 -20.502  0.00  0.00     0.113 C 
BRANCH   6   7
HETATM    7  S           1     -24.619  -7.852 -21.612  0.00  0.00    -0.180 SA
HETATM    8  H           1     -25.193  -7.419 -22.749  0.00  0.00     0.101 HD
ENDBRANCH   6   7
ENDBRANCH   5   6
BRANCH   5   9
HETATM    9  N           1     -24.245  -7.539 -18.719  0.00  0.00    -0.066 N 
HETATM   10  H           1     -23.934  -8.200 -19.466  0.00  0.00     0.275 HD
HETATM   11  H           1     -24.636  -8.080 -17.915  0.00  0.00     0.275 HD
HETATM   12  H           1     -23.429  -6.973 -18.394  0.00  0.00     0.275 HD
ENDBRANCH   5   9
ENDBRANCH   2   5
BRANCH   3  13
HETATM   13  C           1     -28.707  -6.306 -17.545  0.00  0.00     0.209 C 
BRANCH  13  14
HETATM   14  C           1     -29.929  -7.124 -17.884  0.00  0.00     0.198 C 
HETATM   15  O           1     -31.060  -6.738 -17.519  0.00  0.00    -0.646 OA
HETATM   16  O           1     -29.809  -8.187 -18.532  0.00  0.00    -0.646 OA
ENDBRANCH  13  14
BRANCH  13  17
HETATM   17  C           1     -29.078  -4.829 -17.510  0.00  0.00     0.200 C 
BRANCH  17  18
HETATM   18  O           1     -29.501  -4.421 -18.783  0.00  0.00    -0.398 OA
HETATM   19  H           1     -28.731  -4.367 -19.322  0.00  0.00     0.209 HD
ENDBRANCH  17  18
ENDBRANCH  13  17
ENDBRANCH   3  13
TORSDOF 8
ENDMDL
MODEL 6
REMARK VINA RESULT:      -4.6      1.875      2.433
REMARK  8 active torsions:
REMARK  status: ('A' for Active; 'I' for Inactive)
REMARK    1  A    between atoms: C_1  and  C_9 
REMARK       I    between atoms: C_3  and  N_4 
REMARK    2  A    between atoms: C_3  and  C_15 
REMARK    3  A    between atoms: N_4  and  C_9 
REMARK    4  A    between atoms: O_8  and  C_10 
REMARK    5  A    between atoms: C_9  and  C_10 
REMARK    6  A    between atoms: S_13  and  C_14 
REMARK    7  A    between atoms: C_14  and  C_15 
REMARK    8  A    between atoms: C_15  and  N_16 
ROOT
HETATM    1  H           1     -23.435  -3.797  -8.992  0.00  0.00     0.163 HD
HETATM    2  C           1     -21.784  -4.788  -8.233  0.00  0.00     0.249 C 
HETATM    3  N           1     -22.617  -4.345  -9.225  0.00  0.00    -0.343 N 
HETATM    4  O           1     -20.808  -5.443  -8.511  0.00  0.00    -0.271 OA
ENDROOT
BRANCH   2   5
HETATM    5  C           1     -22.085  -4.458  -6.791  0.00  0.00     0.283 C 
BRANCH   5   6
HETATM    6  C           1     -21.138  -5.231  -5.884  0.00  0.00     0.113 C 
BRANCH   6   7
HETATM    7  S           1     -22.052  -6.551  -5.037  0.00  0.00    -0.180 SA
HETATM    8  H           1     -21.827  -7.497  -5.968  0.00  0.00     0.101 HD
ENDBRANCH   6   7
ENDBRANCH   5   6
BRANCH   5   9
HETATM    9  N           1     -23.501  -4.840  -6.477  0.00  0.00    -0.066 N 
HETATM   10  H           1     -24.124  -4.011  -6.612  0.00  0.00     0.275 HD
HETATM   11  H           1     -23.564  -5.164  -5.486  0.00  0.00     0.275 HD
HETATM   12  H           1     -23.804  -5.611  -7.115  0.00  0.00     0.275 HD
ENDBRANCH   5   9
ENDBRANCH   2   5
BRANCH   3  13
HETATM   13  C           1     -22.327  -4.663 -10.610  0.00  0.00     0.209 C 
BRANCH  13  14
HETATM   14  C           1     -21.482  -3.567 -11.210  0.00  0.00     0.198 C 
HETATM   15  O           1     -20.250  -3.730 -11.346  0.00  0.00    -0.646 OA
HETATM   16  O           1     -22.014  -2.496 -11.574  0.00  0.00    -0.646 OA
ENDBRANCH  13  14
BRANCH  13  17
HETATM   17  C           1     -23.632  -4.782 -11.387  0.00  0.00     0.200 C 
BRANCH  17  18
HETATM   18  O           1     -23.364  -4.745 -12.762  0.00  0.00    -0.398 OA
HETATM   19  H           1     -23.139  -3.855 -12.972  0.00  0.00     0.209 HD
ENDBRANCH  17  18
ENDBRANCH  13  17
ENDBRANCH   3  13
TORSDOF 8
ENDMDL
MODEL 7
REMARK VINA RESULT:      -4.5      9.473     11.047
REMARK  8 active torsions:
REMARK  status: ('A' for Active; 'I' for Inactive)
REMARK    1  A    between atoms: C_1  and  C_9 
REMARK       I    between atoms: C_3  and  N_4 
REMARK    2  A    between atoms: C_3  and  C_15 
REMARK    3  A    between atoms: N_4  and  C_9 
REMARK    4  A    between atoms: O_8  and  C_10 
REMARK    5  A    between atoms: C_9  and  C_10 
REMARK    6  A    between atoms: S_13  and  C_14 
REMARK    7  A    between atoms: C_14  and  C_15 
REMARK    8  A    between atoms: C_15  and  N_16 
ROOT
HETATM    1  H           1     -26.873  -4.763 -17.698  0.00  0.00     0.163 HD
HETATM    2  C           1     -28.441  -5.954 -17.060  0.00  0.00     0.249 C 
HETATM    3  N           1     -27.143  -5.696 -17.412  0.00  0.00    -0.343 N 
HETATM    4  O           1     -28.764  -7.068 -16.720  0.00  0.00    -0.271 OA
ENDROOT
BRANCH   2   5
HETATM    5  C           1     -29.468  -4.849 -17.095  0.00  0.00     0.283 C 
BRANCH   5   6
HETATM    6  C           1     -30.842  -5.422 -16.776  0.00  0.00     0.113 C 
BRANCH   6   7
HETATM    7  S           1     -32.114  -4.172 -17.117  0.00  0.00    -0.180 SA
HETATM    8  H           1     -32.078  -3.600 -15.900  0.00  0.00     0.101 HD
ENDBRANCH   6   7
ENDBRANCH   5   6
BRANCH   5   9
HETATM    9  N           1     -29.489  -4.231 -18.461  0.00  0.00    -0.066 N 
HETATM   10  H           1     -28.529  -4.267 -18.874  0.00  0.00     0.275 HD
HETATM   11  H           1     -29.800  -3.236 -18.390  0.00  0.00     0.275 HD
HETATM   12  H           1     -30.151  -4.760 -19.073  0.00  0.00     0.275 HD
ENDBRANCH   5   9
ENDBRANCH   2   5
BRANCH   3  13
HETATM   13  C           1     -26.158  -6.758 -17.378  0.00  0.00     0.209 C 
BRANCH  13  14
HETATM   14  C           1     -25.333  -6.639 -16.120  0.00  0.00     0.198 C 
HETATM   15  O           1     -24.932  -5.517 -15.740  0.00  0.00    -0.646 OA
HETATM   16  O           1     -25.053  -7.661 -15.457  0.00  0.00    -0.646 OA
ENDBRANCH  13  14
BRANCH  13  17
HETATM   17  C           1     -25.248  -6.645 -18.595  0.00  0.00     0.200 C 
BRANCH  17  18
HETATM   18  O           1     -23.909  -6.727 -18.188  0.00  0.00    -0.398 OA
HETATM   19  H           1     -23.496  -5.919 -18.440  0.00  0.00     0.209 HD
ENDBRANCH  17  18
ENDBRANCH  13  17
ENDBRANCH   3  13
TORSDOF 8
ENDMDL
MODEL 8
REMARK VINA RESULT:      -4.4      3.150      5.125
REMARK  8 active torsions:
REMARK  status: ('A' for Active; 'I' for Inactive)
REMARK    1  A    between atoms: C_1  and  C_9 
REMARK       I    between atoms: C_3  and  N_4 
REMARK    2  A    between atoms: C_3  and  C_15 
REMARK    3  A    between atoms: N_4  and  C_9 
REMARK    4  A    between atoms: O_8  and  C_10 
REMARK    5  A    between atoms: C_9  and  C_10 
REMARK    6  A    between atoms: S_13  and  C_14 
REMARK    7  A    between atoms: C_14  and  C_15 
REMARK    8  A    between atoms: C_15  and  N_16 
ROOT
HETATM    1  H           1     -22.125  -4.281  -7.994  0.00  0.00     0.163 HD
HETATM    2  C           1     -20.975  -4.422  -9.709  0.00  0.00     0.249 C 
HETATM    3  N           1     -21.291  -4.682  -8.402  0.00  0.00    -0.343 N 
HETATM    4  O           1     -19.979  -4.900 -10.196  0.00  0.00    -0.271 OA
ENDROOT
BRANCH   2   5
HETATM    5  C           1     -21.873  -3.539 -10.541  0.00  0.00     0.283 C 
BRANCH   5   6
HETATM    6  C           1     -23.167  -4.278 -10.852  0.00  0.00     0.113 C 
BRANCH   6   7
HETATM    7  S           1     -24.537  -3.511  -9.940  0.00  0.00    -0.180 SA
HETATM    8  H           1     -23.903  -2.352  -9.684  0.00  0.00     0.101 HD
ENDBRANCH   6   7
ENDBRANCH   5   6
BRANCH   5   9
HETATM    9  N           1     -21.177  -3.189 -11.823  0.00  0.00    -0.066 N 
HETATM   10  H           1     -20.881  -2.187 -11.796  0.00  0.00     0.275 HD
HETATM   11  H           1     -21.830  -3.338 -12.626  0.00  0.00     0.275 HD
HETATM   12  H           1     -20.336  -3.798 -11.941  0.00  0.00     0.275 HD
ENDBRANCH   5   9
ENDBRANCH   2   5
BRANCH   3  13
HETATM   13  C           1     -20.428  -5.530  -7.603  0.00  0.00     0.209 C 
BRANCH  13  14
HETATM   14  C           1     -21.255  -6.259  -6.573  0.00  0.00     0.198 C 
HETATM   15  O           1     -20.957  -7.428  -6.245  0.00  0.00    -0.646 OA
HETATM   16  O           1     -22.238  -5.693  -6.047  0.00  0.00    -0.646 OA
ENDBRANCH  13  14
BRANCH  13  17
HETATM   17  C           1     -19.382  -4.673  -6.901  0.00  0.00     0.200 C 
BRANCH  17  18
HETATM   18  O           1     -19.715  -4.544  -5.546  0.00  0.00    -0.398 OA
HETATM   19  H           1     -19.212  -5.189  -5.079  0.00  0.00     0.209 HD
ENDBRANCH  17  18
ENDBRANCH  13  17
ENDBRANCH   3  13
TORSDOF 8
ENDMDL
MODEL 9
REMARK VINA RESULT:      -4.4      1.332      2.101
REMARK  8 active torsions:
REMARK  status: ('A' for Active; 'I' for Inactive)
REMARK    1  A    between atoms: C_1  and  C_9 
REMARK       I    between atoms: C_3  and  N_4 
REMARK    2  A    between atoms: C_3  and  C_15 
REMARK    3  A    between atoms: N_4  and  C_9 
REMARK    4  A    between atoms: O_8  and  C_10 
REMARK    5  A    between atoms: C_9  and  C_10 
REMARK    6  A    between atoms: S_13  and  C_14 
REMARK    7  A    between atoms: C_14  and  C_15 
REMARK    8  A    between atoms: C_15  and  N_16 
ROOT
HETATM    1  H           1     -21.143  -4.755 -10.130  0.00  0.00     0.163 HD
HETATM    2  C           1     -21.927  -4.719  -8.215  0.00  0.00     0.249 C 
HETATM    3  N           1     -21.992  -4.700  -9.583  0.00  0.00    -0.343 N 
HETATM    4  O           1     -22.941  -4.653  -7.561  0.00  0.00    -0.271 OA
ENDROOT
BRANCH   2   5
HETATM    5  C           1     -20.590  -4.821  -7.524  0.00  0.00     0.283 C 
BRANCH   5   6
HETATM    6  C           1     -20.758  -4.510  -6.043  0.00  0.00     0.113 C 
BRANCH   6   7
HETATM    7  S           1     -20.867  -6.061  -5.106  0.00  0.00    -0.180 SA
HETATM    8  H           1     -21.321  -5.505  -3.968  0.00  0.00     0.101 HD
ENDBRANCH   6   7
ENDBRANCH   5   6
BRANCH   5   9
HETATM    9  N           1     -19.636  -3.839  -8.136  0.00  0.00    -0.066 N 
HETATM   10  H           1     -18.853  -3.653  -7.469  0.00  0.00     0.275 HD
HETATM   11  H           1     -20.138  -2.946  -8.341  0.00  0.00     0.275 HD
HETATM   12  H           1     -19.251  -4.233  -9.023  0.00  0.00     0.275 HD
ENDBRANCH   5   9
ENDBRANCH   2   5
BRANCH   3  13
HETATM   13  C           1     -23.278  -4.602 -10.246  0.00  0.00     0.209 C 
BRANCH  13  14
HETATM   14  C           1     -23.071  -4.576 -11.740  0.00  0.00     0.198 C 
HETATM   15  O           1     -23.977  -4.976 -12.504  0.00  0.00    -0.646 OA
HETATM   16  O           1     -21.995  -4.153 -12.215  0.00  0.00    -0.646 OA
ENDBRANCH  13  14
BRANCH  13  17
HETATM   17  C           1     -23.978  -3.322  -9.807  0.00  0.00     0.200 C 
BRANCH  17  18
HETATM   18  O           1     -25.098  -3.098 -10.620  0.00  0.00    -0.398 OA
HETATM   19  H           1     -25.749  -2.685 -10.081  0.00  0.00     0.209 HD
ENDBRANCH  17  18
ENDBRANCH  13  17
ENDBRANCH   3  13
TORSDOF 8
ENDMDL
