MODEL 1
REMARK VINA RESULT:      -7.0      0.000      0.000
REMARK  10 active torsions:
REMARK  status: ('A' for Active; 'I' for Inactive)
REMARK    1  A    between atoms: C_2  and  C_9 
REMARK    2  A    between atoms: C_9  and  C_10 
REMARK    3  A    between atoms: C_9  and  N_17 
REMARK    4  A    between atoms: C_10  and  C_11 
REMARK       I    between atoms: N_17  and  C_18 
REMARK    5  A    between atoms: C_18  and  C_19 
REMARK    6  A    between atoms: C_19  and  C_20 
REMARK    7  A    between atoms: C_19  and  N_26 
REMARK    8  A    between atoms: C_20  and  O_21 
REMARK    9  A    between atoms: O_21  and  P_22 
REMARK   10  A    between atoms: P_22  and  O_23 
ROOT
HETATM    1  H           1     -20.017  -7.553  -7.517  0.00  0.00     0.163 HD
HETATM    2  N           1     -20.054  -6.912  -6.734  0.00  0.00    -0.344 N 
HETATM    3  C           1     -20.150  -5.564  -6.957  0.00  0.00     0.251 C 
HETATM    4  O           1     -19.149  -4.898  -7.064  0.00  0.00    -0.271 OA
ENDROOT
BRANCH   3   5
HETATM    5  C           1     -21.507  -4.913  -7.067  0.00  0.00     0.298 C 
BRANCH   5   6
HETATM    6  C           1     -21.919  -4.844  -8.533  0.00  0.00     0.224 C 
BRANCH   6   7
HETATM    7  O           1     -22.848  -3.810  -8.709  0.00  0.00    -0.287 OA
BRANCH   7   8
HETATM    8  P           1     -23.687  -3.839 -10.088  0.00  0.00     0.406 P 
HETATM    9  O           1     -22.895  -3.197 -11.162  0.00  0.00    -0.624 OA
HETATM   10  O           1     -23.976  -5.243 -10.460  0.00  0.00    -0.624 OA
BRANCH   8  11
HETATM   11  O           1     -25.075  -3.038  -9.893  0.00  0.00    -0.300 OA
HETATM   12  H           1     -25.519  -3.112 -10.720  0.00  0.00     0.223 HD
ENDBRANCH   8  11
ENDBRANCH   7   8
ENDBRANCH   6   7
ENDBRANCH   5   6
BRANCH   5  13
HETATM   13  N           1     -21.443  -3.526  -6.501  0.00  0.00    -0.064 N 
HETATM   14  H           1     -21.411  -2.832  -7.281  0.00  0.00     0.275 HD
HETATM   15  H           1     -22.290  -3.351  -5.914  0.00  0.00     0.275 HD
HETATM   16  H           1     -20.585  -3.430  -5.913  0.00  0.00     0.275 HD
ENDBRANCH   5  13
ENDBRANCH   3   5
BRANCH   2  17
HETATM   17  C           1     -20.006  -7.420  -5.377  0.00  0.00     0.189 C 
BRANCH  17  18
HETATM   18  C           1     -18.994  -8.537  -5.295  0.00  0.00     0.197 C 
HETATM   19  O           1     -18.506  -9.016  -6.342  0.00  0.00    -0.646 OA
HETATM   20  O           1     -18.644  -8.983  -4.182  0.00  0.00    -0.646 OA
ENDBRANCH  17  18
BRANCH  17  21
HETATM   21  C           1     -21.379  -7.950  -4.985  0.00  0.00     0.074 C 
BRANCH  21  22
HETATM   22  C           1     -21.643  -7.635  -3.545  0.00  0.00    -0.056 A 
HETATM   23  C           1     -21.658  -8.660  -2.599  0.00  0.00     0.007 A 
HETATM   24  C           1     -21.903  -8.367  -1.257  0.00  0.00     0.001 A 
HETATM   25  C           1     -22.133  -7.049  -0.862  0.00  0.00     0.000 A 
HETATM   26  C           1     -22.117  -6.025  -1.808  0.00  0.00     0.001 A 
HETATM   27  C           1     -21.872  -6.317  -3.150  0.00  0.00     0.007 A 
ENDBRANCH  21  22
ENDBRANCH  17  21
ENDBRANCH   2  17
TORSDOF 10
ENDMDL
MODEL 2
REMARK VINA RESULT:      -6.9      3.808      7.446
REMARK  10 active torsions:
REMARK  status: ('A' for Active; 'I' for Inactive)
REMARK    1  A    between atoms: C_2  and  C_9 
REMARK    2  A    between atoms: C_9  and  C_10 
REMARK    3  A    between atoms: C_9  and  N_17 
REMARK    4  A    between atoms: C_10  and  C_11 
REMARK       I    between atoms: N_17  and  C_18 
REMARK    5  A    between atoms: C_18  and  C_19 
REMARK    6  A    between atoms: C_19  and  C_20 
REMARK    7  A    between atoms: C_19  and  N_26 
REMARK    8  A    between atoms: C_20  and  O_21 
REMARK    9  A    between atoms: O_21  and  P_22 
REMARK   10  A    between atoms: P_22  and  O_23 
ROOT
HETATM    1  H           1     -23.251  -5.457  -5.476  0.00  0.00     0.163 HD
HETATM    2  N           1     -22.300  -5.788  -5.580  0.00  0.00    -0.344 N 
HETATM    3  C           1     -21.687  -6.446  -4.547  0.00  0.00     0.251 C 
HETATM    4  O           1     -21.059  -5.823  -3.723  0.00  0.00    -0.271 OA
ENDROOT
BRANCH   3   5
HETATM    5  C           1     -21.797  -7.947  -4.437  0.00  0.00     0.298 C 
BRANCH   5   6
HETATM    6  C           1     -21.053  -8.421  -3.195  0.00  0.00     0.224 C 
BRANCH   6   7
HETATM    7  O           1     -21.970  -8.938  -2.270  0.00  0.00    -0.287 OA
BRANCH   7   8
HETATM    8  P           1     -22.089  -8.141  -0.870  0.00  0.00     0.406 P 
HETATM    9  O           1     -23.080  -8.816  -0.001  0.00  0.00    -0.624 OA
HETATM   10  O           1     -20.771  -8.126  -0.197  0.00  0.00    -0.624 OA
BRANCH   8  11
HETATM   11  O           1     -22.568  -6.625  -1.152  0.00  0.00    -0.300 OA
HETATM   12  H           1     -21.781  -6.159  -1.378  0.00  0.00     0.223 HD
ENDBRANCH   8  11
ENDBRANCH   7   8
ENDBRANCH   6   7
ENDBRANCH   5   6
BRANCH   5  13
HETATM   13  N           1     -21.192  -8.581  -5.653  0.00  0.00    -0.064 N 
HETATM   14  H           1     -21.939  -9.060  -6.206  0.00  0.00     0.275 HD
HETATM   15  H           1     -20.742  -7.844  -6.243  0.00  0.00     0.275 HD
HETATM   16  H           1     -20.474  -9.281  -5.360  0.00  0.00     0.275 HD
ENDBRANCH   5  13
ENDBRANCH   3   5
BRANCH   2  17
HETATM   17  C           1     -21.586  -5.567  -6.822  0.00  0.00     0.189 C 
BRANCH  17  18
HETATM   18  C           1     -20.100  -5.600  -6.559  0.00  0.00     0.197 C 
HETATM   19  O           1     -19.444  -6.636  -6.806  0.00  0.00    -0.646 OA
HETATM   20  O           1     -19.524  -4.593  -6.094  0.00  0.00    -0.646 OA
ENDBRANCH  17  18
BRANCH  17  21
HETATM   21  C           1     -21.970  -4.209  -7.393  0.00  0.00     0.074 C 
BRANCH  21  22
HETATM   22  C           1     -21.908  -4.260  -8.888  0.00  0.00    -0.056 A 
HETATM   23  C           1     -20.696  -4.047  -9.543  0.00  0.00     0.007 A 
HETATM   24  C           1     -20.638  -4.096 -10.937  0.00  0.00     0.001 A 
HETATM   25  C           1     -21.793  -4.358 -11.674  0.00  0.00     0.000 A 
HETATM   26  C           1     -23.004  -4.572 -11.019  0.00  0.00     0.001 A 
HETATM   27  C           1     -23.063  -4.523  -9.625  0.00  0.00     0.007 A 
ENDBRANCH  21  22
ENDBRANCH  17  21
ENDBRANCH   2  17
TORSDOF 10
ENDMDL
MODEL 3
REMARK VINA RESULT:      -6.6     12.689     15.333
REMARK  10 active torsions:
REMARK  status: ('A' for Active; 'I' for Inactive)
REMARK    1  A    between atoms: C_2  and  C_9 
REMARK    2  A    between atoms: C_9  and  C_10 
REMARK    3  A    between atoms: C_9  and  N_17 
REMARK    4  A    between atoms: C_10  and  C_11 
REMARK       I    between atoms: N_17  and  C_18 
REMARK    5  A    between atoms: C_18  and  C_19 
REMARK    6  A    between atoms: C_19  and  C_20 
REMARK    7  A    between atoms: C_19  and  N_26 
REMARK    8  A    between atoms: C_20  and  O_21 
REMARK    9  A    between atoms: O_21  and  P_22 
REMARK   10  A    between atoms: P_22  and  O_23 
ROOT
HETATM    1  H           1     -29.242  -7.033 -15.855  0.00  0.00     0.163 HD
HETATM    2  N           1     -29.159  -6.544 -16.737  0.00  0.00    -0.344 N 
HETATM    3  C           1     -30.276  -6.037 -17.346  0.00  0.00     0.251 C 
HETATM    4  O           1     -30.899  -6.716 -18.127  0.00  0.00    -0.271 OA
ENDROOT
BRANCH   3   5
HETATM    5  C           1     -30.728  -4.630 -17.041  0.00  0.00     0.298 C 
BRANCH   5   6
HETATM    6  C           1     -32.249  -4.592 -16.957  0.00  0.00     0.224 C 
BRANCH   6   7
HETATM    7  O           1     -32.637  -4.234 -15.659  0.00  0.00    -0.287 OA
BRANCH   7   8
HETATM    8  P           1     -34.218  -3.998 -15.433  0.00  0.00     0.406 P 
HETATM    9  O           1     -34.456  -3.550 -14.042  0.00  0.00    -0.624 OA
HETATM   10  O           1     -34.702  -2.963 -16.375  0.00  0.00    -0.624 OA
BRANCH   8  11
HETATM   11  O           1     -35.013  -5.379 -15.696  0.00  0.00    -0.300 OA
HETATM   12  H           1     -35.131  -5.418 -16.630  0.00  0.00     0.223 HD
ENDBRANCH   8  11
ENDBRANCH   7   8
ENDBRANCH   6   7
ENDBRANCH   5   6
BRANCH   5  13
HETATM   13  N           1     -30.265  -3.710 -18.131  0.00  0.00    -0.064 N 
HETATM   14  H           1     -29.222  -3.738 -18.192  0.00  0.00     0.275 HD
HETATM   15  H           1     -30.676  -4.016 -19.042  0.00  0.00     0.275 HD
HETATM   16  H           1     -30.575  -2.735 -17.919  0.00  0.00     0.275 HD
ENDBRANCH   5  13
ENDBRANCH   3   5
BRANCH   2  17
HETATM   17  C           1     -27.859  -6.380 -17.358  0.00  0.00     0.189 C 
BRANCH  17  18
HETATM   18  C           1     -27.078  -5.324 -16.614  0.00  0.00     0.197 C 
HETATM   19  O           1     -25.974  -5.609 -16.100  0.00  0.00    -0.646 OA
HETATM   20  O           1     -27.534  -4.165 -16.512  0.00  0.00    -0.646 OA
ENDBRANCH  17  18
BRANCH  17  21
HETATM   21  C           1     -28.039  -5.951 -18.807  0.00  0.00     0.074 C 
BRANCH  21  22
HETATM   22  C           1     -27.090  -6.717 -19.677  0.00  0.00    -0.056 A 
HETATM   23  C           1     -25.725  -6.436 -19.635  0.00  0.00     0.007 A 
HETATM   24  C           1     -24.841  -7.150 -20.444  0.00  0.00     0.001 A 
HETATM   25  C           1     -25.323  -8.145 -21.294  0.00  0.00     0.000 A 
HETATM   26  C           1     -26.687  -8.427 -21.335  0.00  0.00     0.001 A 
HETATM   27  C           1     -27.572  -7.713 -20.526  0.00  0.00     0.007 A 
ENDBRANCH  21  22
ENDBRANCH  17  21
ENDBRANCH   2  17
TORSDOF 10
ENDMDL
MODEL 4
REMARK VINA RESULT:      -6.6      4.037      7.032
REMARK  10 active torsions:
REMARK  status: ('A' for Active; 'I' for Inactive)
REMARK    1  A    between atoms: C_2  and  C_9 
REMARK    2  A    between atoms: C_9  and  C_10 
REMARK    3  A    between atoms: C_9  and  N_17 
REMARK    4  A    between atoms: C_10  and  C_11 
REMARK       I    between atoms: N_17  and  C_18 
REMARK    5  A    between atoms: C_18  and  C_19 
REMARK    6  A    between atoms: C_19  and  C_20 
REMARK    7  A    between atoms: C_19  and  N_26 
REMARK    8  A    between atoms: C_20  and  O_21 
REMARK    9  A    between atoms: O_21  and  P_22 
REMARK   10  A    between atoms: P_22  and  O_23 
ROOT
HETATM    1  H           1     -21.865  -8.785  -4.433  0.00  0.00     0.163 HD
HETATM    2  N           1     -21.564  -7.829  -4.573  0.00  0.00    -0.344 N 
HETATM    3  C           1     -22.063  -6.830  -3.782  0.00  0.00     0.251 C 
HETATM    4  O           1     -23.067  -6.243  -4.111  0.00  0.00    -0.271 OA
ENDROOT
BRANCH   3   5
HETATM    5  C           1     -21.360  -6.463  -2.498  0.00  0.00     0.298 C 
BRANCH   5   6
HETATM    6  C           1     -20.983  -7.733  -1.745  0.00  0.00     0.224 C 
BRANCH   6   7
HETATM    7  O           1     -22.114  -8.548  -1.604  0.00  0.00    -0.287 OA
BRANCH   7   8
HETATM    8  P           1     -22.600  -8.830  -0.090  0.00  0.00     0.406 P 
HETATM    9  O           1     -23.296 -10.134  -0.031  0.00  0.00    -0.624 OA
HETATM   10  O           1     -21.424  -8.855   0.808  0.00  0.00    -0.624 OA
BRANCH   8  11
HETATM   11  O           1     -23.610  -7.660   0.378  0.00  0.00    -0.300 OA
HETATM   12  H           1     -23.053  -6.955   0.660  0.00  0.00     0.223 HD
ENDBRANCH   8  11
ENDBRANCH   7   8
ENDBRANCH   6   7
ENDBRANCH   5   6
BRANCH   5  13
HETATM   13  N           1     -22.275  -5.633  -1.648  0.00  0.00    -0.064 N 
HETATM   14  H           1     -22.881  -6.260  -1.072  0.00  0.00     0.275 HD
HETATM   15  H           1     -21.705  -5.025  -1.016  0.00  0.00     0.275 HD
HETATM   16  H           1     -22.873  -5.035  -2.261  0.00  0.00     0.275 HD
ENDBRANCH   5  13
ENDBRANCH   3   5
BRANCH   2  17
HETATM   17  C           1     -20.604  -7.516  -5.614  0.00  0.00     0.189 C 
BRANCH  17  18
HETATM   18  C           1     -19.349  -8.327  -5.399  0.00  0.00     0.197 C 
HETATM   19  O           1     -18.575  -8.547  -6.357  0.00  0.00    -0.646 OA
HETATM   20  O           1     -19.082  -8.778  -4.264  0.00  0.00    -0.646 OA
ENDBRANCH  17  18
BRANCH  17  21
HETATM   21  C           1     -20.264  -6.033  -5.562  0.00  0.00     0.074 C 
BRANCH  21  22
HETATM   22  C           1     -20.664  -5.383  -6.851  0.00  0.00    -0.056 A 
HETATM   23  C           1     -19.759  -5.323  -7.910  0.00  0.00     0.007 A 
HETATM   24  C           1     -20.132  -4.718  -9.112  0.00  0.00     0.001 A 
HETATM   25  C           1     -21.409  -4.175  -9.252  0.00  0.00     0.000 A 
HETATM   26  C           1     -22.313  -4.237  -8.193  0.00  0.00     0.001 A 
HETATM   27  C           1     -21.942  -4.841  -6.992  0.00  0.00     0.007 A 
ENDBRANCH  21  22
ENDBRANCH  17  21
ENDBRANCH   2  17
TORSDOF 10
ENDMDL
MODEL 5
REMARK VINA RESULT:      -6.6      2.289      3.376
REMARK  10 active torsions:
REMARK  status: ('A' for Active; 'I' for Inactive)
REMARK    1  A    between atoms: C_2  and  C_9 
REMARK    2  A    between atoms: C_9  and  C_10 
REMARK    3  A    between atoms: C_9  and  N_17 
REMARK    4  A    between atoms: C_10  and  C_11 
REMARK       I    between atoms: N_17  and  C_18 
REMARK    5  A    between atoms: C_18  and  C_19 
REMARK    6  A    between atoms: C_19  and  C_20 
REMARK    7  A    between atoms: C_19  and  N_26 
REMARK    8  A    between atoms: C_20  and  O_21 
REMARK    9  A    between atoms: O_21  and  P_22 
REMARK   10  A    between atoms: P_22  and  O_23 
ROOT
HETATM    1  H           1     -19.745  -7.058  -7.122  0.00  0.00     0.163 HD
HETATM    2  N           1     -20.543  -6.611  -6.689  0.00  0.00    -0.344 N 
HETATM    3  C           1     -20.830  -5.302  -6.968  0.00  0.00     0.251 C 
HETATM    4  O           1     -20.353  -4.422  -6.292  0.00  0.00    -0.271 OA
ENDROOT
BRANCH   3   5
HETATM    5  C           1     -21.741  -4.960  -8.121  0.00  0.00     0.298 C 
BRANCH   5   6
HETATM    6  C           1     -20.965  -4.164  -9.163  0.00  0.00     0.224 C 
BRANCH   6   7
HETATM    7  O           1     -21.126  -4.759 -10.422  0.00  0.00    -0.287 OA
BRANCH   7   8
HETATM    8  P           1     -22.307  -4.157 -11.343  0.00  0.00     0.406 P 
HETATM    9  O           1     -23.378  -5.168 -11.496  0.00  0.00    -0.624 OA
HETATM   10  O           1     -22.862  -2.943 -10.704  0.00  0.00    -0.624 OA
BRANCH   8  11
HETATM   11  O           1     -21.716  -3.778 -12.798  0.00  0.00    -0.300 OA
HETATM   12  H           1     -20.929  -3.291 -12.622  0.00  0.00     0.223 HD
ENDBRANCH   8  11
ENDBRANCH   7   8
ENDBRANCH   6   7
ENDBRANCH   5   6
BRANCH   5  13
HETATM   13  N           1     -22.891  -4.138  -7.621  0.00  0.00    -0.064 N 
HETATM   14  H           1     -22.527  -3.299  -7.115  0.00  0.00     0.275 HD
HETATM   15  H           1     -23.476  -3.828  -8.431  0.00  0.00     0.275 HD
HETATM   16  H           1     -23.473  -4.712  -6.970  0.00  0.00     0.275 HD
ENDBRANCH   5  13
ENDBRANCH   3   5
BRANCH   2  17
HETATM   17  C           1     -21.383  -7.357  -5.772  0.00  0.00     0.189 C 
BRANCH  17  18
HETATM   18  C           1     -22.134  -6.395  -4.884  0.00  0.00     0.197 C 
HETATM   19  O           1     -23.288  -6.027  -5.197  0.00  0.00    -0.646 OA
HETATM   20  O           1     -21.604  -5.965  -3.838  0.00  0.00    -0.646 OA
ENDBRANCH  17  18
BRANCH  17  21
HETATM   21  C           1     -20.515  -8.266  -4.913  0.00  0.00     0.074 C 
BRANCH  21  22
HETATM   22  C           1     -21.197  -9.587  -4.736  0.00  0.00    -0.056 A 
HETATM   23  C           1     -21.957  -9.831  -3.592  0.00  0.00     0.007 A 
HETATM   24  C           1     -22.594 -11.062  -3.427  0.00  0.00     0.001 A 
HETATM   25  C           1     -22.470 -12.048  -4.407  0.00  0.00     0.000 A 
HETATM   26  C           1     -21.712 -11.803  -5.550  0.00  0.00     0.001 A 
HETATM   27  C           1     -21.075 -10.572  -5.716  0.00  0.00     0.007 A 
ENDBRANCH  21  22
ENDBRANCH  17  21
ENDBRANCH   2  17
TORSDOF 10
ENDMDL
MODEL 6
REMARK VINA RESULT:      -6.5     13.714     15.637
REMARK  10 active torsions:
REMARK  status: ('A' for Active; 'I' for Inactive)
REMARK    1  A    between atoms: C_2  and  C_9 
REMARK    2  A    between atoms: C_9  and  C_10 
REMARK    3  A    between atoms: C_9  and  N_17 
REMARK    4  A    between atoms: C_10  and  C_11 
REMARK       I    between atoms: N_17  and  C_18 
REMARK    5  A    between atoms: C_18  and  C_19 
REMARK    6  A    between atoms: C_19  and  C_20 
REMARK    7  A    between atoms: C_19  and  N_26 
REMARK    8  A    between atoms: C_20  and  O_21 
REMARK    9  A    between atoms: O_21  and  P_22 
REMARK   10  A    between atoms: P_22  and  O_23 
ROOT
HETATM    1  H           1     -34.484  -5.169 -16.207  0.00  0.00     0.163 HD
HETATM    2  N           1     -33.796  -4.607 -15.721  0.00  0.00    -0.344 N 
HETATM    3  C           1     -34.113  -4.019 -14.526  0.00  0.00     0.251 C 
HETATM    4  O           1     -34.590  -2.909 -14.506  0.00  0.00    -0.271 OA
ENDROOT
BRANCH   3   5
HETATM    5  C           1     -33.867  -4.759 -13.233  0.00  0.00     0.298 C 
BRANCH   5   6
HETATM    6  C           1     -34.923  -4.359 -12.211  0.00  0.00     0.224 C 
BRANCH   6   7
HETATM    7  O           1     -34.333  -3.576 -11.210  0.00  0.00    -0.287 OA
BRANCH   7   8
HETATM    8  P           1     -34.993  -2.122 -10.966  0.00  0.00     0.406 P 
HETATM    9  O           1     -36.448  -2.273 -10.741  0.00  0.00    -0.624 OA
HETATM   10  O           1     -34.372  -1.491  -9.780  0.00  0.00    -0.624 OA
BRANCH   8  11
HETATM   11  O           1     -34.744  -1.193 -12.263  0.00  0.00    -0.300 OA
HETATM   12  H           1     -35.448  -1.402 -12.852  0.00  0.00     0.223 HD
ENDBRANCH   8  11
ENDBRANCH   7   8
ENDBRANCH   6   7
ENDBRANCH   5   6
BRANCH   5  13
HETATM   13  N           1     -32.507  -4.408 -12.709  0.00  0.00    -0.064 N 
HETATM   14  H           1     -32.503  -3.413 -12.386  0.00  0.00     0.275 HD
HETATM   15  H           1     -32.271  -5.034 -11.906  0.00  0.00     0.275 HD
HETATM   16  H           1     -31.799  -4.530 -13.467  0.00  0.00     0.275 HD
ENDBRANCH   5  13
ENDBRANCH   3   5
BRANCH   2  17
HETATM   17  C           1     -32.475  -4.423 -16.290  0.00  0.00     0.189 C 
BRANCH  17  18
HETATM   18  C           1     -32.522  -3.321 -17.321  0.00  0.00     0.197 C 
HETATM   19  O           1     -33.606  -2.752 -17.578  0.00  0.00    -0.646 OA
HETATM   20  O           1     -31.479  -2.977 -17.916  0.00  0.00    -0.646 OA
ENDBRANCH  17  18
BRANCH  17  21
HETATM   21  C           1     -32.024  -5.718 -16.953  0.00  0.00     0.074 C 
BRANCH  21  22
HETATM   22  C           1     -30.528  -5.791 -16.938  0.00  0.00    -0.056 A 
HETATM   23  C           1     -29.836  -6.126 -18.101  0.00  0.00     0.007 A 
HETATM   24  C           1     -28.442  -6.194 -18.088  0.00  0.00     0.001 A 
HETATM   25  C           1     -27.742  -5.927 -16.911  0.00  0.00     0.000 A 
HETATM   26  C           1     -28.435  -5.591 -15.749  0.00  0.00     0.001 A 
HETATM   27  C           1     -29.829  -5.523 -15.762  0.00  0.00     0.007 A 
ENDBRANCH  21  22
ENDBRANCH  17  21
ENDBRANCH   2  17
TORSDOF 10
ENDMDL
MODEL 7
REMARK VINA RESULT:      -6.4      3.588      5.087
REMARK  10 active torsions:
REMARK  status: ('A' for Active; 'I' for Inactive)
REMARK    1  A    between atoms: C_2  and  C_9 
REMARK    2  A    between atoms: C_9  and  C_10 
REMARK    3  A    between atoms: C_9  and  N_17 
REMARK    4  A    between atoms: C_10  and  C_11 
REMARK       I    between atoms: N_17  and  C_18 
REMARK    5  A    between atoms: C_18  and  C_19 
REMARK    6  A    between atoms: C_19  and  C_20 
REMARK    7  A    between atoms: C_19  and  N_26 
REMARK    8  A    between atoms: C_20  and  O_21 
REMARK    9  A    between atoms: O_21  and  P_22 
REMARK   10  A    between atoms: P_22  and  O_23 
ROOT
HETATM    1  H           1     -20.010  -7.471  -1.821  0.00  0.00     0.163 HD
HETATM    2  N           1     -21.010  -7.500  -1.978  0.00  0.00    -0.344 N 
HETATM    3  C           1     -21.597  -6.599  -2.825  0.00  0.00     0.251 C 
HETATM    4  O           1     -22.000  -5.543  -2.398  0.00  0.00    -0.271 OA
ENDROOT
BRANCH   3   5
HETATM    5  C           1     -21.738  -6.924  -4.292  0.00  0.00     0.298 C 
BRANCH   5   6
HETATM    6  C           1     -20.512  -6.421  -5.044  0.00  0.00     0.224 C 
BRANCH   6   7
HETATM    7  O           1     -20.660  -5.055  -5.319  0.00  0.00    -0.287 OA
BRANCH   7   8
HETATM    8  P           1     -20.691  -4.646  -6.881  0.00  0.00     0.406 P 
HETATM    9  O           1     -19.306  -4.465  -7.371  0.00  0.00    -0.624 OA
HETATM   10  O           1     -21.355  -5.717  -7.658  0.00  0.00    -0.624 OA
BRANCH   8  11
HETATM   11  O           1     -21.509  -3.265  -7.061  0.00  0.00    -0.300 OA
HETATM   12  H           1     -22.214  -3.474  -7.650  0.00  0.00     0.223 HD
ENDBRANCH   8  11
ENDBRANCH   7   8
ENDBRANCH   6   7
ENDBRANCH   5   6
BRANCH   5  13
HETATM   13  N           1     -22.966  -6.255  -4.835  0.00  0.00    -0.064 N 
HETATM   14  H           1     -23.614  -6.024  -4.049  0.00  0.00     0.275 HD
HETATM   15  H           1     -22.692  -5.376  -5.331  0.00  0.00     0.275 HD
HETATM   16  H           1     -23.446  -6.898  -5.504  0.00  0.00     0.275 HD
ENDBRANCH   5  13
ENDBRANCH   3   5
BRANCH   2  17
HETATM   17  C           1     -21.821  -8.497  -1.307  0.00  0.00     0.189 C 
BRANCH  17  18
HETATM   18  C           1     -22.251  -7.969   0.041  0.00  0.00     0.197 C 
HETATM   19  O           1     -23.393  -7.481   0.186  0.00  0.00    -0.646 OA
HETATM   20  O           1     -21.465  -8.018   1.011  0.00  0.00    -0.646 OA
ENDBRANCH  17  18
BRANCH  17  21
HETATM   21  C           1     -21.007  -9.769  -1.117  0.00  0.00     0.074 C 
BRANCH  21  22
HETATM   22  C           1     -21.904 -10.869  -0.639  0.00  0.00    -0.056 A 
HETATM   23  C           1     -21.518 -11.664   0.440  0.00  0.00     0.007 A 
HETATM   24  C           1     -22.354 -12.689   0.886  0.00  0.00     0.001 A 
HETATM   25  C           1     -23.576 -12.917   0.253  0.00  0.00     0.000 A 
HETATM   26  C           1     -23.962 -12.121  -0.824  0.00  0.00     0.001 A 
HETATM   27  C           1     -23.127 -11.096  -1.271  0.00  0.00     0.007 A 
ENDBRANCH  21  22
ENDBRANCH  17  21
ENDBRANCH   2  17
TORSDOF 10
ENDMDL
MODEL 8
REMARK VINA RESULT:      -6.3      4.471      7.031
REMARK  10 active torsions:
REMARK  status: ('A' for Active; 'I' for Inactive)
REMARK    1  A    between atoms: C_2  and  C_9 
REMARK    2  A    between atoms: C_9  and  C_10 
REMARK    3  A    between atoms: C_9  and  N_17 
REMARK    4  A    between atoms: C_10  and  C_11 
REMARK       I    between atoms: N_17  and  C_18 
REMARK    5  A    between atoms: C_18  and  C_19 
REMARK    6  A    between atoms: C_19  and  C_20 
REMARK    7  A    between atoms: C_19  and  N_26 
REMARK    8  A    between atoms: C_20  and  O_21 
REMARK    9  A    between atoms: O_21  and  P_22 
REMARK   10  A    between atoms: P_22  and  O_23 
ROOT
HETATM    1  H           1     -19.283  -7.540  -3.160  0.00  0.00     0.163 HD
HETATM    2  N           1     -20.069  -7.934  -3.663  0.00  0.00    -0.344 N 
HETATM    3  C           1     -19.881  -8.494  -4.898  0.00  0.00     0.251 C 
HETATM    4  O           1     -19.977  -7.812  -5.891  0.00  0.00    -0.271 OA
ENDROOT
BRANCH   3   5
HETATM    5  C           1     -19.554  -9.962  -5.018  0.00  0.00     0.298 C 
BRANCH   5   6
HETATM    6  C           1     -18.883 -10.439  -3.736  0.00  0.00     0.224 C 
BRANCH   6   7
HETATM    7  O           1     -17.817  -9.586  -3.420  0.00  0.00    -0.287 OA
BRANCH   7   8
HETATM    8  P           1     -16.343 -10.242  -3.487  0.00  0.00     0.406 P 
HETATM    9  O           1     -15.537  -9.763  -2.341  0.00  0.00    -0.624 OA
HETATM   10  O           1     -16.455 -11.717  -3.430  0.00  0.00    -0.624 OA
BRANCH   8  11
HETATM   11  O           1     -15.623  -9.810  -4.867  0.00  0.00    -0.300 OA
HETATM   12  H           1     -14.755  -9.543  -4.616  0.00  0.00     0.223 HD
ENDBRANCH   8  11
ENDBRANCH   7   8
ENDBRANCH   6   7
ENDBRANCH   5   6
BRANCH   5  13
HETATM   13  N           1     -18.625 -10.174  -6.175  0.00  0.00    -0.064 N 
HETATM   14  H           1     -17.684  -9.784  -5.943  0.00  0.00     0.275 HD
HETATM   15  H           1     -18.539 -11.198  -6.370  0.00  0.00     0.275 HD
HETATM   16  H           1     -19.005  -9.689  -7.020  0.00  0.00     0.275 HD
ENDBRANCH   5  13
ENDBRANCH   3   5
BRANCH   2  17
HETATM   17  C           1     -21.395  -7.905  -3.075  0.00  0.00     0.189 C 
BRANCH  17  18
HETATM   18  C           1     -21.948  -6.503  -3.155  0.00  0.00     0.197 C 
HETATM   19  O           1     -22.281  -5.901  -2.110  0.00  0.00    -0.646 OA
HETATM   20  O           1     -22.075  -5.943  -4.265  0.00  0.00    -0.646 OA
ENDBRANCH  17  18
BRANCH  17  21
HETATM   21  C           1     -21.312  -8.334  -1.616  0.00  0.00     0.074 C 
BRANCH  21  22
HETATM   22  C           1     -22.251  -9.476  -1.378  0.00  0.00    -0.056 A 
HETATM   23  C           1     -22.347 -10.506  -2.314  0.00  0.00     0.007 A 
HETATM   24  C           1     -23.222 -11.571  -2.092  0.00  0.00     0.001 A 
HETATM   25  C           1     -24.000 -11.604  -0.934  0.00  0.00     0.000 A 
HETATM   26  C           1     -23.903 -10.574   0.001  0.00  0.00     0.001 A 
HETATM   27  C           1     -23.028  -9.510  -0.221  0.00  0.00     0.007 A 
ENDBRANCH  21  22
ENDBRANCH  17  21
ENDBRANCH   2  17
TORSDOF 10
ENDMDL
MODEL 9
REMARK VINA RESULT:      -6.3      2.774      3.822
REMARK  10 active torsions:
REMARK  status: ('A' for Active; 'I' for Inactive)
REMARK    1  A    between atoms: C_2  and  C_9 
REMARK    2  A    between atoms: C_9  and  C_10 
REMARK    3  A    between atoms: C_9  and  N_17 
REMARK    4  A    between atoms: C_10  and  C_11 
REMARK       I    between atoms: N_17  and  C_18 
REMARK    5  A    between atoms: C_18  and  C_19 
REMARK    6  A    between atoms: C_19  and  C_20 
REMARK    7  A    between atoms: C_19  and  N_26 
REMARK    8  A    between atoms: C_20  and  O_21 
REMARK    9  A    between atoms: O_21  and  P_22 
REMARK   10  A    between atoms: P_22  and  O_23 
ROOT
HETATM    1  H           1     -20.713 -10.227  -4.195  0.00  0.00     0.163 HD
HETATM    2  N           1     -20.280  -9.346  -3.950  0.00  0.00    -0.344 N 
HETATM    3  C           1     -20.515  -8.232  -4.709  0.00  0.00     0.251 C 
HETATM    4  O           1     -19.797  -7.977  -5.647  0.00  0.00    -0.271 OA
ENDROOT
BRANCH   3   5
HETATM    5  C           1     -21.672  -7.322  -4.375  0.00  0.00     0.298 C 
BRANCH   5   6
HETATM    6  C           1     -22.243  -6.735  -5.659  0.00  0.00     0.224 C 
BRANCH   6   7
HETATM    7  O           1     -22.098  -5.341  -5.642  0.00  0.00    -0.287 OA
BRANCH   7   8
HETATM    8  P           1     -20.904  -4.743  -6.550  0.00  0.00     0.406 P 
HETATM    9  O           1     -21.316  -3.434  -7.106  0.00  0.00    -0.624 OA
HETATM   10  O           1     -19.692  -4.567  -5.719  0.00  0.00    -0.624 OA
BRANCH   8  11
HETATM   11  O           1     -20.584  -5.763  -7.760  0.00  0.00    -0.300 OA
HETATM   12  H           1     -20.062  -6.445  -7.373  0.00  0.00     0.223 HD
ENDBRANCH   8  11
ENDBRANCH   7   8
ENDBRANCH   6   7
ENDBRANCH   5   6
BRANCH   5  13
HETATM   13  N           1     -21.193  -6.211  -3.488  0.00  0.00    -0.064 N 
HETATM   14  H           1     -20.667  -5.511  -4.060  0.00  0.00     0.275 HD
HETATM   15  H           1     -22.014  -5.746  -3.038  0.00  0.00     0.275 HD
HETATM   16  H           1     -20.564  -6.601  -2.750  0.00  0.00     0.275 HD
ENDBRANCH   5  13
ENDBRANCH   3   5
BRANCH   2  17
HETATM   17  C           1     -19.408  -9.264  -2.794  0.00  0.00     0.189 C 
BRANCH  17  18
HETATM   18  C           1     -18.007  -9.661  -3.193  0.00  0.00     0.197 C 
HETATM   19  O           1     -17.024  -9.169  -2.595  0.00  0.00    -0.646 OA
HETATM   20  O           1     -17.829 -10.480  -4.119  0.00  0.00    -0.646 OA
ENDBRANCH  17  18
BRANCH  17  21
HETATM   21  C           1     -19.913 -10.206  -1.710  0.00  0.00     0.074 C 
BRANCH  21  22
HETATM   22  C           1     -21.064  -9.571  -0.993  0.00  0.00    -0.056 A 
HETATM   23  C           1     -20.985  -8.239  -0.589  0.00  0.00     0.007 A 
HETATM   24  C           1     -22.058  -7.647   0.078  0.00  0.00     0.001 A 
HETATM   25  C           1     -23.211  -8.388   0.339  0.00  0.00     0.000 A 
HETATM   26  C           1     -23.290  -9.720  -0.066  0.00  0.00     0.001 A 
HETATM   27  C           1     -22.217 -10.312  -0.733  0.00  0.00     0.007 A 
ENDBRANCH  21  22
ENDBRANCH  17  21
ENDBRANCH   2  17
TORSDOF 10
ENDMDL
