MODEL 1
REMARK VINA RESULT:      -6.7      0.000      0.000
REMARK  9 active torsions:
REMARK  status: ('A' for Active; 'I' for Inactive)
REMARK    1  A    between atoms: N_2  and  C_18 
REMARK    2  A    between atoms: N_9  and  C_10 
REMARK       I    between atoms: N_9  and  C_22 
REMARK    3  A    between atoms: C_10  and  C_17 
REMARK    4  A    between atoms: C_10  and  C_11 
REMARK    5  A    between atoms: C_15  and  C_21 
REMARK    6  A    between atoms: O_16  and  C_17 
REMARK    7  A    between atoms: C_18  and  C_22 
REMARK    8  A    between atoms: C_18  and  C_19 
REMARK    9  A    between atoms: C_19  and  C_21 
ROOT
HETATM    1  O           1     -21.673  -3.560  -7.378  0.00  0.00    -0.271 OA
HETATM    2  H           1     -22.175  -5.776  -9.541  0.00  0.00     0.163 HD
HETATM    3  N           1     -22.154  -4.848  -9.138  0.00  0.00    -0.343 N 
HETATM    4  C           1     -21.699  -4.667  -7.859  0.00  0.00     0.249 C 
ENDROOT
BRANCH   4   5
HETATM    5  C           1     -21.227  -5.851  -7.052  0.00  0.00     0.275 C 
BRANCH   5   6
HETATM    6  N           1     -19.826  -6.204  -7.454  0.00  0.00    -0.066 N 
HETATM    7  H           1     -19.225  -6.272  -6.601  0.00  0.00     0.275 HD
HETATM    8  H           1     -19.827  -7.123  -7.952  0.00  0.00     0.275 HD
HETATM    9  H           1     -19.448  -5.464  -8.088  0.00  0.00     0.275 HD
ENDBRANCH   5   6
BRANCH   5  10
HETATM   10  C           1     -21.257  -5.501  -5.570  0.00  0.00     0.053 C 
BRANCH  10  11
HETATM   11  C           1     -22.227  -6.427  -4.849  0.00  0.00     0.115 C 
BRANCH  11  12
HETATM   12  C           1     -21.814  -6.563  -3.404  0.00  0.00     0.172 C 
HETATM   13  O           1     -20.850  -7.296  -3.095  0.00  0.00    -0.648 OA
HETATM   14  O           1     -22.436  -5.941  -2.515  0.00  0.00    -0.648 OA
ENDBRANCH  11  12
ENDBRANCH  10  11
ENDBRANCH   5  10
ENDBRANCH   4   5
BRANCH   3  15
HETATM   15  C           1     -22.607  -3.709  -9.913  0.00  0.00     0.214 C 
BRANCH  15  16
HETATM   16  C           1     -21.830  -3.646 -11.221  0.00  0.00     0.147 C 
HETATM   17  C           1     -20.426  -4.195 -11.004  0.00  0.00     0.042 C 
BRANCH  16  18
HETATM   18  O           1     -22.487  -4.414 -12.193  0.00  0.00    -0.393 OA
HETATM   19  H           1     -23.301  -3.979 -12.382  0.00  0.00     0.210 HD
ENDBRANCH  16  18
ENDBRANCH  15  16
BRANCH  15  20
HETATM   20  C           1     -24.079  -3.857 -10.209  0.00  0.00     0.199 C 
HETATM   21  O           1     -24.704  -2.921 -10.754  0.00  0.00    -0.646 OA
HETATM   22  O           1     -24.673  -4.915  -9.912  0.00  0.00    -0.646 OA
ENDBRANCH  15  20
ENDBRANCH   3  15
TORSDOF 9
ENDMDL
MODEL 2
REMARK VINA RESULT:      -6.5     12.894     14.718
REMARK  9 active torsions:
REMARK  status: ('A' for Active; 'I' for Inactive)
REMARK    1  A    between atoms: N_2  and  C_18 
REMARK    2  A    between atoms: N_9  and  C_10 
REMARK       I    between atoms: N_9  and  C_22 
REMARK    3  A    between atoms: C_10  and  C_17 
REMARK    4  A    between atoms: C_10  and  C_11 
REMARK    5  A    between atoms: C_15  and  C_21 
REMARK    6  A    between atoms: O_16  and  C_17 
REMARK    7  A    between atoms: C_18  and  C_22 
REMARK    8  A    between atoms: C_18  and  C_19 
REMARK    9  A    between atoms: C_19  and  C_21 
ROOT
HETATM    1  O           1     -36.531  -1.501 -12.278  0.00  0.00    -0.271 OA
HETATM    2  H           1     -34.144  -1.362 -14.309  0.00  0.00     0.163 HD
HETATM    3  N           1     -35.080  -1.218 -13.952  0.00  0.00    -0.343 N 
HETATM    4  C           1     -35.414  -1.673 -12.704  0.00  0.00     0.249 C 
ENDROOT
BRANCH   4   5
HETATM    5  C           1     -34.387  -2.388 -11.862  0.00  0.00     0.275 C 
BRANCH   5   6
HETATM    6  N           1     -33.720  -1.406 -10.946  0.00  0.00    -0.066 N 
HETATM    7  H           1     -33.804  -0.444 -11.345  0.00  0.00     0.275 HD
HETATM    8  H           1     -34.181  -1.435 -10.009  0.00  0.00     0.275 HD
HETATM    9  H           1     -32.709  -1.654 -10.846  0.00  0.00     0.275 HD
ENDBRANCH   5   6
BRANCH   5  10
HETATM   10  C           1     -35.071  -3.470 -11.035  0.00  0.00     0.053 C 
BRANCH  10  11
HETATM   11  C           1     -34.056  -4.541 -10.661  0.00  0.00     0.115 C 
BRANCH  11  12
HETATM   12  C           1     -34.471  -5.860 -11.263  0.00  0.00     0.172 C 
HETATM   13  O           1     -35.109  -5.885 -12.338  0.00  0.00    -0.648 OA
HETATM   14  O           1     -34.176  -6.930 -10.687  0.00  0.00    -0.648 OA
ENDBRANCH  11  12
ENDBRANCH  10  11
ENDBRANCH   5  10
ENDBRANCH   4   5
BRANCH   3  15
HETATM   15  C           1     -36.067  -0.530 -14.761  0.00  0.00     0.214 C 
BRANCH  15  16
HETATM   16  C           1     -35.883   0.974 -14.615  0.00  0.00     0.147 C 
HETATM   17  C           1     -34.510   1.262 -14.022  0.00  0.00     0.042 C 
BRANCH  16  18
HETATM   18  O           1     -35.986   1.582 -15.875  0.00  0.00    -0.393 OA
HETATM   19  H           1     -35.939   0.892 -16.515  0.00  0.00     0.210 HD
ENDBRANCH  16  18
ENDBRANCH  15  16
BRANCH  15  20
HETATM   20  C           1     -35.890  -0.921 -16.208  0.00  0.00     0.199 C 
HETATM   21  O           1     -34.794  -1.375 -16.603  0.00  0.00    -0.646 OA
HETATM   22  O           1     -36.839  -0.792 -17.011  0.00  0.00    -0.646 OA
ENDBRANCH  15  20
ENDBRANCH   3  15
TORSDOF 9
ENDMDL
MODEL 3
REMARK VINA RESULT:      -6.3     12.337     13.873
REMARK  9 active torsions:
REMARK  status: ('A' for Active; 'I' for Inactive)
REMARK    1  A    between atoms: N_2  and  C_18 
REMARK    2  A    between atoms: N_9  and  C_10 
REMARK       I    between atoms: N_9  and  C_22 
REMARK    3  A    between atoms: C_10  and  C_17 
REMARK    4  A    between atoms: C_10  and  C_11 
REMARK    5  A    between atoms: C_15  and  C_21 
REMARK    6  A    between atoms: O_16  and  C_17 
REMARK    7  A    between atoms: C_18  and  C_22 
REMARK    8  A    between atoms: C_18  and  C_19 
REMARK    9  A    between atoms: C_19  and  C_21 
ROOT
HETATM    1  O           1     -33.399  -2.359 -11.105  0.00  0.00    -0.271 OA
HETATM    2  H           1     -35.844  -2.611 -13.054  0.00  0.00     0.163 HD
HETATM    3  N           1     -35.226  -2.183 -12.376  0.00  0.00    -0.343 N 
HETATM    4  C           1     -34.136  -2.870 -11.913  0.00  0.00     0.249 C 
ENDROOT
BRANCH   4   5
HETATM    5  C           1     -33.855  -4.265 -12.415  0.00  0.00     0.275 C 
BRANCH   5   6
HETATM    6  N           1     -32.388  -4.554 -12.295  0.00  0.00    -0.066 N 
HETATM    7  H           1     -32.237  -5.302 -11.582  0.00  0.00     0.275 HD
HETATM    8  H           1     -32.020  -4.875 -13.219  0.00  0.00     0.275 HD
HETATM    9  H           1     -31.885  -3.686 -12.001  0.00  0.00     0.275 HD
ENDBRANCH   5   6
BRANCH   5  10
HETATM   10  C           1     -34.640  -5.272 -11.584  0.00  0.00     0.053 C 
BRANCH  10  11
HETATM   11  C           1     -33.671  -6.197 -10.859  0.00  0.00     0.115 C 
BRANCH  11  12
HETATM   12  C           1     -34.444  -7.285 -10.157  0.00  0.00     0.172 C 
HETATM   13  O           1     -34.060  -8.473 -10.231  0.00  0.00    -0.648 OA
HETATM   14  O           1     -35.470  -7.000  -9.501  0.00  0.00    -0.648 OA
ENDBRANCH  11  12
ENDBRANCH  10  11
ENDBRANCH   5  10
ENDBRANCH   4   5
BRANCH   3  15
HETATM   15  C           1     -35.496  -0.842 -11.894  0.00  0.00     0.214 C 
BRANCH  15  16
HETATM   16  C           1     -36.112  -0.015 -13.015  0.00  0.00     0.147 C 
HETATM   17  C           1     -35.004   0.575 -13.877  0.00  0.00     0.042 C 
BRANCH  16  18
HETATM   18  O           1     -36.932  -0.835 -13.803  0.00  0.00    -0.393 OA
HETATM   19  H           1     -37.625  -0.290 -14.135  0.00  0.00     0.210 HD
ENDBRANCH  16  18
ENDBRANCH  15  16
BRANCH  15  20
HETATM   20  C           1     -36.456  -0.910 -10.732  0.00  0.00     0.199 C 
HETATM   21  O           1     -36.054  -0.664  -9.574  0.00  0.00    -0.646 OA
HETATM   22  O           1     -37.653  -1.210 -10.927  0.00  0.00    -0.646 OA
ENDBRANCH  15  20
ENDBRANCH   3  15
TORSDOF 9
ENDMDL
MODEL 4
REMARK VINA RESULT:      -6.2     12.544     14.885
REMARK  9 active torsions:
REMARK  status: ('A' for Active; 'I' for Inactive)
REMARK    1  A    between atoms: N_2  and  C_18 
REMARK    2  A    between atoms: N_9  and  C_10 
REMARK       I    between atoms: N_9  and  C_22 
REMARK    3  A    between atoms: C_10  and  C_17 
REMARK    4  A    between atoms: C_10  and  C_11 
REMARK    5  A    between atoms: C_15  and  C_21 
REMARK    6  A    between atoms: O_16  and  C_17 
REMARK    7  A    between atoms: C_18  and  C_22 
REMARK    8  A    between atoms: C_18  and  C_19 
REMARK    9  A    between atoms: C_19  and  C_21 
ROOT
HETATM    1  O           1     -34.891   0.735 -12.871  0.00  0.00    -0.271 OA
HETATM    2  H           1     -35.523  -2.041 -14.189  0.00  0.00     0.163 HD
HETATM    3  N           1     -35.449  -1.034 -14.114  0.00  0.00    -0.343 N 
HETATM    4  C           1     -34.979  -0.466 -12.960  0.00  0.00     0.249 C 
ENDROOT
BRANCH   4   5
HETATM    5  C           1     -34.569  -1.341 -11.802  0.00  0.00     0.275 C 
BRANCH   5   6
HETATM    6  N           1     -35.708  -1.454 -10.833  0.00  0.00    -0.066 N 
HETATM    7  H           1     -36.379  -0.669 -10.990  0.00  0.00     0.275 HD
HETATM    8  H           1     -36.199  -2.365 -10.977  0.00  0.00     0.275 HD
HETATM    9  H           1     -35.339  -1.407  -9.855  0.00  0.00     0.275 HD
ENDBRANCH   5   6
BRANCH   5  10
HETATM   10  C           1     -34.201  -2.727 -12.317  0.00  0.00     0.053 C 
BRANCH  10  11
HETATM   11  C           1     -33.240  -3.393 -11.341  0.00  0.00     0.115 C 
BRANCH  11  12
HETATM   12  C           1     -33.759  -4.761 -10.977  0.00  0.00     0.172 C 
HETATM   13  O           1     -33.069  -5.777 -11.216  0.00  0.00    -0.648 OA
HETATM   14  O           1     -34.880  -4.881 -10.436  0.00  0.00    -0.648 OA
ENDBRANCH  11  12
ENDBRANCH  10  11
ENDBRANCH   5  10
ENDBRANCH   4   5
BRANCH   3  15
HETATM   15  C           1     -35.843  -0.193 -15.228  0.00  0.00     0.214 C 
BRANCH  15  16
HETATM   16  C           1     -35.426  -0.854 -16.535  0.00  0.00     0.147 C 
HETATM   17  C           1     -35.086  -2.316 -16.277  0.00  0.00     0.042 C 
BRANCH  16  18
HETATM   18  O           1     -36.480  -0.774 -17.456  0.00  0.00    -0.393 OA
HETATM   19  H           1     -36.826  -1.644 -17.553  0.00  0.00     0.210 HD
ENDBRANCH  16  18
ENDBRANCH  15  16
BRANCH  15  20
HETATM   20  C           1     -37.341  -0.008 -15.213  0.00  0.00     0.199 C 
HETATM   21  O           1     -37.855   0.973 -15.791  0.00  0.00    -0.646 OA
HETATM   22  O           1     -38.066  -0.838 -14.624  0.00  0.00    -0.646 OA
ENDBRANCH  15  20
ENDBRANCH   3  15
TORSDOF 9
ENDMDL
MODEL 5
REMARK VINA RESULT:      -6.1     10.735     13.004
REMARK  9 active torsions:
REMARK  status: ('A' for Active; 'I' for Inactive)
REMARK    1  A    between atoms: N_2  and  C_18 
REMARK    2  A    between atoms: N_9  and  C_10 
REMARK       I    between atoms: N_9  and  C_22 
REMARK    3  A    between atoms: C_10  and  C_17 
REMARK    4  A    between atoms: C_10  and  C_11 
REMARK    5  A    between atoms: C_15  and  C_21 
REMARK    6  A    between atoms: O_16  and  C_17 
REMARK    7  A    between atoms: C_18  and  C_22 
REMARK    8  A    between atoms: C_18  and  C_19 
REMARK    9  A    between atoms: C_19  and  C_21 
ROOT
HETATM    1  O           1     -25.076  -6.445 -17.145  0.00  0.00    -0.271 OA
HETATM    2  H           1     -27.710  -6.140 -18.821  0.00  0.00     0.163 HD
HETATM    3  N           1     -27.120  -6.163 -17.999  0.00  0.00    -0.343 N 
HETATM    4  C           1     -25.780  -6.419 -18.125  0.00  0.00     0.249 C 
ENDROOT
BRANCH   4   5
HETATM    5  C           1     -25.185  -6.667 -19.489  0.00  0.00     0.275 C 
BRANCH   5   6
HETATM    6  N           1     -24.423  -7.959 -19.475  0.00  0.00    -0.066 N 
HETATM    7  H           1     -23.824  -8.021 -20.328  0.00  0.00     0.275 HD
HETATM    8  H           1     -23.819  -7.998 -18.622  0.00  0.00     0.275 HD
HETATM    9  H           1     -25.095  -8.760 -19.463  0.00  0.00     0.275 HD
ENDBRANCH   5   6
BRANCH   5  10
HETATM   10  C           1     -26.300  -6.748 -20.524  0.00  0.00     0.053 C 
BRANCH  10  11
HETATM   11  C           1     -26.370  -8.161 -21.086  0.00  0.00     0.115 C 
BRANCH  11  12
HETATM   12  C           1     -27.768  -8.703 -20.915  0.00  0.00     0.172 C 
HETATM   13  O           1     -28.538  -8.192 -20.073  0.00  0.00    -0.648 OA
HETATM   14  O           1     -28.156  -9.663 -21.615  0.00  0.00    -0.648 OA
ENDBRANCH  11  12
ENDBRANCH  10  11
ENDBRANCH   5  10
ENDBRANCH   4   5
BRANCH   3  15
HETATM   15  C           1     -27.692  -5.924 -16.689  0.00  0.00     0.214 C 
BRANCH  15  16
HETATM   16  C           1     -28.826  -4.914 -16.807  0.00  0.00     0.147 C 
HETATM   17  C           1     -29.197  -4.739 -18.274  0.00  0.00     0.042 C 
BRANCH  16  18
HETATM   18  O           1     -29.940  -5.379 -16.094  0.00  0.00    -0.393 OA
HETATM   19  H           1     -29.686  -5.424 -15.188  0.00  0.00     0.210 HD
ENDBRANCH  16  18
ENDBRANCH  15  16
BRANCH  15  20
HETATM   20  C           1     -28.227  -7.220 -16.131  0.00  0.00     0.199 C 
HETATM   21  O           1     -27.873  -7.605 -14.995  0.00  0.00    -0.646 OA
HETATM   22  O           1     -29.026  -7.906 -16.803  0.00  0.00    -0.646 OA
ENDBRANCH  15  20
ENDBRANCH   3  15
TORSDOF 9
ENDMDL
MODEL 6
REMARK VINA RESULT:      -6.0     13.799     15.321
REMARK  9 active torsions:
REMARK  status: ('A' for Active; 'I' for Inactive)
REMARK    1  A    between atoms: N_2  and  C_18 
REMARK    2  A    between atoms: N_9  and  C_10 
REMARK       I    between atoms: N_9  and  C_22 
REMARK    3  A    between atoms: C_10  and  C_17 
REMARK    4  A    between atoms: C_10  and  C_11 
REMARK    5  A    between atoms: C_15  and  C_21 
REMARK    6  A    between atoms: O_16  and  C_17 
REMARK    7  A    between atoms: C_18  and  C_22 
REMARK    8  A    between atoms: C_18  and  C_19 
REMARK    9  A    between atoms: C_19  and  C_21 
ROOT
HETATM    1  O           1     -37.882  -1.037 -10.621  0.00  0.00    -0.271 OA
HETATM    2  H           1     -34.799  -0.457 -10.675  0.00  0.00     0.163 HD
HETATM    3  N           1     -35.695  -0.794 -11.004  0.00  0.00    -0.343 N 
HETATM    4  C           1     -36.813  -0.635 -10.229  0.00  0.00     0.249 C 
ENDROOT
BRANCH   4   5
HETATM    5  C           1     -36.710   0.045  -8.886  0.00  0.00     0.275 C 
BRANCH   5   6
HETATM    6  N           1     -36.257   1.462  -9.076  0.00  0.00    -0.066 N 
HETATM    7  H           1     -35.353   1.472  -9.601  0.00  0.00     0.275 HD
HETATM    8  H           1     -36.979   1.989  -9.617  0.00  0.00     0.275 HD
HETATM    9  H           1     -36.122   1.913  -8.142  0.00  0.00     0.275 HD
ENDBRANCH   5   6
BRANCH   5  10
HETATM   10  C           1     -38.072   0.035  -8.205  0.00  0.00     0.053 C 
BRANCH  10  11
HETATM   11  C           1     -37.942  -0.580  -6.818  0.00  0.00     0.115 C 
BRANCH  11  12
HETATM   12  C           1     -37.427   0.458  -5.853  0.00  0.00     0.172 C 
HETATM   13  O           1     -37.117   0.130  -4.686  0.00  0.00    -0.648 OA
HETATM   14  O           1     -37.309   1.648  -6.219  0.00  0.00    -0.648 OA
ENDBRANCH  11  12
ENDBRANCH  10  11
ENDBRANCH   5  10
ENDBRANCH   4   5
BRANCH   3  15
HETATM   15  C           1     -35.795  -1.447 -12.295  0.00  0.00     0.214 C 
BRANCH  15  16
HETATM   16  C           1     -35.791  -0.395 -13.396  0.00  0.00     0.147 C 
HETATM   17  C           1     -34.691   0.622 -13.121  0.00  0.00     0.042 C 
BRANCH  16  18
HETATM   18  O           1     -35.557  -1.015 -14.632  0.00  0.00    -0.393 OA
HETATM   19  H           1     -36.390  -1.075 -15.069  0.00  0.00     0.210 HD
ENDBRANCH  16  18
ENDBRANCH  15  16
BRANCH  15  20
HETATM   20  C           1     -34.620  -2.375 -12.480  0.00  0.00     0.199 C 
HETATM   21  O           1     -33.717  -2.420 -11.616  0.00  0.00    -0.646 OA
HETATM   22  O           1     -34.550  -3.099 -13.496  0.00  0.00    -0.646 OA
ENDBRANCH  15  20
ENDBRANCH   3  15
TORSDOF 9
ENDMDL
MODEL 7
REMARK VINA RESULT:      -6.0     10.480     12.823
REMARK  9 active torsions:
REMARK  status: ('A' for Active; 'I' for Inactive)
REMARK    1  A    between atoms: N_2  and  C_18 
REMARK    2  A    between atoms: N_9  and  C_10 
REMARK       I    between atoms: N_9  and  C_22 
REMARK    3  A    between atoms: C_10  and  C_17 
REMARK    4  A    between atoms: C_10  and  C_11 
REMARK    5  A    between atoms: C_15  and  C_21 
REMARK    6  A    between atoms: O_16  and  C_17 
REMARK    7  A    between atoms: C_18  and  C_22 
REMARK    8  A    between atoms: C_18  and  C_19 
REMARK    9  A    between atoms: C_19  and  C_21 
ROOT
HETATM    1  O           1     -26.302  -6.049 -15.986  0.00  0.00    -0.271 OA
HETATM    2  H           1     -27.716  -6.345 -18.770  0.00  0.00     0.163 HD
HETATM    3  N           1     -27.632  -6.185 -17.774  0.00  0.00    -0.343 N 
HETATM    4  C           1     -26.402  -6.239 -17.174  0.00  0.00     0.249 C 
ENDROOT
BRANCH   4   5
HETATM    5  C           1     -25.173  -6.535 -17.997  0.00  0.00     0.275 C 
BRANCH   5   6
HETATM    6  N           1     -24.435  -7.693 -17.396  0.00  0.00    -0.066 N 
HETATM    7  H           1     -23.851  -7.358 -16.596  0.00  0.00     0.275 HD
HETATM    8  H           1     -25.121  -8.403 -17.051  0.00  0.00     0.275 HD
HETATM    9  H           1     -23.817  -8.127 -18.120  0.00  0.00     0.275 HD
ENDBRANCH   5   6
BRANCH   5  10
HETATM   10  C           1     -25.587  -6.882 -19.422  0.00  0.00     0.053 C 
BRANCH  10  11
HETATM   11  C           1     -24.398  -7.475 -20.165  0.00  0.00     0.115 C 
BRANCH  11  12
HETATM   12  C           1     -24.872  -8.104 -21.452  0.00  0.00     0.172 C 
HETATM   13  O           1     -24.085  -8.224 -22.417  0.00  0.00    -0.648 OA
HETATM   14  O           1     -26.052  -8.505 -21.555  0.00  0.00    -0.648 OA
ENDBRANCH  11  12
ENDBRANCH  10  11
ENDBRANCH   5  10
ENDBRANCH   4   5
BRANCH   3  15
HETATM   15  C           1     -28.813  -5.901 -16.983  0.00  0.00     0.214 C 
BRANCH  15  16
HETATM   16  C           1     -29.404  -4.566 -17.416  0.00  0.00     0.147 C 
HETATM   17  C           1     -28.515  -3.433 -16.921  0.00  0.00     0.042 C 
BRANCH  16  18
HETATM   18  O           1     -29.482  -4.523 -18.816  0.00  0.00    -0.393 OA
HETATM   19  H           1     -28.605  -4.392 -19.134  0.00  0.00     0.210 HD
ENDBRANCH  16  18
ENDBRANCH  15  16
BRANCH  15  20
HETATM   20  C           1     -29.832  -6.994 -17.191  0.00  0.00     0.199 C 
HETATM   21  O           1     -31.039  -6.704 -17.337  0.00  0.00    -0.646 OA
HETATM   22  O           1     -29.469  -8.190 -17.219  0.00  0.00    -0.646 OA
ENDBRANCH  15  20
ENDBRANCH   3  15
TORSDOF 9
ENDMDL
MODEL 8
REMARK VINA RESULT:      -5.9     12.308     14.352
REMARK  9 active torsions:
REMARK  status: ('A' for Active; 'I' for Inactive)
REMARK    1  A    between atoms: N_2  and  C_18 
REMARK    2  A    between atoms: N_9  and  C_10 
REMARK       I    between atoms: N_9  and  C_22 
REMARK    3  A    between atoms: C_10  and  C_17 
REMARK    4  A    between atoms: C_10  and  C_11 
REMARK    5  A    between atoms: C_15  and  C_21 
REMARK    6  A    between atoms: O_16  and  C_17 
REMARK    7  A    between atoms: C_18  and  C_22 
REMARK    8  A    between atoms: C_18  and  C_19 
REMARK    9  A    between atoms: C_19  and  C_21 
ROOT
HETATM    1  O           1     -34.473  -2.966 -13.441  0.00  0.00    -0.271 OA
HETATM    2  H           1     -35.101  -0.450 -11.676  0.00  0.00     0.163 HD
HETATM    3  N           1     -35.167  -1.082 -12.464  0.00  0.00    -0.343 N 
HETATM    4  C           1     -34.395  -2.212 -12.501  0.00  0.00     0.249 C 
ENDROOT
BRANCH   4   5
HETATM    5  C           1     -33.447  -2.516 -11.368  0.00  0.00     0.275 C 
BRANCH   5   6
HETATM    6  N           1     -34.017  -1.990 -10.084  0.00  0.00    -0.066 N 
HETATM    7  H           1     -34.156  -2.780  -9.414  0.00  0.00     0.275 HD
HETATM    8  H           1     -33.358  -1.294  -9.669  0.00  0.00     0.275 HD
HETATM    9  H           1     -34.937  -1.530 -10.274  0.00  0.00     0.275 HD
ENDBRANCH   5   6
BRANCH   5  10
HETATM   10  C           1     -33.252  -4.022 -11.257  0.00  0.00     0.053 C 
BRANCH  10  11
HETATM   11  C           1     -34.417  -4.630 -10.489  0.00  0.00     0.115 C 
BRANCH  11  12
HETATM   12  C           1     -34.237  -6.125 -10.398  0.00  0.00     0.172 C 
HETATM   13  O           1     -35.078  -6.821  -9.789  0.00  0.00    -0.648 OA
HETATM   14  O           1     -33.245  -6.668 -10.932  0.00  0.00    -0.648 OA
ENDBRANCH  11  12
ENDBRANCH  10  11
ENDBRANCH   5  10
ENDBRANCH   4   5
BRANCH   3  15
HETATM   15  C           1     -36.079  -0.790 -13.553  0.00  0.00     0.214 C 
BRANCH  15  16
HETATM   16  C           1     -37.440  -0.411 -12.987  0.00  0.00     0.147 C 
HETATM   17  C           1     -37.285   0.009 -11.531  0.00  0.00     0.042 C 
BRANCH  16  18
HETATM   18  O           1     -37.974   0.654 -13.727  0.00  0.00    -0.393 OA
HETATM   19  H           1     -37.903   0.417 -14.636  0.00  0.00     0.210 HD
ENDBRANCH  16  18
ENDBRANCH  15  16
BRANCH  15  20
HETATM   20  C           1     -35.535   0.357 -14.369  0.00  0.00     0.199 C 
HETATM   21  O           1     -35.722   0.388 -15.605  0.00  0.00    -0.646 OA
HETATM   22  O           1     -34.901   1.277 -13.809  0.00  0.00    -0.646 OA
ENDBRANCH  15  20
ENDBRANCH   3  15
TORSDOF 9
ENDMDL
MODEL 9
REMARK VINA RESULT:      -5.8      9.832     12.356
REMARK  9 active torsions:
REMARK  status: ('A' for Active; 'I' for Inactive)
REMARK    1  A    between atoms: N_2  and  C_18 
REMARK    2  A    between atoms: N_9  and  C_10 
REMARK       I    between atoms: N_9  and  C_22 
REMARK    3  A    between atoms: C_10  and  C_17 
REMARK    4  A    between atoms: C_10  and  C_11 
REMARK    5  A    between atoms: C_15  and  C_21 
REMARK    6  A    between atoms: O_16  and  C_17 
REMARK    7  A    between atoms: C_18  and  C_22 
REMARK    8  A    between atoms: C_18  and  C_19 
REMARK    9  A    between atoms: C_19  and  C_21 
ROOT
HETATM    1  O           1     -28.285  -6.988 -16.576  0.00  0.00    -0.271 OA
HETATM    2  H           1     -26.403  -5.059 -18.181  0.00  0.00     0.163 HD
HETATM    3  N           1     -26.696  -5.908 -17.713  0.00  0.00    -0.343 N 
HETATM    4  C           1     -27.936  -5.976 -17.134  0.00  0.00     0.249 C 
ENDROOT
BRANCH   4   5
HETATM    5  C           1     -28.863  -4.789 -17.195  0.00  0.00     0.275 C 
BRANCH   5   6
HETATM    6  N           1     -29.305  -4.571 -18.611  0.00  0.00    -0.066 N 
HETATM    7  H           1     -30.211  -5.067 -18.775  0.00  0.00     0.275 HD
HETATM    8  H           1     -29.433  -3.548 -18.783  0.00  0.00     0.275 HD
HETATM    9  H           1     -28.580  -4.948 -19.264  0.00  0.00     0.275 HD
ENDBRANCH   5   6
BRANCH   5  10
HETATM   10  C           1     -30.082  -5.049 -16.318  0.00  0.00     0.053 C 
BRANCH  10  11
HETATM   11  C           1     -31.310  -5.239 -17.198  0.00  0.00     0.115 C 
BRANCH  11  12
HETATM   12  C           1     -32.238  -4.062 -17.027  0.00  0.00     0.172 C 
HETATM   13  O           1     -33.137  -4.096 -16.158  0.00  0.00    -0.648 OA
HETATM   14  O           1     -32.109  -3.053 -17.754  0.00  0.00    -0.648 OA
ENDBRANCH  11  12
ENDBRANCH  10  11
ENDBRANCH   5  10
ENDBRANCH   4   5
BRANCH   3  15
HETATM   15  C           1     -25.805  -7.049 -17.655  0.00  0.00     0.214 C 
BRANCH  15  16
HETATM   16  C           1     -24.913  -7.060 -18.889  0.00  0.00     0.147 C 
HETATM   17  C           1     -25.600  -6.302 -20.017  0.00  0.00     0.042 C 
BRANCH  16  18
HETATM   18  O           1     -23.691  -6.442 -18.587  0.00  0.00    -0.393 OA
HETATM   19  H           1     -23.813  -5.517 -18.712  0.00  0.00     0.210 HD
ENDBRANCH  16  18
ENDBRANCH  15  16
BRANCH  15  20
HETATM   20  C           1     -24.948  -6.955 -16.416  0.00  0.00     0.199 C 
HETATM   21  O           1     -24.296  -7.949 -16.030  0.00  0.00    -0.646 OA
HETATM   22  O           1     -24.890  -5.882 -15.777  0.00  0.00    -0.646 OA
ENDBRANCH  15  20
ENDBRANCH   3  15
TORSDOF 9
ENDMDL
