MODEL 1
REMARK VINA RESULT:      -5.9      0.000      0.000
REMARK  9 active torsions:
REMARK  status: ('A' for Active; 'I' for Inactive)
REMARK    1  A    between atoms: C_2  and  C_15 
REMARK    2  A    between atoms: C_2  and  C_4 
REMARK    3  A    between atoms: C_6  and  C_14 
REMARK    4  A    between atoms: C_6  and  C_7 
REMARK    5  A    between atoms: C_7  and  C_8 
REMARK    6  A    between atoms: C_7  and  N_17 
REMARK    7  A    between atoms: N_10  and  C_15 
REMARK    8  A    between atoms: C_14  and  S_19 
REMARK    9  A    between atoms: C_15  and  C_16 
REMARK       I    between atoms: C_16  and  N_17 
ROOT
HETATM    1  O           1     -34.775  -2.747 -13.658  0.00  0.00    -0.271 OA
HETATM    2  C           1     -34.605  -2.233 -12.578  0.00  0.00     0.249 C 
HETATM    3  N           1     -35.343  -1.139 -12.216  0.00  0.00    -0.345 N 
HETATM    4  H           1     -35.200  -0.709 -11.311  0.00  0.00     0.163 HD
ENDROOT
BRANCH   2   5
HETATM    5  C           1     -33.579  -2.799 -11.627  0.00  0.00     0.278 C 
BRANCH   5   6
HETATM    6  C           1     -33.549  -4.317 -11.754  0.00  0.00     0.021 C 
HETATM    7  C           1     -32.135  -4.771 -12.091  0.00  0.00     0.012 C 
BRANCH   6   8
HETATM    8  C           1     -33.982  -4.944 -10.435  0.00  0.00     0.002 C 
HETATM    9  C           1     -34.333  -6.409 -10.660  0.00  0.00     0.005 C 
ENDBRANCH   6   8
ENDBRANCH   5   6
BRANCH   5  10
HETATM   10  N           1     -33.940  -2.423 -10.220  0.00  0.00    -0.066 N 
HETATM   11  H           1     -33.322  -2.937  -9.552  0.00  0.00     0.275 HD
HETATM   12  H           1     -33.812  -1.393 -10.092  0.00  0.00     0.275 HD
HETATM   13  H           1     -34.937  -2.677 -10.038  0.00  0.00     0.275 HD
ENDBRANCH   5  10
ENDBRANCH   2   5
BRANCH   3  14
HETATM   14  C           1     -36.329  -0.595 -13.130  0.00  0.00     0.186 C 
BRANCH  14  15
HETATM   15  C           1     -37.500  -0.033 -12.335  0.00  0.00     0.046 C 
BRANCH  15  16
HETATM   16  C           1     -37.461  -0.583 -10.916  0.00  0.00     0.076 C 
BRANCH  16  17
HETATM   17  S           1     -37.420   0.794  -9.734  0.00  0.00    -0.173 SA
HETATM   18  C           1     -37.349  -0.229  -8.237  0.00  0.00     0.089 C 
ENDBRANCH  16  17
ENDBRANCH  15  16
ENDBRANCH  14  15
BRANCH  14  19
HETATM   19  C           1     -35.702   0.505 -13.949  0.00  0.00     0.196 C 
HETATM   20  O           1     -34.749   1.166 -13.483  0.00  0.00    -0.646 OA
HETATM   21  O           1     -36.136   0.758 -15.094  0.00  0.00    -0.646 OA
ENDBRANCH  14  19
ENDBRANCH   3  14
TORSDOF 9
ENDMDL
MODEL 2
REMARK VINA RESULT:      -5.8      2.496      3.497
REMARK  9 active torsions:
REMARK  status: ('A' for Active; 'I' for Inactive)
REMARK    1  A    between atoms: C_2  and  C_15 
REMARK    2  A    between atoms: C_2  and  C_4 
REMARK    3  A    between atoms: C_6  and  C_14 
REMARK    4  A    between atoms: C_6  and  C_7 
REMARK    5  A    between atoms: C_7  and  C_8 
REMARK    6  A    between atoms: C_7  and  N_17 
REMARK    7  A    between atoms: N_10  and  C_15 
REMARK    8  A    between atoms: C_14  and  S_19 
REMARK    9  A    between atoms: C_15  and  C_16 
REMARK       I    between atoms: C_16  and  N_17 
ROOT
HETATM    1  O           1     -33.273  -2.154 -10.918  0.00  0.00    -0.271 OA
HETATM    2  C           1     -33.942  -2.736 -11.739  0.00  0.00     0.249 C 
HETATM    3  N           1     -34.865  -2.049 -12.482  0.00  0.00    -0.345 N 
HETATM    4  H           1     -35.425  -2.536 -13.169  0.00  0.00     0.163 HD
ENDROOT
BRANCH   2   5
HETATM    5  C           1     -33.761  -4.219 -11.946  0.00  0.00     0.278 C 
BRANCH   5   6
HETATM    6  C           1     -34.235  -4.968 -10.708  0.00  0.00     0.021 C 
HETATM    7  C           1     -35.739  -4.785 -10.549  0.00  0.00     0.012 C 
BRANCH   6   8
HETATM    8  C           1     -33.918  -6.450 -10.859  0.00  0.00     0.002 C 
HETATM    9  C           1     -34.788  -7.256  -9.904  0.00  0.00     0.005 C 
ENDBRANCH   6   8
ENDBRANCH   5   6
BRANCH   5  10
HETATM   10  N           1     -32.309  -4.517 -12.184  0.00  0.00    -0.066 N 
HETATM   11  H           1     -32.021  -5.337 -11.603  0.00  0.00     0.275 HD
HETATM   12  H           1     -32.160  -4.736 -13.195  0.00  0.00     0.275 HD
HETATM   13  H           1     -31.736  -3.684 -11.919  0.00  0.00     0.275 HD
ENDBRANCH   5  10
ENDBRANCH   2   5
BRANCH   3  14
HETATM   14  C           1     -35.039  -0.623 -12.282  0.00  0.00     0.186 C 
BRANCH  14  15
HETATM   15  C           1     -35.377   0.037 -13.612  0.00  0.00     0.046 C 
BRANCH  15  16
HETATM   16  C           1     -36.849  -0.187 -13.930  0.00  0.00     0.076 C 
BRANCH  16  17
HETATM   17  S           1     -37.103  -0.087 -15.725  0.00  0.00    -0.173 SA
HETATM   18  C           1     -35.591  -0.978 -16.190  0.00  0.00     0.089 C 
ENDBRANCH  16  17
ENDBRANCH  15  16
ENDBRANCH  14  15
BRANCH  14  19
HETATM   19  C           1     -36.162  -0.386 -11.303  0.00  0.00     0.196 C 
HETATM   20  O           1     -36.239   0.702 -10.692  0.00  0.00    -0.646 OA
HETATM   21  O           1     -37.014  -1.278 -11.100  0.00  0.00    -0.646 OA
ENDBRANCH  14  19
ENDBRANCH   3  14
TORSDOF 9
ENDMDL
MODEL 3
REMARK VINA RESULT:      -5.6     14.364     16.418
REMARK  9 active torsions:
REMARK  status: ('A' for Active; 'I' for Inactive)
REMARK    1  A    between atoms: C_2  and  C_15 
REMARK    2  A    between atoms: C_2  and  C_4 
REMARK    3  A    between atoms: C_6  and  C_14 
REMARK    4  A    between atoms: C_6  and  C_7 
REMARK    5  A    between atoms: C_7  and  C_8 
REMARK    6  A    between atoms: C_7  and  N_17 
REMARK    7  A    between atoms: N_10  and  C_15 
REMARK    8  A    between atoms: C_14  and  S_19 
REMARK    9  A    between atoms: C_15  and  C_16 
REMARK       I    between atoms: C_16  and  N_17 
ROOT
HETATM    1  O           1     -22.149  -7.428  -4.729  0.00  0.00    -0.271 OA
HETATM    2  C           1     -21.532  -6.532  -4.205  0.00  0.00     0.249 C 
HETATM    3  N           1     -21.027  -5.511  -4.966  0.00  0.00    -0.345 N 
HETATM    4  H           1     -20.510  -4.761  -4.526  0.00  0.00     0.163 HD
ENDROOT
BRANCH   2   5
HETATM    5  C           1     -21.318  -6.536  -2.711  0.00  0.00     0.278 C 
BRANCH   5   6
HETATM    6  C           1     -21.447  -7.959  -2.182  0.00  0.00     0.021 C 
HETATM    7  C           1     -20.059  -8.554  -1.984  0.00  0.00     0.012 C 
BRANCH   6   8
HETATM    8  C           1     -22.185  -7.939  -0.851  0.00  0.00     0.002 C 
HETATM    9  C           1     -21.272  -8.475   0.245  0.00  0.00     0.005 C 
ENDBRANCH   6   8
ENDBRANCH   5   6
BRANCH   5  10
HETATM   10  N           1     -22.349  -5.664  -2.056  0.00  0.00    -0.066 N 
HETATM   11  H           1     -23.216  -6.221  -1.881  0.00  0.00     0.275 HD
HETATM   12  H           1     -21.975  -5.306  -1.148  0.00  0.00     0.275 HD
HETATM   13  H           1     -22.573  -4.860  -2.684  0.00  0.00     0.275 HD
ENDBRANCH   5  10
ENDBRANCH   2   5
BRANCH   3  14
HETATM   14  C           1     -21.233  -5.508  -6.401  0.00  0.00     0.186 C 
BRANCH  14  15
HETATM   15  C           1     -21.762  -4.147  -6.833  0.00  0.00     0.046 C 
BRANCH  15  16
HETATM   16  C           1     -23.056  -4.331  -7.617  0.00  0.00     0.076 C 
BRANCH  16  17
HETATM   17  S           1     -22.789  -3.850  -9.346  0.00  0.00    -0.173 SA
HETATM   18  C           1     -24.514  -3.409  -9.700  0.00  0.00     0.089 C 
ENDBRANCH  16  17
ENDBRANCH  15  16
ENDBRANCH  14  15
BRANCH  14  19
HETATM   19  C           1     -19.924  -5.783  -7.098  0.00  0.00     0.196 C 
HETATM   20  O           1     -19.391  -6.911  -7.005  0.00  0.00    -0.646 OA
HETATM   21  O           1     -19.370  -4.884  -7.767  0.00  0.00    -0.646 OA
ENDBRANCH  14  19
ENDBRANCH   3  14
TORSDOF 9
ENDMDL
MODEL 4
REMARK VINA RESULT:      -5.5      3.066      5.926
REMARK  9 active torsions:
REMARK  status: ('A' for Active; 'I' for Inactive)
REMARK    1  A    between atoms: C_2  and  C_15 
REMARK    2  A    between atoms: C_2  and  C_4 
REMARK    3  A    between atoms: C_6  and  C_14 
REMARK    4  A    between atoms: C_6  and  C_7 
REMARK    5  A    between atoms: C_7  and  C_8 
REMARK    6  A    between atoms: C_7  and  N_17 
REMARK    7  A    between atoms: N_10  and  C_15 
REMARK    8  A    between atoms: C_14  and  S_19 
REMARK    9  A    between atoms: C_15  and  C_16 
REMARK       I    between atoms: C_16  and  N_17 
ROOT
HETATM    1  O           1     -34.723  -1.495 -10.123  0.00  0.00    -0.271 OA
HETATM    2  C           1     -35.401  -1.689 -11.104  0.00  0.00     0.249 C 
HETATM    3  N           1     -35.274  -2.858 -11.805  0.00  0.00    -0.345 N 
HETATM    4  H           1     -35.841  -3.020 -12.627  0.00  0.00     0.163 HD
ENDROOT
BRANCH   2   5
HETATM    5  C           1     -36.390  -0.643 -11.557  0.00  0.00     0.278 C 
BRANCH   5   6
HETATM    6  C           1     -36.262  -0.438 -13.062  0.00  0.00     0.021 C 
HETATM    7  C           1     -37.617  -0.049 -13.638  0.00  0.00     0.012 C 
BRANCH   6   8
HETATM    8  C           1     -35.256   0.671 -13.338  0.00  0.00     0.002 C 
HETATM    9  C           1     -35.018   0.779 -14.839  0.00  0.00     0.005 C 
ENDBRANCH   6   8
ENDBRANCH   5   6
BRANCH   5  10
HETATM   10  N           1     -36.106   0.651 -10.852  0.00  0.00    -0.066 N 
HETATM   11  H           1     -35.894   1.393 -11.556  0.00  0.00     0.275 HD
HETATM   12  H           1     -36.943   0.932 -10.291  0.00  0.00     0.275 HD
HETATM   13  H           1     -35.285   0.528 -10.218  0.00  0.00     0.275 HD
ENDBRANCH   5  10
ENDBRANCH   2   5
BRANCH   3  14
HETATM   14  C           1     -34.323  -3.863 -11.370  0.00  0.00     0.186 C 
BRANCH  14  15
HETATM   15  C           1     -35.054  -5.175 -11.118  0.00  0.00     0.046 C 
BRANCH  15  16
HETATM   16  C           1     -34.068  -6.215 -10.601  0.00  0.00     0.076 C 
BRANCH  16  17
HETATM   17  S           1     -34.973  -7.535  -9.746  0.00  0.00    -0.173 SA
HETATM   18  C           1     -33.714  -8.822  -9.978  0.00  0.00     0.089 C 
ENDBRANCH  16  17
ENDBRANCH  15  16
ENDBRANCH  14  15
BRANCH  14  19
HETATM   19  C           1     -33.279  -4.065 -12.440  0.00  0.00     0.196 C 
HETATM   20  O           1     -32.110  -4.374 -12.122  0.00  0.00    -0.646 OA
HETATM   21  O           1     -33.583  -3.923 -13.644  0.00  0.00    -0.646 OA
ENDBRANCH  14  19
ENDBRANCH   3  14
TORSDOF 9
ENDMDL
MODEL 5
REMARK VINA RESULT:      -5.4      3.003      5.762
REMARK  9 active torsions:
REMARK  status: ('A' for Active; 'I' for Inactive)
REMARK    1  A    between atoms: C_2  and  C_15 
REMARK    2  A    between atoms: C_2  and  C_4 
REMARK    3  A    between atoms: C_6  and  C_14 
REMARK    4  A    between atoms: C_6  and  C_7 
REMARK    5  A    between atoms: C_7  and  C_8 
REMARK    6  A    between atoms: C_7  and  N_17 
REMARK    7  A    between atoms: N_10  and  C_15 
REMARK    8  A    between atoms: C_14  and  S_19 
REMARK    9  A    between atoms: C_15  and  C_16 
REMARK       I    between atoms: C_16  and  N_17 
ROOT
HETATM    1  O           1     -36.758  -0.961 -12.241  0.00  0.00    -0.271 OA
HETATM    2  C           1     -35.902  -0.881 -13.090  0.00  0.00     0.249 C 
HETATM    3  N           1     -34.852  -1.759 -13.088  0.00  0.00    -0.345 N 
HETATM    4  H           1     -34.135  -1.691 -13.799  0.00  0.00     0.163 HD
ENDROOT
BRANCH   2   5
HETATM    5  C           1     -35.991   0.188 -14.152  0.00  0.00     0.278 C 
BRANCH   5   6
HETATM    6  C           1     -36.707  -0.369 -15.376  0.00  0.00     0.021 C 
HETATM    7  C           1     -37.881   0.534 -15.731  0.00  0.00     0.012 C 
BRANCH   6   8
HETATM    8  C           1     -35.737  -0.424 -16.548  0.00  0.00     0.002 C 
HETATM    9  C           1     -35.281  -1.862 -16.762  0.00  0.00     0.005 C 
ENDBRANCH   6   8
ENDBRANCH   5   6
BRANCH   5  10
HETATM   10  N           1     -34.608   0.624 -14.538  0.00  0.00    -0.066 N 
HETATM   11  H           1     -33.917   0.236 -13.857  0.00  0.00     0.275 HD
HETATM   12  H           1     -34.388   0.271 -15.497  0.00  0.00     0.275 HD
HETATM   13  H           1     -34.558   1.667 -14.530  0.00  0.00     0.275 HD
ENDBRANCH   5  10
ENDBRANCH   2   5
BRANCH   3  14
HETATM   14  C           1     -34.768  -2.785 -12.067  0.00  0.00     0.186 C 
BRANCH  14  15
HETATM   15  C           1     -34.276  -4.083 -12.693  0.00  0.00     0.046 C 
BRANCH  15  16
HETATM   16  C           1     -34.926  -5.266 -11.988  0.00  0.00     0.076 C 
BRANCH  16  17
HETATM   17  S           1     -33.699  -6.093 -10.938  0.00  0.00    -0.173 SA
HETATM   18  C           1     -34.853  -7.260 -10.163  0.00  0.00     0.089 C 
ENDBRANCH  16  17
ENDBRANCH  15  16
ENDBRANCH  14  15
BRANCH  14  19
HETATM   19  C           1     -33.803  -2.347 -10.993  0.00  0.00     0.196 C 
HETATM   20  O           1     -32.606  -2.705 -11.044  0.00  0.00    -0.646 OA
HETATM   21  O           1     -34.201  -1.628 -10.051  0.00  0.00    -0.646 OA
ENDBRANCH  14  19
ENDBRANCH   3  14
TORSDOF 9
ENDMDL
MODEL 6
REMARK VINA RESULT:      -5.1     17.090     18.389
REMARK  9 active torsions:
REMARK  status: ('A' for Active; 'I' for Inactive)
REMARK    1  A    between atoms: C_2  and  C_15 
REMARK    2  A    between atoms: C_2  and  C_4 
REMARK    3  A    between atoms: C_6  and  C_14 
REMARK    4  A    between atoms: C_6  and  C_7 
REMARK    5  A    between atoms: C_7  and  C_8 
REMARK    6  A    between atoms: C_7  and  N_17 
REMARK    7  A    between atoms: N_10  and  C_15 
REMARK    8  A    between atoms: C_14  and  S_19 
REMARK    9  A    between atoms: C_15  and  C_16 
REMARK       I    between atoms: C_16  and  N_17 
ROOT
HETATM    1  O           1     -21.679  -9.658  -2.510  0.00  0.00    -0.271 OA
HETATM    2  C           1     -21.296  -8.530  -2.313  0.00  0.00     0.249 C 
HETATM    3  N           1     -20.771  -7.795  -3.342  0.00  0.00    -0.345 N 
HETATM    4  H           1     -20.449  -6.850  -3.177  0.00  0.00     0.163 HD
ENDROOT
BRANCH   2   5
HETATM    5  C           1     -21.396  -7.929  -0.933  0.00  0.00     0.278 C 
BRANCH   5   6
HETATM    6  C           1     -21.790  -9.010   0.066  0.00  0.00     0.021 C 
HETATM    7  C           1     -21.076  -8.764   1.389  0.00  0.00     0.012 C 
BRANCH   6   8
HETATM    8  C           1     -23.296  -8.970   0.287  0.00  0.00     0.002 C 
HETATM    9  C           1     -23.885 -10.350   0.023  0.00  0.00     0.005 C 
ENDBRANCH   6   8
ENDBRANCH   5   6
BRANCH   5  10
HETATM   10  N           1     -22.435  -6.847  -0.933  0.00  0.00    -0.066 N 
HETATM   11  H           1     -22.019  -5.963  -0.562  0.00  0.00     0.275 HD
HETATM   12  H           1     -22.774  -6.690  -1.909  0.00  0.00     0.275 HD
HETATM   13  H           1     -23.236  -7.135  -0.327  0.00  0.00     0.275 HD
ENDBRANCH   5  10
ENDBRANCH   2   5
BRANCH   3  14
HETATM   14  C           1     -20.675  -8.373  -4.669  0.00  0.00     0.186 C 
BRANCH  14  15
HETATM   15  C           1     -21.109  -7.343  -5.703  0.00  0.00     0.046 C 
BRANCH  15  16
HETATM   16  C           1     -21.298  -5.992  -5.025  0.00  0.00     0.076 C 
BRANCH  16  17
HETATM   17  S           1     -20.317  -4.737  -5.895  0.00  0.00    -0.173 SA
HETATM   18  C           1     -20.001  -5.725  -7.384  0.00  0.00     0.089 C 
ENDBRANCH  16  17
ENDBRANCH  15  16
ENDBRANCH  14  15
BRANCH  14  19
HETATM   19  C           1     -19.248  -8.784  -4.936  0.00  0.00     0.196 C 
HETATM   20  O           1     -18.819  -8.827  -6.110  0.00  0.00    -0.646 OA
HETATM   21  O           1     -18.494  -9.083  -3.984  0.00  0.00    -0.646 OA
ENDBRANCH  14  19
ENDBRANCH   3  14
TORSDOF 9
ENDMDL
MODEL 7
REMARK VINA RESULT:      -5.1     14.838     17.082
REMARK  9 active torsions:
REMARK  status: ('A' for Active; 'I' for Inactive)
REMARK    1  A    between atoms: C_2  and  C_15 
REMARK    2  A    between atoms: C_2  and  C_4 
REMARK    3  A    between atoms: C_6  and  C_14 
REMARK    4  A    between atoms: C_6  and  C_7 
REMARK    5  A    between atoms: C_7  and  C_8 
REMARK    6  A    between atoms: C_7  and  N_17 
REMARK    7  A    between atoms: N_10  and  C_15 
REMARK    8  A    between atoms: C_14  and  S_19 
REMARK    9  A    between atoms: C_15  and  C_16 
REMARK       I    between atoms: C_16  and  N_17 
ROOT
HETATM    1  O           1     -22.862  -5.729  -5.740  0.00  0.00    -0.271 OA
HETATM    2  C           1     -21.660  -5.603  -5.721  0.00  0.00     0.249 C 
HETATM    3  N           1     -20.902  -6.386  -4.893  0.00  0.00    -0.345 N 
HETATM    4  H           1     -19.896  -6.280  -4.877  0.00  0.00     0.163 HD
ENDROOT
BRANCH   2   5
HETATM    5  C           1     -20.995  -4.583  -6.612  0.00  0.00     0.278 C 
BRANCH   5   6
HETATM    6  C           1     -21.369  -4.854  -8.064  0.00  0.00     0.021 C 
HETATM    7  C           1     -22.362  -3.800  -8.537  0.00  0.00     0.012 C 
BRANCH   6   8
HETATM    8  C           1     -20.117  -4.794  -8.928  0.00  0.00     0.002 C 
HETATM    9  C           1     -20.491  -4.345 -10.335  0.00  0.00     0.005 C 
ENDBRANCH   6   8
ENDBRANCH   5   6
BRANCH   5  10
HETATM   10  N           1     -19.506  -4.677  -6.454  0.00  0.00    -0.066 N 
HETATM   11  H           1     -19.233  -5.675  -6.302  0.00  0.00     0.275 HD
HETATM   12  H           1     -19.041  -4.317  -7.318  0.00  0.00     0.275 HD
HETATM   13  H           1     -19.206  -4.105  -5.632  0.00  0.00     0.275 HD
ENDBRANCH   5  10
ENDBRANCH   2   5
BRANCH   3  14
HETATM   14  C           1     -21.542  -7.366  -4.037  0.00  0.00     0.186 C 
BRANCH  14  15
HETATM   15  C           1     -20.735  -8.657  -4.054  0.00  0.00     0.046 C 
BRANCH  15  16
HETATM   16  C           1     -21.081  -9.456  -5.304  0.00  0.00     0.076 C 
BRANCH  16  17
HETATM   17  S           1     -21.070 -11.228  -4.912  0.00  0.00    -0.173 SA
HETATM   18  C           1     -21.386 -11.808  -6.603  0.00  0.00     0.089 C 
ENDBRANCH  16  17
ENDBRANCH  15  16
ENDBRANCH  14  15
BRANCH  14  19
HETATM   19  C           1     -21.611  -6.834  -2.627  0.00  0.00     0.196 C 
HETATM   20  O           1     -20.871  -7.314  -1.741  0.00  0.00    -0.646 OA
HETATM   21  O           1     -22.409  -5.914  -2.344  0.00  0.00    -0.646 OA
ENDBRANCH  14  19
ENDBRANCH   3  14
TORSDOF 9
ENDMDL
MODEL 8
REMARK VINA RESULT:      -4.9      2.547      4.899
REMARK  9 active torsions:
REMARK  status: ('A' for Active; 'I' for Inactive)
REMARK    1  A    between atoms: C_2  and  C_15 
REMARK    2  A    between atoms: C_2  and  C_4 
REMARK    3  A    between atoms: C_6  and  C_14 
REMARK    4  A    between atoms: C_6  and  C_7 
REMARK    5  A    between atoms: C_7  and  C_8 
REMARK    6  A    between atoms: C_7  and  N_17 
REMARK    7  A    between atoms: N_10  and  C_15 
REMARK    8  A    between atoms: C_14  and  S_19 
REMARK    9  A    between atoms: C_15  and  C_16 
REMARK       I    between atoms: C_16  and  N_17 
ROOT
HETATM    1  O           1     -34.897   0.751 -13.237  0.00  0.00    -0.271 OA
HETATM    2  C           1     -36.020   0.364 -13.456  0.00  0.00     0.249 C 
HETATM    3  N           1     -36.723  -0.285 -12.477  0.00  0.00    -0.345 N 
HETATM    4  H           1     -37.664  -0.609 -12.661  0.00  0.00     0.163 HD
ENDROOT
BRANCH   2   5
HETATM    5  C           1     -36.649   0.598 -14.808  0.00  0.00     0.278 C 
BRANCH   5   6
HETATM    6  C           1     -36.716  -0.719 -15.572  0.00  0.00     0.021 C 
HETATM    7  C           1     -38.070  -0.838 -16.260  0.00  0.00     0.012 C 
BRANCH   6   8
HETATM    8  C           1     -35.611  -0.753 -16.619  0.00  0.00     0.002 C 
HETATM    9  C           1     -35.062  -2.169 -16.732  0.00  0.00     0.005 C 
ENDBRANCH   6   8
ENDBRANCH   5   6
BRANCH   5  10
HETATM   10  N           1     -35.821   1.582 -15.581  0.00  0.00    -0.066 N 
HETATM   11  H           1     -36.288   1.791 -16.492  0.00  0.00     0.275 HD
HETATM   12  H           1     -35.724   2.464 -15.028  0.00  0.00     0.275 HD
HETATM   13  H           1     -34.875   1.176 -15.759  0.00  0.00     0.275 HD
ENDBRANCH   5  10
ENDBRANCH   2   5
BRANCH   3  14
HETATM   14  C           1     -36.119  -0.509 -11.178  0.00  0.00     0.186 C 
BRANCH  14  15
HETATM   15  C           1     -37.213  -0.663 -10.130  0.00  0.00     0.046 C 
BRANCH  15  16
HETATM   16  C           1     -36.707  -0.150  -8.789  0.00  0.00     0.076 C 
BRANCH  16  17
HETATM   17  S           1     -37.902   1.031  -8.102  0.00  0.00    -0.173 SA
HETATM   18  C           1     -37.252   1.011  -6.408  0.00  0.00     0.089 C 
ENDBRANCH  16  17
ENDBRANCH  15  16
ENDBRANCH  14  15
BRANCH  14  19
HETATM   19  C           1     -35.284  -1.765 -11.222  0.00  0.00     0.196 C 
HETATM   20  O           1     -35.702  -2.773 -11.832  0.00  0.00    -0.646 OA
HETATM   21  O           1     -34.174  -1.799 -10.647  0.00  0.00    -0.646 OA
ENDBRANCH  14  19
ENDBRANCH   3  14
TORSDOF 9
ENDMDL
MODEL 9
REMARK VINA RESULT:      -4.9     17.256     18.420
REMARK  9 active torsions:
REMARK  status: ('A' for Active; 'I' for Inactive)
REMARK    1  A    between atoms: C_2  and  C_15 
REMARK    2  A    between atoms: C_2  and  C_4 
REMARK    3  A    between atoms: C_6  and  C_14 
REMARK    4  A    between atoms: C_6  and  C_7 
REMARK    5  A    between atoms: C_7  and  C_8 
REMARK    6  A    between atoms: C_7  and  N_17 
REMARK    7  A    between atoms: N_10  and  C_15 
REMARK    8  A    between atoms: C_14  and  S_19 
REMARK    9  A    between atoms: C_15  and  C_16 
REMARK       I    between atoms: C_16  and  N_17 
ROOT
HETATM    1  O           1     -19.568  -8.727  -2.090  0.00  0.00    -0.271 OA
HETATM    2  C           1     -20.575  -8.060  -2.083  0.00  0.00     0.249 C 
HETATM    3  N           1     -21.110  -7.615  -3.262  0.00  0.00    -0.345 N 
HETATM    4  H           1     -21.953  -7.055  -3.256  0.00  0.00     0.163 HD
ENDROOT
BRANCH   2   5
HETATM    5  C           1     -21.243  -7.717  -0.775  0.00  0.00     0.278 C 
BRANCH   5   6
HETATM    6  C           1     -21.656  -8.999  -0.063  0.00  0.00     0.021 C 
HETATM    7  C           1     -20.984  -9.060   1.303  0.00  0.00     0.012 C 
BRANCH   6   8
HETATM    8  C           1     -23.168  -9.015   0.115  0.00  0.00     0.002 C 
HETATM    9  C           1     -23.700 -10.412  -0.176  0.00  0.00     0.005 C 
ENDBRANCH   6   8
ENDBRANCH   5   6
BRANCH   5  10
HETATM   10  N           1     -22.460  -6.879  -1.040  0.00  0.00    -0.066 N 
HETATM   11  H           1     -22.296  -5.907  -0.693  0.00  0.00     0.275 HD
HETATM   12  H           1     -22.649  -6.857  -2.067  0.00  0.00     0.275 HD
HETATM   13  H           1     -23.281  -7.292  -0.542  0.00  0.00     0.275 HD
ENDBRANCH   5  10
ENDBRANCH   2   5
BRANCH   3  14
HETATM   14  C           1     -20.466  -7.944  -4.520  0.00  0.00     0.186 C 
BRANCH  14  15
HETATM   15  C           1     -21.242  -9.059  -5.208  0.00  0.00     0.046 C 
BRANCH  15  16
HETATM   16  C           1     -20.407 -10.333  -5.207  0.00  0.00     0.076 C 
BRANCH  16  17
HETATM   17  S           1     -21.226 -11.594  -6.224  0.00  0.00    -0.173 SA
HETATM   18  C           1     -22.351 -12.194  -4.933  0.00  0.00     0.089 C 
ENDBRANCH  16  17
ENDBRANCH  15  16
ENDBRANCH  14  15
BRANCH  14  19
HETATM   19  C           1     -20.444  -6.724  -5.408  0.00  0.00     0.196 C 
HETATM   20  O           1     -20.107  -6.831  -6.607  0.00  0.00    -0.646 OA
HETATM   21  O           1     -20.760  -5.607  -4.944  0.00  0.00    -0.646 OA
ENDBRANCH  14  19
ENDBRANCH   3  14
TORSDOF 9
ENDMDL
