MODEL 1
REMARK VINA RESULT:      -8.1      0.000      0.000
REMARK  10 active torsions:
REMARK  status: ('A' for Active; 'I' for Inactive)
REMARK    1  A    between atoms: C_2  and  C_3 
REMARK    2  A    between atoms: C_2  and  C_17 
REMARK    3  A    between atoms: C_3  and  N_4 
REMARK       I    between atoms: N_4  and  C_24 
REMARK    4  A    between atoms: C_8  and  C_19 
REMARK       I    between atoms: N_10  and  C_24 
REMARK    5  A    between atoms: C_14  and  C_15 
REMARK    6  A    between atoms: C_14  and  C_19 
REMARK    7  A    between atoms: C_14  and  N_29 
REMARK       I    between atoms: C_15  and  N_21 
REMARK    8  A    between atoms: C_17  and  C_31 
REMARK    9  A    between atoms: N_21  and  C_31 
REMARK   10  A    between atoms: C_30  and  C_31 
ROOT
HETATM    1  C           1     -34.066  -4.512 -15.103  0.00  0.00     0.249 C 
HETATM    2  N           1     -33.552  -3.776 -14.069  0.00  0.00    -0.345 N 
HETATM    3  H           1     -32.691  -3.259 -14.194  0.00  0.00     0.163 HD
HETATM    4  O           1     -35.094  -5.129 -14.952  0.00  0.00    -0.271 OA
ENDROOT
BRANCH   1   5
HETATM    5  C           1     -33.349  -4.552 -16.430  0.00  0.00     0.278 C 
BRANCH   5   6
HETATM    6  C           1     -31.845  -4.528 -16.196  0.00  0.00     0.083 C 
BRANCH   6   7
HETATM    7  C           1     -31.192  -5.584 -17.032  0.00  0.00    -0.028 A 
HETATM    8  C           1     -31.809  -6.691 -17.566  0.00  0.00     0.096 A 
HETATM    9  N           1     -30.865  -7.401 -18.262  0.00  0.00    -0.365 N 
HETATM   10  C           1     -29.644  -6.771 -18.187  0.00  0.00     0.042 A 
HETATM   11  H           1     -31.048  -8.298 -18.777  0.00  0.00     0.165 HD
HETATM   12  C           1     -29.823  -5.621 -17.416  0.00  0.00    -0.002 A 
HETATM   13  C           1     -28.408  -7.127 -18.737  0.00  0.00     0.030 A 
HETATM   14  C           1     -28.716  -4.784 -17.182  0.00  0.00     0.014 A 
HETATM   15  C           1     -27.471  -5.125 -17.725  0.00  0.00     0.001 A 
HETATM   16  C           1     -27.322  -6.280 -18.490  0.00  0.00     0.002 A 
ENDBRANCH   6   7
ENDBRANCH   5   6
BRANCH   5  17
HETATM   17  N           1     -33.747  -3.359 -17.248  0.00  0.00    -0.066 N 
HETATM   18  H           1     -34.776  -3.204 -17.162  0.00  0.00     0.275 HD
HETATM   19  H           1     -33.237  -2.515 -16.902  0.00  0.00     0.275 HD
HETATM   20  H           1     -33.503  -3.528 -18.251  0.00  0.00     0.275 HD
ENDBRANCH   5  17
ENDBRANCH   1   5
BRANCH   2  21
HETATM   21  C           1     -34.241  -3.737 -12.794  0.00  0.00     0.185 C 
BRANCH  21  22
HETATM   22  C           1     -33.225  -3.838 -11.663  0.00  0.00     0.038 C 
BRANCH  22  23
HETATM   23  C           1     -33.823  -4.636 -10.512  0.00  0.00     0.023 C 
BRANCH  23  24
HETATM   24  C           1     -34.638  -5.797 -11.068  0.00  0.00     0.138 C 
BRANCH  24  25
HETATM   25  N           1     -33.846  -7.033 -10.993  0.00  0.00    -0.227 N 
HETATM   26  C           1     -34.193  -7.960 -10.204  0.00  0.00     0.665 C 
HETATM   27  N           1     -33.493  -9.054 -10.137  0.00  0.00    -0.235 N 
HETATM   28  N           1     -35.223  -7.823  -9.481  0.00  0.00    -0.235 N 
HETATM   29  H           1     -32.643  -9.166 -10.734  0.00  0.00     0.174 HD
HETATM   30  H           1     -33.779  -9.819  -9.487  0.00  0.00     0.174 HD
HETATM   31  H           1     -35.789  -6.941  -9.535  0.00  0.00     0.174 HD
HETATM   32  H           1     -35.511  -8.593  -8.827  0.00  0.00     0.174 HD
HETATM   33  H           1     -32.991  -7.146 -11.592  0.00  0.00     0.177 HD
ENDBRANCH  24  25
ENDBRANCH  23  24
ENDBRANCH  22  23
ENDBRANCH  21  22
BRANCH  21  34
HETATM   34  C           1     -35.000  -2.438 -12.672  0.00  0.00     0.196 C 
HETATM   35  O           1     -35.843  -2.290 -11.761  0.00  0.00    -0.646 OA
HETATM   36  O           1     -34.786  -1.511 -13.483  0.00  0.00    -0.646 OA
ENDBRANCH  21  34
ENDBRANCH   2  21
TORSDOF 10
ENDMDL
MODEL 2
REMARK VINA RESULT:      -8.0     14.153     15.521
REMARK  10 active torsions:
REMARK  status: ('A' for Active; 'I' for Inactive)
REMARK    1  A    between atoms: C_2  and  C_3 
REMARK    2  A    between atoms: C_2  and  C_17 
REMARK    3  A    between atoms: C_3  and  N_4 
REMARK       I    between atoms: N_4  and  C_24 
REMARK    4  A    between atoms: C_8  and  C_19 
REMARK       I    between atoms: N_10  and  C_24 
REMARK    5  A    between atoms: C_14  and  C_15 
REMARK    6  A    between atoms: C_14  and  C_19 
REMARK    7  A    between atoms: C_14  and  N_29 
REMARK       I    between atoms: C_15  and  N_21 
REMARK    8  A    between atoms: C_17  and  C_31 
REMARK    9  A    between atoms: N_21  and  C_31 
REMARK   10  A    between atoms: C_30  and  C_31 
ROOT
HETATM    1  C           1     -20.483  -7.354  -5.477  0.00  0.00     0.249 C 
HETATM    2  N           1     -20.495  -8.284  -4.471  0.00  0.00    -0.345 N 
HETATM    3  H           1     -21.257  -8.301  -3.806  0.00  0.00     0.163 HD
HETATM    4  O           1     -19.573  -7.335  -6.270  0.00  0.00    -0.271 OA
ENDROOT
BRANCH   1   5
HETATM    5  C           1     -21.608  -6.356  -5.594  0.00  0.00     0.278 C 
BRANCH   5   6
HETATM    6  C           1     -21.078  -5.061  -6.194  0.00  0.00     0.083 C 
BRANCH   6   7
HETATM    7  C           1     -21.953  -4.644  -7.335  0.00  0.00    -0.028 A 
HETATM    8  C           1     -23.299  -4.365  -7.264  0.00  0.00     0.096 A 
HETATM    9  N           1     -23.722  -4.022  -8.521  0.00  0.00    -0.365 N 
HETATM   10  C           1     -22.670  -4.073  -9.408  0.00  0.00     0.042 A 
HETATM   11  H           1     -24.707  -3.758  -8.772  0.00  0.00     0.165 HD
HETATM   12  C           1     -21.543  -4.463  -8.685  0.00  0.00    -0.002 A 
HETATM   13  C           1     -22.632  -3.806 -10.781  0.00  0.00     0.030 A 
HETATM   14  C           1     -20.316  -4.593  -9.361  0.00  0.00     0.014 A 
HETATM   15  C           1     -20.259  -4.329 -10.735  0.00  0.00     0.001 A 
HETATM   16  C           1     -21.402  -3.943 -11.432  0.00  0.00     0.002 A 
ENDBRANCH   6   7
ENDBRANCH   5   6
BRANCH   5  17
HETATM   17  N           1     -22.173  -6.079  -4.232  0.00  0.00    -0.066 N 
HETATM   18  H           1     -21.673  -6.661  -3.522  0.00  0.00     0.275 HD
HETATM   19  H           1     -22.051  -5.067  -4.003  0.00  0.00     0.275 HD
HETATM   20  H           1     -23.191  -6.319  -4.223  0.00  0.00     0.275 HD
ENDBRANCH   5  17
ENDBRANCH   1   5
BRANCH   2  21
HETATM   21  C           1     -19.414  -9.244  -4.359  0.00  0.00     0.185 C 
BRANCH  21  22
HETATM   22  C           1     -19.001  -9.376  -2.899  0.00  0.00     0.038 C 
BRANCH  22  23
HETATM   23  C           1     -19.960  -8.580  -2.025  0.00  0.00     0.023 C 
BRANCH  23  24
HETATM   24  C           1     -20.690  -9.525  -1.079  0.00  0.00     0.138 C 
BRANCH  24  25
HETATM   25  N           1     -22.031  -8.995  -0.793  0.00  0.00    -0.227 N 
HETATM   26  C           1     -22.288  -8.503   0.344  0.00  0.00     0.665 C 
HETATM   27  N           1     -23.474  -8.034   0.597  0.00  0.00    -0.235 N 
HETATM   28  N           1     -21.389  -8.465   1.235  0.00  0.00    -0.235 N 
HETATM   29  H           1     -24.215  -8.065  -0.139  0.00  0.00     0.174 HD
HETATM   30  H           1     -23.686  -7.627   1.535  0.00  0.00     0.174 HD
HETATM   31  H           1     -20.431  -8.843   1.031  0.00  0.00     0.174 HD
HETATM   32  H           1     -21.602  -8.056   2.178  0.00  0.00     0.174 HD
HETATM   33  H           1     -22.776  -9.026  -1.533  0.00  0.00     0.177 HD
ENDBRANCH  24  25
ENDBRANCH  23  24
ENDBRANCH  22  23
ENDBRANCH  21  22
BRANCH  21  34
HETATM   34  C           1     -19.879 -10.586  -4.873  0.00  0.00     0.196 C 
HETATM   35  O           1     -20.237 -10.709  -6.063  0.00  0.00    -0.646 OA
HETATM   36  O           1     -19.905 -11.573  -4.106  0.00  0.00    -0.646 OA
ENDBRANCH  21  34
ENDBRANCH   2  21
TORSDOF 10
ENDMDL
MODEL 3
REMARK VINA RESULT:      -7.6     14.064     15.375
REMARK  10 active torsions:
REMARK  status: ('A' for Active; 'I' for Inactive)
REMARK    1  A    between atoms: C_2  and  C_3 
REMARK    2  A    between atoms: C_2  and  C_17 
REMARK    3  A    between atoms: C_3  and  N_4 
REMARK       I    between atoms: N_4  and  C_24 
REMARK    4  A    between atoms: C_8  and  C_19 
REMARK       I    between atoms: N_10  and  C_24 
REMARK    5  A    between atoms: C_14  and  C_15 
REMARK    6  A    between atoms: C_14  and  C_19 
REMARK    7  A    between atoms: C_14  and  N_29 
REMARK       I    between atoms: C_15  and  N_21 
REMARK    8  A    between atoms: C_17  and  C_31 
REMARK    9  A    between atoms: N_21  and  C_31 
REMARK   10  A    between atoms: C_30  and  C_31 
ROOT
HETATM    1  C           1     -20.692  -7.436  -5.360  0.00  0.00     0.249 C 
HETATM    2  N           1     -20.972  -8.086  -4.187  0.00  0.00    -0.345 N 
HETATM    3  H           1     -21.809  -7.855  -3.668  0.00  0.00     0.163 HD
HETATM    4  O           1     -19.692  -7.712  -5.979  0.00  0.00    -0.271 OA
ENDROOT
BRANCH   1   5
HETATM    5  C           1     -21.633  -6.376  -5.878  0.00  0.00     0.278 C 
BRANCH   5   6
HETATM    6  C           1     -20.877  -5.066  -6.049  0.00  0.00     0.083 C 
BRANCH   6   7
HETATM    7  C           1     -20.804  -4.717  -7.503  0.00  0.00    -0.028 A 
HETATM    8  C           1     -19.666  -4.706  -8.277  0.00  0.00     0.096 A 
HETATM    9  N           1     -20.027  -4.333  -9.546  0.00  0.00    -0.365 N 
HETATM   10  C           1     -21.383  -4.103  -9.607  0.00  0.00     0.042 A 
HETATM   11  H           1     -19.364  -4.238 -10.355  0.00  0.00     0.165 HD
HETATM   12  C           1     -21.896  -4.337  -8.331  0.00  0.00    -0.002 A 
HETATM   13  C           1     -22.185  -3.709 -10.683  0.00  0.00     0.030 A 
HETATM   14  C           1     -23.277  -4.172  -8.115  0.00  0.00     0.014 A 
HETATM   15  C           1     -24.095  -3.779  -9.182  0.00  0.00     0.001 A 
HETATM   16  C           1     -23.554  -3.550 -10.445  0.00  0.00     0.002 A 
ENDBRANCH   6   7
ENDBRANCH   5   6
BRANCH   5  17
HETATM   17  N           1     -22.753  -6.183  -4.900  0.00  0.00    -0.066 N 
HETATM   18  H           1     -23.520  -6.862  -5.110  0.00  0.00     0.275 HD
HETATM   19  H           1     -22.401  -6.344  -3.930  0.00  0.00     0.275 HD
HETATM   20  H           1     -23.121  -5.208  -4.981  0.00  0.00     0.275 HD
ENDBRANCH   5  17
ENDBRANCH   1   5
BRANCH   2  21
HETATM   21  C           1     -20.068  -9.104  -3.690  0.00  0.00     0.185 C 
BRANCH  21  22
HETATM   22  C           1     -19.672  -8.777  -2.255  0.00  0.00     0.038 C 
BRANCH  22  23
HETATM   23  C           1     -20.684  -7.808  -1.658  0.00  0.00     0.023 C 
BRANCH  23  24
HETATM   24  C           1     -21.094  -8.292  -0.273  0.00  0.00     0.138 C 
BRANCH  24  25
HETATM   25  N           1     -21.970  -9.465  -0.402  0.00  0.00    -0.227 N 
HETATM   26  C           1     -23.167  -9.409   0.007  0.00  0.00     0.665 C 
HETATM   27  N           1     -23.942 -10.446  -0.108  0.00  0.00    -0.235 N 
HETATM   28  N           1     -23.610  -8.342   0.525  0.00  0.00    -0.235 N 
HETATM   29  H           1     -23.577 -11.327  -0.536  0.00  0.00     0.174 HD
HETATM   30  H           1     -24.930 -10.401   0.229  0.00  0.00     0.174 HD
HETATM   31  H           1     -22.984  -7.504   0.617  0.00  0.00     0.174 HD
HETATM   32  H           1     -24.602  -8.296   0.864  0.00  0.00     0.174 HD
HETATM   33  H           1     -21.603 -10.350  -0.832  0.00  0.00     0.177 HD
ENDBRANCH  24  25
ENDBRANCH  23  24
ENDBRANCH  22  23
ENDBRANCH  21  22
BRANCH  21  34
HETATM   34  C           1     -20.755 -10.448  -3.726  0.00  0.00     0.196 C 
HETATM   35  O           1     -20.858 -11.125  -2.681  0.00  0.00    -0.646 OA
HETATM   36  O           1     -21.221 -10.883  -4.802  0.00  0.00    -0.646 OA
ENDBRANCH  21  34
ENDBRANCH   2  21
TORSDOF 10
ENDMDL
MODEL 4
REMARK VINA RESULT:      -7.6     14.968     16.410
REMARK  10 active torsions:
REMARK  status: ('A' for Active; 'I' for Inactive)
REMARK    1  A    between atoms: C_2  and  C_3 
REMARK    2  A    between atoms: C_2  and  C_17 
REMARK    3  A    between atoms: C_3  and  N_4 
REMARK       I    between atoms: N_4  and  C_24 
REMARK    4  A    between atoms: C_8  and  C_19 
REMARK       I    between atoms: N_10  and  C_24 
REMARK    5  A    between atoms: C_14  and  C_15 
REMARK    6  A    between atoms: C_14  and  C_19 
REMARK    7  A    between atoms: C_14  and  N_29 
REMARK       I    between atoms: C_15  and  N_21 
REMARK    8  A    between atoms: C_17  and  C_31 
REMARK    9  A    between atoms: N_21  and  C_31 
REMARK   10  A    between atoms: C_30  and  C_31 
ROOT
HETATM    1  C           1     -20.193  -7.303  -5.532  0.00  0.00     0.249 C 
HETATM    2  N           1     -20.067  -8.241  -4.542  0.00  0.00    -0.345 N 
HETATM    3  H           1     -20.701  -8.233  -3.753  0.00  0.00     0.163 HD
HETATM    4  O           1     -19.435  -7.314  -6.473  0.00  0.00    -0.271 OA
ENDROOT
BRANCH   1   5
HETATM    5  C           1     -21.278  -6.258  -5.448  0.00  0.00     0.278 C 
BRANCH   5   6
HETATM    6  C           1     -20.815  -4.988  -6.147  0.00  0.00     0.083 C 
BRANCH   6   7
HETATM    7  C           1     -21.781  -4.636  -7.235  0.00  0.00    -0.028 A 
HETATM    8  C           1     -23.132  -4.423  -7.082  0.00  0.00     0.096 A 
HETATM    9  N           1     -23.651  -4.125  -8.315  0.00  0.00    -0.365 N 
HETATM   10  C           1     -22.657  -4.141  -9.267  0.00  0.00     0.042 A 
HETATM   11  H           1     -24.663  -3.915  -8.505  0.00  0.00     0.165 HD
HETATM   12  C           1     -21.467  -4.460  -8.612  0.00  0.00    -0.002 A 
HETATM   13  C           1     -22.720  -3.898 -10.643  0.00  0.00     0.030 A 
HETATM   14  C           1     -20.280  -4.542  -9.364  0.00  0.00     0.014 A 
HETATM   15  C           1     -20.325  -4.302 -10.742  0.00  0.00     0.001 A 
HETATM   16  C           1     -21.528  -3.986 -11.370  0.00  0.00     0.002 A 
ENDBRANCH   6   7
ENDBRANCH   5   6
BRANCH   5  17
HETATM   17  N           1     -21.570  -5.957  -4.008  0.00  0.00    -0.066 N 
HETATM   18  H           1     -20.672  -5.862  -3.482  0.00  0.00     0.275 HD
HETATM   19  H           1     -22.110  -5.065  -3.941  0.00  0.00     0.275 HD
HETATM   20  H           1     -22.132  -6.737  -3.596  0.00  0.00     0.275 HD
ENDBRANCH   5  17
ENDBRANCH   1   5
BRANCH   2  21
HETATM   21  C           1     -19.025  -9.245  -4.623  0.00  0.00     0.185 C 
BRANCH  21  22
HETATM   22  C           1     -18.480  -9.528  -3.228  0.00  0.00     0.038 C 
BRANCH  22  23
HETATM   23  C           1     -16.959  -9.459  -3.253  0.00  0.00     0.023 C 
BRANCH  23  24
HETATM   24  C           1     -16.391 -10.852  -3.486  0.00  0.00     0.138 C 
BRANCH  24  25
HETATM   25  N           1     -15.625 -10.867  -4.740  0.00  0.00    -0.227 N 
HETATM   26  C           1     -15.885 -11.727  -5.632  0.00  0.00     0.665 C 
HETATM   27  N           1     -15.208 -11.739  -6.742  0.00  0.00    -0.235 N 
HETATM   28  N           1     -16.808 -12.574  -5.444  0.00  0.00    -0.235 N 
HETATM   29  H           1     -14.448 -11.040  -6.897  0.00  0.00     0.174 HD
HETATM   30  H           1     -15.424 -12.448  -7.478  0.00  0.00     0.174 HD
HETATM   31  H           1     -17.355 -12.564  -4.548  0.00  0.00     0.174 HD
HETATM   32  H           1     -17.024 -13.287  -6.183  0.00  0.00     0.174 HD
HETATM   33  H           1     -14.860 -10.164  -4.896  0.00  0.00     0.177 HD
ENDBRANCH  24  25
ENDBRANCH  23  24
ENDBRANCH  22  23
ENDBRANCH  21  22
BRANCH  21  34
HETATM   34  C           1     -19.595 -10.516  -5.206  0.00  0.00     0.196 C 
HETATM   35  O           1     -20.344 -11.239  -4.515  0.00  0.00    -0.646 OA
HETATM   36  O           1     -19.318 -10.845  -6.380  0.00  0.00    -0.646 OA
ENDBRANCH  21  34
ENDBRANCH   2  21
TORSDOF 10
ENDMDL
MODEL 5
REMARK VINA RESULT:      -7.4     14.394     16.706
REMARK  10 active torsions:
REMARK  status: ('A' for Active; 'I' for Inactive)
REMARK    1  A    between atoms: C_2  and  C_3 
REMARK    2  A    between atoms: C_2  and  C_17 
REMARK    3  A    between atoms: C_3  and  N_4 
REMARK       I    between atoms: N_4  and  C_24 
REMARK    4  A    between atoms: C_8  and  C_19 
REMARK       I    between atoms: N_10  and  C_24 
REMARK    5  A    between atoms: C_14  and  C_15 
REMARK    6  A    between atoms: C_14  and  C_19 
REMARK    7  A    between atoms: C_14  and  N_29 
REMARK       I    between atoms: C_15  and  N_21 
REMARK    8  A    between atoms: C_17  and  C_31 
REMARK    9  A    between atoms: N_21  and  C_31 
REMARK   10  A    between atoms: C_30  and  C_31 
ROOT
HETATM    1  C           1     -20.156  -9.128  -5.090  0.00  0.00     0.249 C 
HETATM    2  N           1     -21.100  -8.270  -5.588  0.00  0.00    -0.345 N 
HETATM    3  H           1     -21.936  -8.635  -6.026  0.00  0.00     0.163 HD
HETATM    4  O           1     -19.158  -8.691  -4.568  0.00  0.00    -0.271 OA
ENDROOT
BRANCH   1   5
HETATM    5  C           1     -20.364 -10.619  -5.192  0.00  0.00     0.278 C 
BRANCH   5   6
HETATM    6  C           1     -20.049 -11.268  -3.851  0.00  0.00     0.083 C 
BRANCH   6   7
HETATM    7  C           1     -21.246 -11.175  -2.957  0.00  0.00    -0.028 A 
HETATM    8  C           1     -22.350 -11.995  -2.993  0.00  0.00     0.096 A 
HETATM    9  N           1     -23.214 -11.578  -2.014  0.00  0.00    -0.365 N 
HETATM   10  C           1     -22.686 -10.498  -1.342  0.00  0.00     0.042 A 
HETATM   11  H           1     -24.144 -12.018  -1.807  0.00  0.00     0.165 HD
HETATM   12  C           1     -21.445 -10.224  -1.917  0.00  0.00    -0.002 A 
HETATM   13  C           1     -23.207  -9.752  -0.279  0.00  0.00     0.030 A 
HETATM   14  C           1     -20.684  -9.154  -1.410  0.00  0.00     0.014 A 
HETATM   15  C           1     -21.191  -8.397  -0.347  0.00  0.00     0.001 A 
HETATM   16  C           1     -22.434  -8.693   0.208  0.00  0.00     0.002 A 
ENDBRANCH   6   7
ENDBRANCH   5   6
BRANCH   5  17
HETATM   17  N           1     -19.454 -11.179  -6.244  0.00  0.00    -0.066 N 
HETATM   18  H           1     -18.617 -10.561  -6.346  0.00  0.00     0.275 HD
HETATM   19  H           1     -19.147 -12.138  -5.965  0.00  0.00     0.275 HD
HETATM   20  H           1     -19.963 -11.227  -7.155  0.00  0.00     0.275 HD
ENDBRANCH   5  17
ENDBRANCH   1   5
BRANCH   2  21
HETATM   21  C           1     -20.900  -6.837  -5.490  0.00  0.00     0.185 C 
BRANCH  21  22
HETATM   22  C           1     -20.899  -6.226  -6.886  0.00  0.00     0.038 C 
BRANCH  22  23
HETATM   23  C           1     -20.186  -4.881  -6.852  0.00  0.00     0.023 C 
BRANCH  23  24
HETATM   24  C           1     -21.175  -3.773  -7.189  0.00  0.00     0.138 C 
BRANCH  24  25
HETATM   25  N           1     -21.727  -4.001  -8.533  0.00  0.00    -0.227 N 
HETATM   26  C           1     -22.972  -4.167  -8.686  0.00  0.00     0.665 C 
HETATM   27  N           1     -23.461  -4.368  -9.874  0.00  0.00    -0.235 N 
HETATM   28  N           1     -23.743  -4.136  -7.682  0.00  0.00    -0.235 N 
HETATM   29  H           1     -22.824  -4.393 -10.703  0.00  0.00     0.174 HD
HETATM   30  H           1     -24.488  -4.504 -10.001  0.00  0.00     0.174 HD
HETATM   31  H           1     -23.350  -3.973  -6.723  0.00  0.00     0.174 HD
HETATM   32  H           1     -24.776  -4.274  -7.809  0.00  0.00     0.174 HD
HETATM   33  H           1     -21.087  -4.026  -9.366  0.00  0.00     0.177 HD
ENDBRANCH  24  25
ENDBRANCH  23  24
ENDBRANCH  22  23
ENDBRANCH  21  22
BRANCH  21  34
HETATM   34  C           1     -22.017  -6.228  -4.678  0.00  0.00     0.196 C 
HETATM   35  O           1     -23.120  -5.986  -5.214  0.00  0.00    -0.646 OA
HETATM   36  O           1     -21.840  -5.966  -3.468  0.00  0.00    -0.646 OA
ENDBRANCH  21  34
ENDBRANCH   2  21
TORSDOF 10
ENDMDL
MODEL 6
REMARK VINA RESULT:      -7.2      1.223      1.765
REMARK  10 active torsions:
REMARK  status: ('A' for Active; 'I' for Inactive)
REMARK    1  A    between atoms: C_2  and  C_3 
REMARK    2  A    between atoms: C_2  and  C_17 
REMARK    3  A    between atoms: C_3  and  N_4 
REMARK       I    between atoms: N_4  and  C_24 
REMARK    4  A    between atoms: C_8  and  C_19 
REMARK       I    between atoms: N_10  and  C_24 
REMARK    5  A    between atoms: C_14  and  C_15 
REMARK    6  A    between atoms: C_14  and  C_19 
REMARK    7  A    between atoms: C_14  and  N_29 
REMARK       I    between atoms: C_15  and  N_21 
REMARK    8  A    between atoms: C_17  and  C_31 
REMARK    9  A    between atoms: N_21  and  C_31 
REMARK   10  A    between atoms: C_30  and  C_31 
ROOT
HETATM    1  C           1     -33.674  -4.357 -15.475  0.00  0.00     0.249 C 
HETATM    2  N           1     -33.337  -4.050 -14.183  0.00  0.00    -0.345 N 
HETATM    3  H           1     -32.365  -3.928 -13.929  0.00  0.00     0.163 HD
HETATM    4  O           1     -34.834  -4.502 -15.777  0.00  0.00    -0.271 OA
ENDROOT
BRANCH   1   5
HETATM    5  C           1     -32.596  -4.514 -16.519  0.00  0.00     0.278 C 
BRANCH   5   6
HETATM    6  C           1     -31.252  -4.721 -15.834  0.00  0.00     0.083 C 
BRANCH   6   7
HETATM    7  C           1     -30.182  -4.877 -16.869  0.00  0.00    -0.028 A 
HETATM    8  C           1     -29.246  -3.930 -17.217  0.00  0.00     0.096 A 
HETATM    9  N           1     -28.454  -4.465 -18.198  0.00  0.00    -0.365 N 
HETATM   10  C           1     -28.861  -5.747 -18.493  0.00  0.00     0.042 A 
HETATM   11  H           1     -27.651  -3.968 -18.659  0.00  0.00     0.165 HD
HETATM   12  C           1     -29.950  -6.031 -17.668  0.00  0.00    -0.002 A 
HETATM   13  C           1     -28.353  -6.666 -19.418  0.00  0.00     0.030 A 
HETATM   14  C           1     -30.564  -7.293 -17.768  0.00  0.00     0.014 A 
HETATM   15  C           1     -30.068  -8.226 -18.687  0.00  0.00     0.001 A 
HETATM   16  C           1     -28.980  -7.914 -19.499  0.00  0.00     0.002 A 
ENDBRANCH   6   7
ENDBRANCH   5   6
BRANCH   5  17
HETATM   17  N           1     -32.539  -3.278 -17.366  0.00  0.00    -0.066 N 
HETATM   18  H           1     -33.322  -2.638 -17.103  0.00  0.00     0.275 HD
HETATM   19  H           1     -31.626  -2.793 -17.215  0.00  0.00     0.275 HD
HETATM   20  H           1     -32.630  -3.542 -18.374  0.00  0.00     0.275 HD
ENDBRANCH   5  17
ENDBRANCH   1   5
BRANCH   2  21
HETATM   21  C           1     -34.373  -3.899 -13.180  0.00  0.00     0.185 C 
BRANCH  21  22
HETATM   22  C           1     -33.925  -4.561 -11.883  0.00  0.00     0.038 C 
BRANCH  22  23
HETATM   23  C           1     -35.121  -5.223 -11.212  0.00  0.00     0.023 C 
BRANCH  23  24
HETATM   24  C           1     -34.634  -6.144 -10.100  0.00  0.00     0.138 C 
BRANCH  24  25
HETATM   25  N           1     -34.041  -7.353 -10.689  0.00  0.00    -0.227 N 
HETATM   26  C           1     -33.989  -8.424 -10.017  0.00  0.00     0.665 C 
HETATM   27  N           1     -33.465  -9.494 -10.538  0.00  0.00    -0.235 N 
HETATM   28  N           1     -34.449  -8.455  -8.838  0.00  0.00    -0.235 N 
HETATM   29  H           1     -33.086  -9.468 -11.512  0.00  0.00     0.174 HD
HETATM   30  H           1     -33.423 -10.379  -9.985  0.00  0.00     0.174 HD
HETATM   31  H           1     -34.873  -7.592  -8.417  0.00  0.00     0.174 HD
HETATM   32  H           1     -34.407  -9.344  -8.281  0.00  0.00     0.174 HD
HETATM   33  H           1     -33.660  -7.327 -11.667  0.00  0.00     0.177 HD
ENDBRANCH  24  25
ENDBRANCH  23  24
ENDBRANCH  22  23
ENDBRANCH  21  22
BRANCH  21  34
HETATM   34  C           1     -34.624  -2.431 -12.934  0.00  0.00     0.196 C 
HETATM   35  O           1     -34.320  -1.921 -11.834  0.00  0.00    -0.646 OA
HETATM   36  O           1     -35.136  -1.725 -13.830  0.00  0.00    -0.646 OA
ENDBRANCH  21  34
ENDBRANCH   2  21
TORSDOF 10
ENDMDL
MODEL 7
REMARK VINA RESULT:      -7.0     14.798     16.235
REMARK  10 active torsions:
REMARK  status: ('A' for Active; 'I' for Inactive)
REMARK    1  A    between atoms: C_2  and  C_3 
REMARK    2  A    between atoms: C_2  and  C_17 
REMARK    3  A    between atoms: C_3  and  N_4 
REMARK       I    between atoms: N_4  and  C_24 
REMARK    4  A    between atoms: C_8  and  C_19 
REMARK       I    between atoms: N_10  and  C_24 
REMARK    5  A    between atoms: C_14  and  C_15 
REMARK    6  A    between atoms: C_14  and  C_19 
REMARK    7  A    between atoms: C_14  and  N_29 
REMARK       I    between atoms: C_15  and  N_21 
REMARK    8  A    between atoms: C_17  and  C_31 
REMARK    9  A    between atoms: N_21  and  C_31 
REMARK   10  A    between atoms: C_30  and  C_31 
ROOT
HETATM    1  C           1     -20.805  -7.697  -5.408  0.00  0.00     0.249 C 
HETATM    2  N           1     -21.250  -8.827  -4.775  0.00  0.00    -0.345 N 
HETATM    3  H           1     -22.122  -8.810  -4.263  0.00  0.00     0.163 HD
HETATM    4  O           1     -19.763  -7.718  -6.019  0.00  0.00    -0.271 OA
ENDROOT
BRANCH   1   5
HETATM    5  C           1     -21.617  -6.427  -5.343  0.00  0.00     0.278 C 
BRANCH   5   6
HETATM    6  C           1     -20.914  -5.334  -6.136  0.00  0.00     0.083 C 
BRANCH   6   7
HETATM    7  C           1     -21.833  -4.817  -7.199  0.00  0.00    -0.028 A 
HETATM    8  C           1     -23.167  -4.519  -7.042  0.00  0.00     0.096 A 
HETATM    9  N           1     -23.642  -4.077  -8.249  0.00  0.00    -0.365 N 
HETATM   10  C           1     -22.635  -4.084  -9.188  0.00  0.00     0.042 A 
HETATM   11  H           1     -24.632  -3.776  -8.431  0.00  0.00     0.165 HD
HETATM   12  C           1     -21.484  -4.547  -8.551  0.00  0.00    -0.002 A 
HETATM   13  C           1     -22.657  -3.718 -10.539  0.00  0.00     0.030 A 
HETATM   14  C           1     -20.293  -4.651  -9.295  0.00  0.00     0.014 A 
HETATM   15  C           1     -20.297  -4.290 -10.648  0.00  0.00     0.001 A 
HETATM   16  C           1     -21.462  -3.832 -11.258  0.00  0.00     0.002 A 
ENDBRANCH   6   7
ENDBRANCH   5   6
BRANCH   5  17
HETATM   17  N           1     -21.755  -5.997  -3.913  0.00  0.00    -0.066 N 
HETATM   18  H           1     -22.587  -6.463  -3.487  0.00  0.00     0.275 HD
HETATM   19  H           1     -20.896  -6.266  -3.384  0.00  0.00     0.275 HD
HETATM   20  H           1     -21.880  -4.959  -3.872  0.00  0.00     0.275 HD
ENDBRANCH   5  17
ENDBRANCH   1   5
BRANCH   2  21
HETATM   21  C           1     -20.470 -10.048  -4.838  0.00  0.00     0.185 C 
BRANCH  21  22
HETATM   22  C           1     -20.192 -10.548  -3.426  0.00  0.00     0.038 C 
BRANCH  22  23
HETATM   23  C           1     -18.953 -11.433  -3.435  0.00  0.00     0.023 C 
BRANCH  23  24
HETATM   24  C           1     -17.739 -10.610  -3.023  0.00  0.00     0.138 C 
BRANCH  24  25
HETATM   25  N           1     -17.321 -10.997  -1.668  0.00  0.00    -0.227 N 
HETATM   26  C           1     -16.168 -11.484  -1.475  0.00  0.00     0.665 C 
HETATM   27  N           1     -15.799 -11.826  -0.276  0.00  0.00    -0.235 N 
HETATM   28  N           1     -15.374 -11.636  -2.449  0.00  0.00    -0.235 N 
HETATM   29  H           1     -16.454 -11.700   0.528  0.00  0.00     0.174 HD
HETATM   30  H           1     -14.848 -12.227  -0.117  0.00  0.00     0.174 HD
HETATM   31  H           1     -15.672 -11.359  -3.417  0.00  0.00     0.174 HD
HETATM   32  H           1     -14.419 -12.039  -2.289  0.00  0.00     0.174 HD
HETATM   33  H           1     -17.980 -10.871  -0.859  0.00  0.00     0.177 HD
ENDBRANCH  24  25
ENDBRANCH  23  24
ENDBRANCH  22  23
ENDBRANCH  21  22
BRANCH  21  34
HETATM   34  C           1     -21.241 -11.098  -5.600  0.00  0.00     0.196 C 
HETATM   35  O           1     -20.973 -11.324  -6.799  0.00  0.00    -0.646 OA
HETATM   36  O           1     -22.150 -11.742  -5.031  0.00  0.00    -0.646 OA
ENDBRANCH  21  34
ENDBRANCH   2  21
TORSDOF 10
ENDMDL
MODEL 8
REMARK VINA RESULT:      -6.9      2.859      3.837
REMARK  10 active torsions:
REMARK  status: ('A' for Active; 'I' for Inactive)
REMARK    1  A    between atoms: C_2  and  C_3 
REMARK    2  A    between atoms: C_2  and  C_17 
REMARK    3  A    between atoms: C_3  and  N_4 
REMARK       I    between atoms: N_4  and  C_24 
REMARK    4  A    between atoms: C_8  and  C_19 
REMARK       I    between atoms: N_10  and  C_24 
REMARK    5  A    between atoms: C_14  and  C_15 
REMARK    6  A    between atoms: C_14  and  C_19 
REMARK    7  A    between atoms: C_14  and  N_29 
REMARK       I    between atoms: C_15  and  N_21 
REMARK    8  A    between atoms: C_17  and  C_31 
REMARK    9  A    between atoms: N_21  and  C_31 
REMARK   10  A    between atoms: C_30  and  C_31 
ROOT
HETATM    1  C           1     -34.314  -2.899 -15.931  0.00  0.00     0.249 C 
HETATM    2  N           1     -34.737  -1.677 -16.380  0.00  0.00    -0.345 N 
HETATM    3  H           1     -34.480  -1.361 -17.306  0.00  0.00     0.163 HD
HETATM    4  O           1     -34.621  -3.275 -14.824  0.00  0.00    -0.271 OA
ENDROOT
BRANCH   1   5
HETATM    5  C           1     -33.465  -3.776 -16.817  0.00  0.00     0.278 C 
BRANCH   5   6
HETATM    6  C           1     -32.641  -4.723 -15.956  0.00  0.00     0.083 C 
BRANCH   6   7
HETATM    7  C           1     -31.800  -5.595 -16.835  0.00  0.00    -0.028 A 
HETATM    8  C           1     -32.243  -6.668 -17.575  0.00  0.00     0.096 A 
HETATM    9  N           1     -31.164  -7.193 -18.237  0.00  0.00    -0.365 N 
HETATM   10  C           1     -30.027  -6.477 -17.939  0.00  0.00     0.042 A 
HETATM   11  H           1     -31.200  -8.023 -18.880  0.00  0.00     0.165 HD
HETATM   12  C           1     -30.401  -5.463 -17.056  0.00  0.00    -0.002 A 
HETATM   13  C           1     -28.710  -6.647 -18.379  0.00  0.00     0.030 A 
HETATM   14  C           1     -29.415  -4.574 -16.588  0.00  0.00     0.014 A 
HETATM   15  C           1     -28.092  -4.730 -17.019  0.00  0.00     0.001 A 
HETATM   16  C           1     -27.747  -5.752 -17.900  0.00  0.00     0.002 A 
ENDBRANCH   6   7
ENDBRANCH   5   6
BRANCH   5  17
HETATM   17  N           1     -32.546  -2.918 -17.635  0.00  0.00    -0.066 N 
HETATM   18  H           1     -33.013  -2.665 -18.534  0.00  0.00     0.275 HD
HETATM   19  H           1     -32.317  -2.048 -17.103  0.00  0.00     0.275 HD
HETATM   20  H           1     -31.666  -3.445 -17.837  0.00  0.00     0.275 HD
ENDBRANCH   5  17
ENDBRANCH   1   5
BRANCH   2  21
HETATM   21  C           1     -35.553  -0.834 -15.528  0.00  0.00     0.185 C 
BRANCH  21  22
HETATM   22  C           1     -34.790   0.441 -15.193  0.00  0.00     0.038 C 
BRANCH  22  23
HETATM   23  C           1     -34.841   0.684 -13.690  0.00  0.00     0.023 C 
BRANCH  23  24
HETATM   24  C           1     -35.387  -0.556 -12.994  0.00  0.00     0.138 C 
BRANCH  24  25
HETATM   25  N           1     -34.780  -0.677 -11.661  0.00  0.00    -0.227 N 
HETATM   26  C           1     -34.241  -1.767 -11.306  0.00  0.00     0.665 C 
HETATM   27  N           1     -33.704  -1.874 -10.127  0.00  0.00    -0.235 N 
HETATM   28  N           1     -34.223  -2.752 -12.102  0.00  0.00    -0.235 N 
HETATM   29  H           1     -33.718  -1.060  -9.471  0.00  0.00     0.174 HD
HETATM   30  H           1     -33.258  -2.772  -9.835  0.00  0.00     0.174 HD
HETATM   31  H           1     -34.656  -2.665 -13.054  0.00  0.00     0.174 HD
HETATM   32  H           1     -33.775  -3.655 -11.808  0.00  0.00     0.174 HD
HETATM   33  H           1     -34.795   0.140 -11.001  0.00  0.00     0.177 HD
ENDBRANCH  24  25
ENDBRANCH  23  24
ENDBRANCH  22  23
ENDBRANCH  21  22
BRANCH  21  34
HETATM   34  C           1     -36.831  -0.479 -16.249  0.00  0.00     0.196 C 
HETATM   35  O           1     -37.443  -1.352 -16.901  0.00  0.00    -0.646 OA
HETATM   36  O           1     -37.277   0.688 -16.193  0.00  0.00    -0.646 OA
ENDBRANCH  21  34
ENDBRANCH   2  21
TORSDOF 10
ENDMDL
MODEL 9
REMARK VINA RESULT:      -6.7     16.703     18.011
REMARK  10 active torsions:
REMARK  status: ('A' for Active; 'I' for Inactive)
REMARK    1  A    between atoms: C_2  and  C_3 
REMARK    2  A    between atoms: C_2  and  C_17 
REMARK    3  A    between atoms: C_3  and  N_4 
REMARK       I    between atoms: N_4  and  C_24 
REMARK    4  A    between atoms: C_8  and  C_19 
REMARK       I    between atoms: N_10  and  C_24 
REMARK    5  A    between atoms: C_14  and  C_15 
REMARK    6  A    between atoms: C_14  and  C_19 
REMARK    7  A    between atoms: C_14  and  N_29 
REMARK       I    between atoms: C_15  and  N_21 
REMARK    8  A    between atoms: C_17  and  C_31 
REMARK    9  A    between atoms: N_21  and  C_31 
REMARK   10  A    between atoms: C_30  and  C_31 
ROOT
HETATM    1  C           1     -20.504  -9.468  -4.274  0.00  0.00     0.249 C 
HETATM    2  N           1     -20.540  -8.130  -4.563  0.00  0.00    -0.345 N 
HETATM    3  H           1     -19.845  -7.725  -5.176  0.00  0.00     0.163 HD
HETATM    4  O           1     -21.334  -9.950  -3.541  0.00  0.00    -0.271 OA
ENDROOT
BRANCH   1   5
HETATM    5  C           1     -19.428 -10.340  -4.873  0.00  0.00     0.278 C 
BRANCH   5   6
HETATM    6  C           1     -18.153  -9.526  -5.045  0.00  0.00     0.083 C 
BRANCH   6   7
HETATM    7  C           1     -17.027 -10.201  -4.325  0.00  0.00    -0.028 A 
HETATM    8  C           1     -16.811 -10.186  -2.965  0.00  0.00     0.096 A 
HETATM    9  N           1     -15.681 -10.920  -2.714  0.00  0.00    -0.365 N 
HETATM   10  C           1     -15.161 -11.412  -3.890  0.00  0.00     0.042 A 
HETATM   11  H           1     -15.271 -11.083  -1.761  0.00  0.00     0.165 HD
HETATM   12  C           1     -15.992 -10.973  -4.921  0.00  0.00    -0.002 A 
HETATM   13  C           1     -14.030 -12.204  -4.117  0.00  0.00     0.030 A 
HETATM   14  C           1     -15.683 -11.340  -6.244  0.00  0.00     0.014 A 
HETATM   15  C           1     -14.555 -12.133  -6.489  0.00  0.00     0.001 A 
HETATM   16  C           1     -13.742 -12.557  -5.439  0.00  0.00     0.002 A 
ENDBRANCH   6   7
ENDBRANCH   5   6
BRANCH   5  17
HETATM   17  N           1     -19.882 -10.846  -6.209  0.00  0.00    -0.066 N 
HETATM   18  H           1     -19.804 -11.888  -6.233  0.00  0.00     0.275 HD
HETATM   19  H           1     -20.876 -10.567  -6.368  0.00  0.00     0.275 HD
HETATM   20  H           1     -19.280 -10.436  -6.960  0.00  0.00     0.275 HD
ENDBRANCH   5  17
ENDBRANCH   1   5
BRANCH   2  21
HETATM   21  C           1     -21.575  -7.292  -3.987  0.00  0.00     0.185 C 
BRANCH  21  22
HETATM   22  C           1     -21.098  -6.740  -2.650  0.00  0.00     0.038 C 
BRANCH  22  23
HETATM   23  C           1     -22.299  -6.307  -1.821  0.00  0.00     0.023 C 
BRANCH  23  24
HETATM   24  C           1     -22.414  -7.196  -0.589  0.00  0.00     0.138 C 
BRANCH  24  25
HETATM   25  N           1     -22.023  -8.569  -0.937  0.00  0.00    -0.227 N 
HETATM   26  C           1     -21.429  -9.293  -0.086  0.00  0.00     0.665 C 
HETATM   27  N           1     -21.083 -10.508  -0.393  0.00  0.00    -0.235 N 
HETATM   28  N           1     -21.173  -8.835   1.067  0.00  0.00    -0.235 N 
HETATM   29  H           1     -21.295 -10.887  -1.344  0.00  0.00     0.174 HD
HETATM   30  H           1     -20.594 -11.107   0.310  0.00  0.00     0.174 HD
HETATM   31  H           1     -21.453  -7.854   1.316  0.00  0.00     0.174 HD
HETATM   32  H           1     -20.682  -9.436   1.773  0.00  0.00     0.174 HD
HETATM   33  H           1     -22.235  -8.949  -1.893  0.00  0.00     0.177 HD
ENDBRANCH  24  25
ENDBRANCH  23  24
ENDBRANCH  22  23
ENDBRANCH  21  22
BRANCH  21  34
HETATM   34  C           1     -21.873  -6.147  -4.925  0.00  0.00     0.196 C 
HETATM   35  O           1     -20.951  -5.395  -5.306  0.00  0.00    -0.646 OA
HETATM   36  O           1     -23.043  -5.951  -5.320  0.00  0.00    -0.646 OA
ENDBRANCH  21  34
ENDBRANCH   2  21
TORSDOF 10
ENDMDL
