MODEL 1
REMARK VINA RESULT:      -7.7      0.000      0.000
REMARK  15 active torsions:
REMARK  status: ('A' for Active; 'I' for Inactive)
REMARK    1  A    between atoms: C_8  and  N_9 
REMARK    2  A    between atoms: C_8  and  C_36 
REMARK    3  A    between atoms: N_9  and  C_28 
REMARK    4  A    between atoms: N_14  and  C_15 
REMARK       I    between atoms: N_14  and  C_40 
REMARK    5  A    between atoms: C_15  and  C_16 
REMARK    6  A    between atoms: C_16  and  C_18 
REMARK    7  A    between atoms: C_18  and  C_19 
REMARK    8  A    between atoms: C_19  and  C_20 
REMARK    9  A    between atoms: C_19  and  N_26 
REMARK       I    between atoms: C_20  and  N_21 
REMARK   10  A    between atoms: N_21  and  C_35 
REMARK   11  A    between atoms: C_24  and  C_35 
REMARK       I    between atoms: N_25  and  C_40 
REMARK   12  A    between atoms: C_28  and  C_34 
REMARK   13  A    between atoms: C_28  and  C_29 
REMARK   14  A    between atoms: C_29  and  C_30 
REMARK   15  A    between atoms: C_35  and  C_36 
ROOT
HETATM    1  C           1     -20.657  -9.421  -4.707  0.00  0.00     0.187 C 
ENDROOT
BRANCH   1   2
HETATM    2  N           1     -21.468  -8.276  -5.077  0.00  0.00    -0.345 N 
HETATM    3  H           1     -22.427  -8.214  -4.763  0.00  0.00     0.163 HD
HETATM    4  C           1     -20.935  -7.282  -5.851  0.00  0.00     0.249 C 
HETATM    5  O           1     -19.789  -7.356  -6.226  0.00  0.00    -0.271 OA
BRANCH   4   6
HETATM    6  C           1     -21.778  -6.092  -6.236  0.00  0.00     0.274 C 
BRANCH   6   7
HETATM    7  C           1     -20.886  -4.868  -6.399  0.00  0.00     0.044 C 
BRANCH   7   8
HETATM    8  C           1     -21.617  -3.812  -7.219  0.00  0.00     0.023 C 
BRANCH   8   9
HETATM    9  C           1     -22.338  -4.480  -8.383  0.00  0.00     0.138 C 
BRANCH   9  10
HETATM   10  N           1     -23.730  -4.012  -8.433  0.00  0.00    -0.227 N 
HETATM   11  H           1     -24.243  -3.798  -7.543  0.00  0.00     0.177 HD
HETATM   12  C           1     -24.311  -3.867  -9.549  0.00  0.00     0.665 C 
HETATM   13  N           1     -25.509  -3.463  -9.591  0.00  0.00    -0.235 N 
HETATM   14  N           1     -23.674  -4.133 -10.651  0.00  0.00    -0.235 N 
HETATM   15  H           1     -26.023  -3.249  -8.701  0.00  0.00     0.174 HD
HETATM   16  H           1     -25.990  -3.344 -10.517  0.00  0.00     0.174 HD
HETATM   17  H           1     -22.684  -4.467 -10.616  0.00  0.00     0.174 HD
HETATM   18  H           1     -24.153  -4.014 -11.572  0.00  0.00     0.174 HD
ENDBRANCH   9  10
ENDBRANCH   8   9
ENDBRANCH   7   8
ENDBRANCH   6   7
BRANCH   6  19
HETATM   19  N           1     -22.792  -5.830  -5.162  0.00  0.00    -0.067 N 
HETATM   20  H           1     -22.999  -6.718  -4.652  0.00  0.00     0.275 HD
HETATM   21  H           1     -22.413  -5.124  -4.490  0.00  0.00     0.275 HD
HETATM   22  H           1     -23.670  -5.464  -5.594  0.00  0.00     0.275 HD
ENDBRANCH   6  19
ENDBRANCH   4   6
ENDBRANCH   1   2
BRANCH   1  23
HETATM   23  C           1     -21.146 -10.642  -5.446  0.00  0.00     0.196 C 
HETATM   24  O           1     -20.712 -10.896  -6.591  0.00  0.00    -0.646 OA
HETATM   25  O           1     -21.985 -11.401  -4.914  0.00  0.00    -0.646 OA
ENDBRANCH   1  23
BRANCH   1  26
HETATM   26  C           1     -20.766  -9.657  -3.207  0.00  0.00     0.066 C 
BRANCH  26  27
HETATM   27  C           1     -19.498  -9.166  -2.520  0.00  0.00     0.273 C 
BRANCH  27  28
HETATM   28  N           1     -19.811  -8.033  -1.691  0.00  0.00     0.098 N 
HETATM   29  H           1     -19.659  -7.173  -2.218  0.00  0.00     0.317 HD
BRANCH  28  30
HETATM   30  C           1     -21.197  -8.131  -1.322  0.00  0.00     0.324 C 
BRANCH  30  31
HETATM   31  C           1     -21.898  -6.838  -1.657  0.00  0.00     0.207 C 
HETATM   32  O           1     -22.868  -6.456  -0.967  0.00  0.00    -0.646 OA
HETATM   33  O           1     -21.509  -6.147  -2.624  0.00  0.00    -0.646 OA
ENDBRANCH  30  31
BRANCH  30  34
HETATM   34  C           1     -21.306  -8.397   0.173  0.00  0.00     0.087 C 
BRANCH  34  35
HETATM   35  C           1     -21.333  -9.872   0.419  0.00  0.00    -0.028 A 
HETATM   36  C           1     -22.347 -10.776  -0.006  0.00  0.00    -0.002 A 
HETATM   37  C           1     -23.547 -10.632  -0.726  0.00  0.00     0.014 A 
HETATM   38  C           1     -21.975 -12.047   0.432  0.00  0.00     0.042 A 
HETATM   39  C           1     -24.334 -11.762  -0.981  0.00  0.00     0.001 A 
HETATM   40  C           1     -23.938 -13.019  -0.529  0.00  0.00     0.002 A 
HETATM   41  C           1     -22.750 -13.187   0.187  0.00  0.00     0.030 A 
HETATM   42  N           1     -20.778 -11.910   1.100  0.00  0.00    -0.365 N 
HETATM   43  H           1     -20.247 -12.698   1.547  0.00  0.00     0.165 HD
HETATM   44  C           1     -20.381 -10.599   1.097  0.00  0.00     0.096 A 
ENDBRANCH  34  35
ENDBRANCH  30  34
ENDBRANCH  28  30
ENDBRANCH  27  28
ENDBRANCH  26  27
ENDBRANCH   1  26
TORSDOF 15
ENDMDL
MODEL 2
REMARK VINA RESULT:      -7.5      2.433      8.692
REMARK  15 active torsions:
REMARK  status: ('A' for Active; 'I' for Inactive)
REMARK    1  A    between atoms: C_8  and  N_9 
REMARK    2  A    between atoms: C_8  and  C_36 
REMARK    3  A    between atoms: N_9  and  C_28 
REMARK    4  A    between atoms: N_14  and  C_15 
REMARK       I    between atoms: N_14  and  C_40 
REMARK    5  A    between atoms: C_15  and  C_16 
REMARK    6  A    between atoms: C_16  and  C_18 
REMARK    7  A    between atoms: C_18  and  C_19 
REMARK    8  A    between atoms: C_19  and  C_20 
REMARK    9  A    between atoms: C_19  and  N_26 
REMARK       I    between atoms: C_20  and  N_21 
REMARK   10  A    between atoms: N_21  and  C_35 
REMARK   11  A    between atoms: C_24  and  C_35 
REMARK       I    between atoms: N_25  and  C_40 
REMARK   12  A    between atoms: C_28  and  C_34 
REMARK   13  A    between atoms: C_28  and  C_29 
REMARK   14  A    between atoms: C_29  and  C_30 
REMARK   15  A    between atoms: C_35  and  C_36 
ROOT
HETATM    1  C           1     -21.500  -7.941  -1.070  0.00  0.00     0.187 C 
ENDROOT
BRANCH   1   2
HETATM    2  N           1     -21.778  -9.021  -1.998  0.00  0.00    -0.345 N 
HETATM    3  H           1     -22.675  -9.070  -2.462  0.00  0.00     0.163 HD
HETATM    4  C           1     -20.827  -9.973  -2.244  0.00  0.00     0.249 C 
HETATM    5  O           1     -19.756  -9.915  -1.689  0.00  0.00    -0.271 OA
BRANCH   4   6
HETATM    6  C           1     -21.115 -11.097  -3.209  0.00  0.00     0.274 C 
BRANCH   6   7
HETATM    7  C           1     -19.805 -11.641  -3.762  0.00  0.00     0.044 C 
BRANCH   7   8
HETATM    8  C           1     -19.610 -11.143  -5.188  0.00  0.00     0.023 C 
BRANCH   8   9
HETATM    9  C           1     -18.164 -10.702  -5.379  0.00  0.00     0.138 C 
BRANCH   9  10
HETATM   10  N           1     -17.747  -9.877  -4.237  0.00  0.00    -0.227 N 
HETATM   11  H           1     -18.412  -9.177  -3.825  0.00  0.00     0.177 HD
HETATM   12  C           1     -16.587 -10.011  -3.748  0.00  0.00     0.665 C 
HETATM   13  N           1     -16.229  -9.301  -2.764  0.00  0.00    -0.235 N 
HETATM   14  N           1     -15.763 -10.878  -4.258  0.00  0.00    -0.235 N 
HETATM   15  H           1     -16.893  -8.600  -2.352  0.00  0.00     0.174 HD
HETATM   16  H           1     -15.265  -9.411  -2.359  0.00  0.00     0.174 HD
HETATM   17  H           1     -16.059 -11.465  -5.071  0.00  0.00     0.174 HD
HETATM   18  H           1     -14.806 -10.989  -3.855  0.00  0.00     0.174 HD
ENDBRANCH   9  10
ENDBRANCH   8   9
ENDBRANCH   7   8
ENDBRANCH   6   7
BRANCH   6  19
HETATM   19  N           1     -21.958 -10.581  -4.338  0.00  0.00    -0.067 N 
HETATM   20  H           1     -22.937 -10.434  -4.005  0.00  0.00     0.275 HD
HETATM   21  H           1     -21.566  -9.672  -4.677  0.00  0.00     0.275 HD
HETATM   22  H           1     -21.956 -11.274  -5.119  0.00  0.00     0.275 HD
ENDBRANCH   6  19
ENDBRANCH   4   6
ENDBRANCH   1   2
BRANCH   1  23
HETATM   23  C           1     -22.231  -8.193   0.226  0.00  0.00     0.196 C 
HETATM   24  O           1     -21.722  -7.834   1.311  0.00  0.00    -0.646 OA
HETATM   25  O           1     -23.345  -8.759   0.216  0.00  0.00    -0.646 OA
ENDBRANCH   1  23
BRANCH   1  26
HETATM   26  C           1     -21.970  -6.623  -1.671  0.00  0.00     0.066 C 
BRANCH  26  27
HETATM   27  C           1     -22.193  -6.795  -3.168  0.00  0.00     0.273 C 
BRANCH  27  28
HETATM   28  N           1     -21.379  -5.851  -3.885  0.00  0.00     0.098 N 
HETATM   29  H           1     -20.407  -5.948  -3.594  0.00  0.00     0.317 HD
BRANCH  28  30
HETATM   30  C           1     -21.493  -6.152  -5.287  0.00  0.00     0.324 C 
BRANCH  30  31
HETATM   31  C           1     -20.762  -7.438  -5.584  0.00  0.00     0.207 C 
HETATM   32  O           1     -19.548  -7.545  -5.307  0.00  0.00    -0.646 OA
HETATM   33  O           1     -21.370  -8.397  -6.108  0.00  0.00    -0.646 OA
ENDBRANCH  30  31
BRANCH  30  34
HETATM   34  C           1     -20.882  -5.020  -6.101  0.00  0.00     0.087 C 
BRANCH  34  35
HETATM   35  C           1     -21.812  -4.643  -7.211  0.00  0.00    -0.028 A 
HETATM   36  C           1     -21.461  -4.475  -8.579  0.00  0.00    -0.002 A 
HETATM   37  C           1     -20.260  -4.589  -9.303  0.00  0.00     0.014 A 
HETATM   38  C           1     -22.626  -4.126  -9.262  0.00  0.00     0.042 A 
HETATM   39  C           1     -20.264  -4.348 -10.682  0.00  0.00     0.001 A 
HETATM   40  C           1     -21.444  -4.000 -11.338  0.00  0.00     0.002 A 
HETATM   41  C           1     -22.649  -3.882 -10.641  0.00  0.00     0.030 A 
HETATM   42  N           1     -23.643  -4.085  -8.334  0.00  0.00    -0.365 N 
HETATM   43  H           1     -24.643  -3.848  -8.549  0.00  0.00     0.165 HD
HETATM   44  C           1     -23.161  -4.396  -7.090  0.00  0.00     0.096 A 
ENDBRANCH  34  35
ENDBRANCH  30  34
ENDBRANCH  28  30
ENDBRANCH  27  28
ENDBRANCH  26  27
ENDBRANCH   1  26
TORSDOF 15
ENDMDL
MODEL 3
REMARK VINA RESULT:      -7.5      2.107      8.970
REMARK  15 active torsions:
REMARK  status: ('A' for Active; 'I' for Inactive)
REMARK    1  A    between atoms: C_8  and  N_9 
REMARK    2  A    between atoms: C_8  and  C_36 
REMARK    3  A    between atoms: N_9  and  C_28 
REMARK    4  A    between atoms: N_14  and  C_15 
REMARK       I    between atoms: N_14  and  C_40 
REMARK    5  A    between atoms: C_15  and  C_16 
REMARK    6  A    between atoms: C_16  and  C_18 
REMARK    7  A    between atoms: C_18  and  C_19 
REMARK    8  A    between atoms: C_19  and  C_20 
REMARK    9  A    between atoms: C_19  and  N_26 
REMARK       I    between atoms: C_20  and  N_21 
REMARK   10  A    between atoms: N_21  and  C_35 
REMARK   11  A    between atoms: C_24  and  C_35 
REMARK       I    between atoms: N_25  and  C_40 
REMARK   12  A    between atoms: C_28  and  C_34 
REMARK   13  A    between atoms: C_28  and  C_29 
REMARK   14  A    between atoms: C_29  and  C_30 
REMARK   15  A    between atoms: C_35  and  C_36 
ROOT
HETATM    1  C           1     -21.439  -7.542  -1.110  0.00  0.00     0.187 C 
ENDROOT
BRANCH   1   2
HETATM    2  N           1     -21.547  -8.701  -1.975  0.00  0.00    -0.345 N 
HETATM    3  H           1     -22.459  -9.057  -2.231  0.00  0.00     0.163 HD
HETATM    4  C           1     -20.417  -9.315  -2.441  0.00  0.00     0.249 C 
HETATM    5  O           1     -19.328  -8.892  -2.133  0.00  0.00    -0.271 OA
BRANCH   4   6
HETATM    6  C           1     -20.529 -10.522  -3.339  0.00  0.00     0.274 C 
BRANCH   6   7
HETATM    7  C           1     -21.985 -10.962  -3.420  0.00  0.00     0.044 C 
BRANCH   7   8
HETATM    8  C           1     -22.061 -12.482  -3.352  0.00  0.00     0.023 C 
BRANCH   8   9
HETATM    9  C           1     -22.966 -12.895  -2.198  0.00  0.00     0.138 C 
BRANCH   9  10
HETATM   10  N           1     -23.608 -11.702  -1.626  0.00  0.00    -0.227 N 
HETATM   11  H           1     -23.991 -10.958  -2.259  0.00  0.00     0.177 HD
HETATM   12  C           1     -23.699 -11.572  -0.370  0.00  0.00     0.665 C 
HETATM   13  N           1     -24.252 -10.546   0.122  0.00  0.00    -0.235 N 
HETATM   14  N           1     -23.224 -12.495   0.415  0.00  0.00    -0.235 N 
HETATM   15  H           1     -24.635  -9.801  -0.510  0.00  0.00     0.174 HD
HETATM   16  H           1     -24.326 -10.439   1.165  0.00  0.00     0.174 HD
HETATM   17  H           1     -22.768 -13.343   0.008  0.00  0.00     0.174 HD
HETATM   18  H           1     -23.299 -12.388   1.451  0.00  0.00     0.174 HD
ENDBRANCH   9  10
ENDBRANCH   8   9
ENDBRANCH   7   8
ENDBRANCH   6   7
BRANCH   6  19
HETATM   19  N           1     -19.701 -11.641  -2.779  0.00  0.00    -0.067 N 
HETATM   20  H           1     -20.305 -12.478  -2.620  0.00  0.00     0.275 HD
HETATM   21  H           1     -18.942 -11.884  -3.457  0.00  0.00     0.275 HD
HETATM   22  H           1     -19.276 -11.340  -1.874  0.00  0.00     0.275 HD
ENDBRANCH   6  19
ENDBRANCH   4   6
ENDBRANCH   1   2
BRANCH   1  23
HETATM   23  C           1     -22.153  -7.816   0.190  0.00  0.00     0.196 C 
HETATM   24  O           1     -21.508  -8.201   1.190  0.00  0.00    -0.646 OA
HETATM   25  O           1     -23.391  -7.659   0.269  0.00  0.00    -0.646 OA
ENDBRANCH   1  23
BRANCH   1  26
HETATM   26  C           1     -22.072  -6.338  -1.795  0.00  0.00     0.066 C 
BRANCH  26  27
HETATM   27  C           1     -22.246  -6.629  -3.280  0.00  0.00     0.273 C 
BRANCH  27  28
HETATM   28  N           1     -21.295  -5.858  -4.033  0.00  0.00     0.098 N 
HETATM   29  H           1     -20.350  -6.093  -3.732  0.00  0.00     0.317 HD
BRANCH  28  30
HETATM   30  C           1     -21.455  -6.202  -5.421  0.00  0.00     0.324 C 
BRANCH  30  31
HETATM   31  C           1     -20.789  -7.529  -5.688  0.00  0.00     0.207 C 
HETATM   32  O           1     -21.470  -8.504  -6.071  0.00  0.00    -0.646 OA
HETATM   33  O           1     -19.555  -7.654  -5.527  0.00  0.00    -0.646 OA
ENDBRANCH  30  31
BRANCH  30  34
HETATM   34  C           1     -20.813  -5.127  -6.288  0.00  0.00     0.087 C 
BRANCH  34  35
HETATM   35  C           1     -21.783  -4.686  -7.337  0.00  0.00    -0.028 A 
HETATM   36  C           1     -21.485  -4.443  -8.707  0.00  0.00    -0.002 A 
HETATM   37  C           1     -20.313  -4.521  -9.482  0.00  0.00     0.014 A 
HETATM   38  C           1     -22.674  -4.052  -9.323  0.00  0.00     0.042 A 
HETATM   39  C           1     -20.370  -4.204 -10.845  0.00  0.00     0.001 A 
HETATM   40  C           1     -21.572  -3.815 -11.434  0.00  0.00     0.002 A 
HETATM   41  C           1     -22.749  -3.731 -10.685  0.00  0.00     0.030 A 
HETATM   42  N           1     -23.653  -4.059  -8.355  0.00  0.00    -0.365 N 
HETATM   43  H           1     -24.659  -3.806  -8.517  0.00  0.00     0.165 HD
HETATM   44  C           1     -23.125  -4.440  -7.151  0.00  0.00     0.096 A 
ENDBRANCH  34  35
ENDBRANCH  30  34
ENDBRANCH  28  30
ENDBRANCH  27  28
ENDBRANCH  26  27
ENDBRANCH   1  26
TORSDOF 15
ENDMDL
MODEL 4
REMARK VINA RESULT:      -7.4      1.754      3.805
REMARK  15 active torsions:
REMARK  status: ('A' for Active; 'I' for Inactive)
REMARK    1  A    between atoms: C_8  and  N_9 
REMARK    2  A    between atoms: C_8  and  C_36 
REMARK    3  A    between atoms: N_9  and  C_28 
REMARK    4  A    between atoms: N_14  and  C_15 
REMARK       I    between atoms: N_14  and  C_40 
REMARK    5  A    between atoms: C_15  and  C_16 
REMARK    6  A    between atoms: C_16  and  C_18 
REMARK    7  A    between atoms: C_18  and  C_19 
REMARK    8  A    between atoms: C_19  and  C_20 
REMARK    9  A    between atoms: C_19  and  N_26 
REMARK       I    between atoms: C_20  and  N_21 
REMARK   10  A    between atoms: N_21  and  C_35 
REMARK   11  A    between atoms: C_24  and  C_35 
REMARK       I    between atoms: N_25  and  C_40 
REMARK   12  A    between atoms: C_28  and  C_34 
REMARK   13  A    between atoms: C_28  and  C_29 
REMARK   14  A    between atoms: C_29  and  C_30 
REMARK   15  A    between atoms: C_35  and  C_36 
ROOT
HETATM    1  C           1     -21.518  -7.671  -3.739  0.00  0.00     0.187 C 
ENDROOT
BRANCH   1   2
HETATM    2  N           1     -20.773  -6.894  -4.711  0.00  0.00    -0.345 N 
HETATM    3  H           1     -19.768  -6.986  -4.769  0.00  0.00     0.163 HD
HETATM    4  C           1     -21.432  -6.035  -5.548  0.00  0.00     0.249 C 
HETATM    5  O           1     -22.632  -5.924  -5.478  0.00  0.00    -0.271 OA
BRANCH   4   6
HETATM    6  C           1     -20.658  -5.225  -6.559  0.00  0.00     0.274 C 
BRANCH   6   7
HETATM    7  C           1     -21.624  -4.394  -7.393  0.00  0.00     0.044 C 
BRANCH   7   8
HETATM    8  C           1     -20.963  -4.019  -8.713  0.00  0.00     0.023 C 
BRANCH   8   9
HETATM    9  C           1     -21.984  -4.118  -9.839  0.00  0.00     0.138 C 
BRANCH   9  10
HETATM   10  N           1     -23.294  -3.659  -9.356  0.00  0.00    -0.227 N 
HETATM   11  H           1     -23.364  -3.130  -8.452  0.00  0.00     0.177 HD
HETATM   12  C           1     -24.339  -3.902 -10.029  0.00  0.00     0.665 C 
HETATM   13  N           1     -25.467  -3.507  -9.613  0.00  0.00    -0.235 N 
HETATM   14  N           1     -24.252  -4.558 -11.149  0.00  0.00    -0.235 N 
HETATM   15  H           1     -25.537  -2.978  -8.709  0.00  0.00     0.174 HD
HETATM   16  H           1     -26.333  -3.709 -10.172  0.00  0.00     0.174 HD
HETATM   17  H           1     -23.321  -4.885 -11.492  0.00  0.00     0.174 HD
HETATM   18  H           1     -25.114  -4.759 -11.704  0.00  0.00     0.174 HD
ENDBRANCH   9  10
ENDBRANCH   8   9
ENDBRANCH   7   8
ENDBRANCH   6   7
BRANCH   6  19
HETATM   19  N           1     -19.891  -6.150  -7.458  0.00  0.00    -0.067 N 
HETATM   20  H           1     -19.784  -7.080  -6.994  0.00  0.00     0.275 HD
HETATM   21  H           1     -20.411  -6.269  -8.358  0.00  0.00     0.275 HD
HETATM   22  H           1     -18.948  -5.746  -7.651  0.00  0.00     0.275 HD
ENDBRANCH   6  19
ENDBRANCH   4   6
ENDBRANCH   1   2
BRANCH   1  23
HETATM   23  C           1     -21.561  -6.926  -2.427  0.00  0.00     0.196 C 
HETATM   24  O           1     -22.461  -6.084  -2.216  0.00  0.00    -0.646 OA
HETATM   25  O           1     -20.698  -7.151  -1.552  0.00  0.00    -0.646 OA
ENDBRANCH   1  23
BRANCH   1  26
HETATM   26  C           1     -20.836  -9.018  -3.537  0.00  0.00     0.066 C 
BRANCH  26  27
HETATM   27  C           1     -21.413 -10.033  -4.514  0.00  0.00     0.273 C 
BRANCH  27  28
HETATM   28  N           1     -22.559 -10.669  -3.923  0.00  0.00     0.098 N 
HETATM   29  H           1     -23.263 -10.840  -4.641  0.00  0.00     0.317 HD
BRANCH  28  30
HETATM   30  C           1     -22.125 -11.924  -3.370  0.00  0.00     0.324 C 
BRANCH  30  31
HETATM   31  C           1     -22.592 -13.052  -4.257  0.00  0.00     0.207 C 
HETATM   32  O           1     -22.719 -12.868  -5.486  0.00  0.00    -0.646 OA
HETATM   33  O           1     -22.853 -14.170  -3.761  0.00  0.00    -0.646 OA
ENDBRANCH  30  31
BRANCH  30  34
HETATM   34  C           1     -22.715 -12.095  -1.976  0.00  0.00     0.087 C 
BRANCH  34  35
HETATM   35  C           1     -21.825 -11.434  -0.972  0.00  0.00    -0.028 A 
HETATM   36  C           1     -22.116 -10.244  -0.248  0.00  0.00    -0.002 A 
HETATM   37  C           1     -23.212  -9.362  -0.213  0.00  0.00     0.014 A 
HETATM   38  C           1     -21.019  -9.985   0.574  0.00  0.00     0.042 A 
HETATM   39  C           1     -23.173  -8.252   0.640  0.00  0.00     0.001 A 
HETATM   40  C           1     -22.063  -8.018   1.450  0.00  0.00     0.002 A 
HETATM   41  C           1     -20.963  -8.880   1.433  0.00  0.00     0.030 A 
HETATM   42  N           1     -20.100 -10.985   0.350  0.00  0.00    -0.365 N 
HETATM   43  H           1     -19.166 -11.061   0.825  0.00  0.00     0.165 HD
HETATM   44  C           1     -20.577 -11.867  -0.583  0.00  0.00     0.096 A 
ENDBRANCH  34  35
ENDBRANCH  30  34
ENDBRANCH  28  30
ENDBRANCH  27  28
ENDBRANCH  26  27
ENDBRANCH   1  26
TORSDOF 15
ENDMDL
MODEL 5
REMARK VINA RESULT:      -7.3      1.724      3.691
REMARK  15 active torsions:
REMARK  status: ('A' for Active; 'I' for Inactive)
REMARK    1  A    between atoms: C_8  and  N_9 
REMARK    2  A    between atoms: C_8  and  C_36 
REMARK    3  A    between atoms: N_9  and  C_28 
REMARK    4  A    between atoms: N_14  and  C_15 
REMARK       I    between atoms: N_14  and  C_40 
REMARK    5  A    between atoms: C_15  and  C_16 
REMARK    6  A    between atoms: C_16  and  C_18 
REMARK    7  A    between atoms: C_18  and  C_19 
REMARK    8  A    between atoms: C_19  and  C_20 
REMARK    9  A    between atoms: C_19  and  N_26 
REMARK       I    between atoms: C_20  and  N_21 
REMARK   10  A    between atoms: N_21  and  C_35 
REMARK   11  A    between atoms: C_24  and  C_35 
REMARK       I    between atoms: N_25  and  C_40 
REMARK   12  A    between atoms: C_28  and  C_34 
REMARK   13  A    between atoms: C_28  and  C_29 
REMARK   14  A    between atoms: C_29  and  C_30 
REMARK   15  A    between atoms: C_35  and  C_36 
ROOT
HETATM    1  C           1     -21.383  -7.625  -2.994  0.00  0.00     0.187 C 
ENDROOT
BRANCH   1   2
HETATM    2  N           1     -20.993  -6.561  -3.899  0.00  0.00    -0.345 N 
HETATM    3  H           1     -20.612  -5.699  -3.532  0.00  0.00     0.163 HD
HETATM    4  C           1     -21.141  -6.723  -5.250  0.00  0.00     0.249 C 
HETATM    5  O           1     -21.596  -7.752  -5.689  0.00  0.00    -0.271 OA
BRANCH   4   6
HETATM    6  C           1     -20.736  -5.616  -6.192  0.00  0.00     0.274 C 
BRANCH   6   7
HETATM    7  C           1     -21.982  -4.951  -6.760  0.00  0.00     0.044 C 
BRANCH   7   8
HETATM    8  C           1     -21.584  -3.697  -7.528  0.00  0.00     0.023 C 
BRANCH   8   9
HETATM    9  C           1     -22.171  -3.753  -8.933  0.00  0.00     0.138 C 
BRANCH   9  10
HETATM   10  N           1     -23.602  -3.420  -8.880  0.00  0.00    -0.227 N 
HETATM   11  H           1     -23.969  -2.802  -8.115  0.00  0.00     0.177 HD
HETATM   12  C           1     -24.392  -3.879  -9.757  0.00  0.00     0.665 C 
HETATM   13  N           1     -25.623  -3.592  -9.712  0.00  0.00    -0.235 N 
HETATM   14  N           1     -23.937  -4.645 -10.704  0.00  0.00    -0.235 N 
HETATM   15  H           1     -25.992  -2.974  -8.947  0.00  0.00     0.174 HD
HETATM   16  H           1     -26.279  -3.973 -10.439  0.00  0.00     0.174 HD
HETATM   17  H           1     -22.919  -4.882 -10.742  0.00  0.00     0.174 HD
HETATM   18  H           1     -24.588  -5.024 -11.428  0.00  0.00     0.174 HD
ENDBRANCH   9  10
ENDBRANCH   8   9
ENDBRANCH   7   8
ENDBRANCH   6   7
BRANCH   6  19
HETATM   19  N           1     -19.920  -6.189  -7.314  0.00  0.00    -0.067 N 
HETATM   20  H           1     -19.470  -5.413  -7.850  0.00  0.00     0.275 HD
HETATM   21  H           1     -19.181  -6.815  -6.921  0.00  0.00     0.275 HD
HETATM   22  H           1     -20.540  -6.738  -7.950  0.00  0.00     0.275 HD
ENDBRANCH   6  19
ENDBRANCH   4   6
ENDBRANCH   1   2
BRANCH   1  23
HETATM   23  C           1     -22.050  -7.031  -1.778  0.00  0.00     0.196 C 
HETATM   24  O           1     -22.472  -5.854  -1.809  0.00  0.00    -0.646 OA
HETATM   25  O           1     -22.181  -7.714  -0.740  0.00  0.00    -0.646 OA
ENDBRANCH   1  23
BRANCH   1  26
HETATM   26  C           1     -20.147  -8.405  -2.566  0.00  0.00     0.066 C 
BRANCH  26  27
HETATM   27  C           1     -20.323  -9.876  -2.923  0.00  0.00     0.273 C 
BRANCH  27  28
HETATM   28  N           1     -21.306 -10.001  -3.965  0.00  0.00     0.098 N 
HETATM   29  H           1     -21.145  -9.285  -4.673  0.00  0.00     0.317 HD
BRANCH  28  30
HETATM   30  C           1     -21.153 -11.303  -4.556  0.00  0.00     0.324 C 
BRANCH  30  31
HETATM   31  C           1     -20.739 -11.154  -5.999  0.00  0.00     0.207 C 
HETATM   32  O           1     -19.598 -10.728  -6.281  0.00  0.00    -0.646 OA
HETATM   33  O           1     -21.536 -11.457  -6.913  0.00  0.00    -0.646 OA
ENDBRANCH  30  31
BRANCH  30  34
HETATM   34  C           1     -22.476 -12.053  -4.481  0.00  0.00     0.087 C 
BRANCH  34  35
HETATM   35  C           1     -22.516 -12.875  -3.231  0.00  0.00    -0.028 A 
HETATM   36  C           1     -22.980 -12.443  -1.958  0.00  0.00    -0.002 A 
HETATM   37  C           1     -23.508 -11.235  -1.466  0.00  0.00     0.014 A 
HETATM   38  C           1     -22.840 -13.520  -1.083  0.00  0.00     0.042 A 
HETATM   39  C           1     -23.877 -11.145  -0.118  0.00  0.00     0.001 A 
HETATM   40  C           1     -23.725 -12.238   0.733  0.00  0.00     0.002 A 
HETATM   41  C           1     -23.203 -13.449   0.268  0.00  0.00     0.030 A 
HETATM   42  N           1     -22.309 -14.564  -1.807  0.00  0.00    -0.365 N 
HETATM   43  H           1     -22.087 -15.514  -1.418  0.00  0.00     0.165 HD
HETATM   44  C           1     -22.108 -14.184  -3.108  0.00  0.00     0.096 A 
ENDBRANCH  34  35
ENDBRANCH  30  34
ENDBRANCH  28  30
ENDBRANCH  27  28
ENDBRANCH  26  27
ENDBRANCH   1  26
TORSDOF 15
ENDMDL
MODEL 6
REMARK VINA RESULT:      -7.2      3.217      5.527
REMARK  15 active torsions:
REMARK  status: ('A' for Active; 'I' for Inactive)
REMARK    1  A    between atoms: C_8  and  N_9 
REMARK    2  A    between atoms: C_8  and  C_36 
REMARK    3  A    between atoms: N_9  and  C_28 
REMARK    4  A    between atoms: N_14  and  C_15 
REMARK       I    between atoms: N_14  and  C_40 
REMARK    5  A    between atoms: C_15  and  C_16 
REMARK    6  A    between atoms: C_16  and  C_18 
REMARK    7  A    between atoms: C_18  and  C_19 
REMARK    8  A    between atoms: C_19  and  C_20 
REMARK    9  A    between atoms: C_19  and  N_26 
REMARK       I    between atoms: C_20  and  N_21 
REMARK   10  A    between atoms: N_21  and  C_35 
REMARK   11  A    between atoms: C_24  and  C_35 
REMARK       I    between atoms: N_25  and  C_40 
REMARK   12  A    between atoms: C_28  and  C_34 
REMARK   13  A    between atoms: C_28  and  C_29 
REMARK   14  A    between atoms: C_29  and  C_30 
REMARK   15  A    between atoms: C_35  and  C_36 
ROOT
HETATM    1  C           1     -21.345  -7.569  -2.548  0.00  0.00     0.187 C 
ENDROOT
BRANCH   1   2
HETATM    2  N           1     -20.914  -6.613  -3.551  0.00  0.00    -0.345 N 
HETATM    3  H           1     -20.387  -5.795  -3.276  0.00  0.00     0.163 HD
HETATM    4  C           1     -21.223  -6.819  -4.869  0.00  0.00     0.249 C 
HETATM    5  O           1     -21.853  -7.795  -5.197  0.00  0.00    -0.271 OA
BRANCH   4   6
HETATM    6  C           1     -20.776  -5.825  -5.912  0.00  0.00     0.274 C 
BRANCH   6   7
HETATM    7  C           1     -21.996  -5.170  -6.546  0.00  0.00     0.044 C 
BRANCH   7   8
HETATM    8  C           1     -21.561  -3.940  -7.333  0.00  0.00     0.023 C 
BRANCH   8   9
HETATM    9  C           1     -22.149  -4.000  -8.737  0.00  0.00     0.138 C 
BRANCH   9  10
HETATM   10  N           1     -23.569  -3.624  -8.691  0.00  0.00    -0.227 N 
HETATM   11  H           1     -23.965  -3.171  -7.830  0.00  0.00     0.177 HD
HETATM   12  C           1     -24.316  -3.844  -9.690  0.00  0.00     0.665 C 
HETATM   13  N           1     -25.538  -3.520  -9.650  0.00  0.00    -0.235 N 
HETATM   14  N           1     -23.826  -4.405 -10.756  0.00  0.00    -0.235 N 
HETATM   15  H           1     -25.935  -3.067  -8.790  0.00  0.00     0.174 HD
HETATM   16  H           1     -26.158  -3.703 -10.479  0.00  0.00     0.174 HD
HETATM   17  H           1     -22.816  -4.673 -10.788  0.00  0.00     0.174 HD
HETATM   18  H           1     -24.442  -4.588 -11.580  0.00  0.00     0.174 HD
ENDBRANCH   9  10
ENDBRANCH   8   9
ENDBRANCH   7   8
ENDBRANCH   6   7
BRANCH   6  19
HETATM   19  N           1     -19.983  -6.534  -6.970  0.00  0.00    -0.067 N 
HETATM   20  H           1     -18.989  -6.215  -6.935  0.00  0.00     0.275 HD
HETATM   21  H           1     -20.024  -7.565  -6.802  0.00  0.00     0.275 HD
HETATM   22  H           1     -20.386  -6.318  -7.909  0.00  0.00     0.275 HD
ENDBRANCH   6  19
ENDBRANCH   4   6
ENDBRANCH   1   2
BRANCH   1  23
HETATM   23  C           1     -22.193  -6.867  -1.517  0.00  0.00     0.196 C 
HETATM   24  O           1     -22.649  -7.504  -0.542  0.00  0.00    -0.646 OA
HETATM   25  O           1     -22.441  -5.647  -1.636  0.00  0.00    -0.646 OA
ENDBRANCH   1  23
BRANCH   1  26
HETATM   26  C           1     -20.124  -8.180  -1.873  0.00  0.00     0.066 C 
BRANCH  26  27
HETATM   27  C           1     -20.175  -9.696  -2.004  0.00  0.00     0.273 C 
BRANCH  27  28
HETATM   28  N           1     -20.414 -10.050  -3.377  0.00  0.00     0.098 N 
HETATM   29  H           1     -20.887  -9.280  -3.850  0.00  0.00     0.317 HD
BRANCH  28  30
HETATM   30  C           1     -19.137 -10.281  -3.997  0.00  0.00     0.324 C 
BRANCH  30  31
HETATM   31  C           1     -19.233  -9.978  -5.472  0.00  0.00     0.207 C 
HETATM   32  O           1     -19.947 -10.690  -6.211  0.00  0.00    -0.646 OA
HETATM   33  O           1     -18.599  -9.016  -5.956  0.00  0.00    -0.646 OA
ENDBRANCH  30  31
BRANCH  30  34
HETATM   34  C           1     -18.735 -11.737  -3.802  0.00  0.00     0.087 C 
BRANCH  34  35
HETATM   35  C           1     -17.259 -11.822  -3.573  0.00  0.00    -0.028 A 
HETATM   36  C           1     -16.263 -11.999  -4.574  0.00  0.00    -0.002 A 
HETATM   37  C           1     -16.296 -12.140  -5.973  0.00  0.00     0.014 A 
HETATM   38  C           1     -15.029 -12.022  -3.924  0.00  0.00     0.042 A 
HETATM   39  C           1     -15.094 -12.301  -6.675  0.00  0.00     0.001 A 
HETATM   40  C           1     -13.875 -12.321  -5.999  0.00  0.00     0.002 A 
HETATM   41  C           1     -13.818 -12.183  -4.610  0.00  0.00     0.030 A 
HETATM   42  N           1     -15.276 -11.866  -2.579  0.00  0.00    -0.365 N 
HETATM   43  H           1     -14.538 -11.844  -1.831  0.00  0.00     0.165 HD
HETATM   44  C           1     -16.621 -11.744  -2.355  0.00  0.00     0.096 A 
ENDBRANCH  34  35
ENDBRANCH  30  34
ENDBRANCH  28  30
ENDBRANCH  27  28
ENDBRANCH  26  27
ENDBRANCH   1  26
TORSDOF 15
ENDMDL
MODEL 7
REMARK VINA RESULT:      -7.2      2.222      3.235
REMARK  15 active torsions:
REMARK  status: ('A' for Active; 'I' for Inactive)
REMARK    1  A    between atoms: C_8  and  N_9 
REMARK    2  A    between atoms: C_8  and  C_36 
REMARK    3  A    between atoms: N_9  and  C_28 
REMARK    4  A    between atoms: N_14  and  C_15 
REMARK       I    between atoms: N_14  and  C_40 
REMARK    5  A    between atoms: C_15  and  C_16 
REMARK    6  A    between atoms: C_16  and  C_18 
REMARK    7  A    between atoms: C_18  and  C_19 
REMARK    8  A    between atoms: C_19  and  C_20 
REMARK    9  A    between atoms: C_19  and  N_26 
REMARK       I    between atoms: C_20  and  N_21 
REMARK   10  A    between atoms: N_21  and  C_35 
REMARK   11  A    between atoms: C_24  and  C_35 
REMARK       I    between atoms: N_25  and  C_40 
REMARK   12  A    between atoms: C_28  and  C_34 
REMARK   13  A    between atoms: C_28  and  C_29 
REMARK   14  A    between atoms: C_29  and  C_30 
REMARK   15  A    between atoms: C_35  and  C_36 
ROOT
HETATM    1  C           1     -20.184  -9.242  -4.534  0.00  0.00     0.187 C 
ENDROOT
BRANCH   1   2
HETATM    2  N           1     -21.071  -8.136  -4.841  0.00  0.00    -0.345 N 
HETATM    3  H           1     -21.953  -8.045  -4.354  0.00  0.00     0.163 HD
HETATM    4  C           1     -20.715  -7.216  -5.789  0.00  0.00     0.249 C 
HETATM    5  O           1     -19.662  -7.325  -6.372  0.00  0.00    -0.271 OA
BRANCH   4   6
HETATM    6  C           1     -21.637  -6.066  -6.109  0.00  0.00     0.274 C 
BRANCH   6   7
HETATM    7  C           1     -20.829  -4.778  -6.207  0.00  0.00     0.044 C 
BRANCH   7   8
HETATM    8  C           1     -21.563  -3.785  -7.100  0.00  0.00     0.023 C 
BRANCH   8   9
HETATM    9  C           1     -22.309  -4.538  -8.194  0.00  0.00     0.138 C 
BRANCH   9  10
HETATM   10  N           1     -23.646  -3.955  -8.367  0.00  0.00    -0.227 N 
HETATM   11  H           1     -24.104  -3.445  -7.571  0.00  0.00     0.177 HD
HETATM   12  C           1     -24.248  -4.066  -9.476  0.00  0.00     0.665 C 
HETATM   13  N           1     -25.399  -3.563  -9.625  0.00  0.00    -0.235 N 
HETATM   14  N           1     -23.681  -4.698 -10.461  0.00  0.00    -0.235 N 
HETATM   15  H           1     -25.857  -3.054  -8.829  0.00  0.00     0.174 HD
HETATM   16  H           1     -25.898  -3.657 -10.545  0.00  0.00     0.174 HD
HETATM   17  H           1     -22.730  -5.113 -10.338  0.00  0.00     0.174 HD
HETATM   18  H           1     -24.177  -4.790 -11.376  0.00  0.00     0.174 HD
ENDBRANCH   9  10
ENDBRANCH   8   9
ENDBRANCH   7   8
ENDBRANCH   6   7
BRANCH   6  19
HETATM   19  N           1     -22.661  -5.930  -5.021  0.00  0.00    -0.067 N 
HETATM   20  H           1     -22.472  -6.634  -4.273  0.00  0.00     0.275 HD
HETATM   21  H           1     -22.610  -4.968  -4.614  0.00  0.00     0.275 HD
HETATM   22  H           1     -23.614  -6.091  -5.418  0.00  0.00     0.275 HD
ENDBRANCH   6  19
ENDBRANCH   4   6
ENDBRANCH   1   2
BRANCH   1  23
HETATM   23  C           1     -20.756 -10.516  -5.105  0.00  0.00     0.196 C 
HETATM   24  O           1     -20.658 -10.753  -6.329  0.00  0.00    -0.646 OA
HETATM   25  O           1     -21.328 -11.336  -4.354  0.00  0.00    -0.646 OA
ENDBRANCH   1  23
BRANCH   1  26
HETATM   26  C           1     -20.046  -9.378  -3.024  0.00  0.00     0.066 C 
BRANCH  26  27
HETATM   27  C           1     -18.716 -10.043  -2.692  0.00  0.00     0.273 C 
BRANCH  27  28
HETATM   28  N           1     -18.956 -11.370  -2.193  0.00  0.00     0.098 N 
HETATM   29  H           1     -18.392 -12.038  -2.717  0.00  0.00     0.317 HD
BRANCH  28  30
HETATM   30  C           1     -18.565 -11.394  -0.809  0.00  0.00     0.324 C 
BRANCH  30  31
HETATM   31  C           1     -17.191 -12.003  -0.686  0.00  0.00     0.207 C 
HETATM   32  O           1     -16.532 -11.853   0.365  0.00  0.00    -0.646 OA
HETATM   33  O           1     -16.710 -12.659  -1.637  0.00  0.00    -0.646 OA
ENDBRANCH  30  31
BRANCH  30  34
HETATM   34  C           1     -19.563 -12.226  -0.014  0.00  0.00     0.087 C 
BRANCH  34  35
HETATM   35  C           1     -20.944 -11.692  -0.231  0.00  0.00    -0.028 A 
HETATM   36  C           1     -21.431 -10.426   0.199  0.00  0.00    -0.002 A 
HETATM   37  C           1     -20.863  -9.344   0.897  0.00  0.00     0.014 A 
HETATM   38  C           1     -22.762 -10.338  -0.210  0.00  0.00     0.042 A 
HETATM   39  C           1     -21.645  -8.214   1.164  0.00  0.00     0.001 A 
HETATM   40  C           1     -22.973  -8.153   0.744  0.00  0.00     0.002 A 
HETATM   41  C           1     -23.559  -9.215   0.048  0.00  0.00     0.030 A 
HETATM   42  N           1     -23.064 -11.512  -0.862  0.00  0.00    -0.365 N 
HETATM   43  H           1     -23.998 -11.742  -1.284  0.00  0.00     0.165 HD
HETATM   44  C           1     -21.971 -12.338  -0.880  0.00  0.00     0.096 A 
ENDBRANCH  34  35
ENDBRANCH  30  34
ENDBRANCH  28  30
ENDBRANCH  27  28
ENDBRANCH  26  27
ENDBRANCH   1  26
TORSDOF 15
ENDMDL
MODEL 8
REMARK VINA RESULT:      -6.9      2.880      5.418
REMARK  15 active torsions:
REMARK  status: ('A' for Active; 'I' for Inactive)
REMARK    1  A    between atoms: C_8  and  N_9 
REMARK    2  A    between atoms: C_8  and  C_36 
REMARK    3  A    between atoms: N_9  and  C_28 
REMARK    4  A    between atoms: N_14  and  C_15 
REMARK       I    between atoms: N_14  and  C_40 
REMARK    5  A    between atoms: C_15  and  C_16 
REMARK    6  A    between atoms: C_16  and  C_18 
REMARK    7  A    between atoms: C_18  and  C_19 
REMARK    8  A    between atoms: C_19  and  C_20 
REMARK    9  A    between atoms: C_19  and  N_26 
REMARK       I    between atoms: C_20  and  N_21 
REMARK   10  A    between atoms: N_21  and  C_35 
REMARK   11  A    between atoms: C_24  and  C_35 
REMARK       I    between atoms: N_25  and  C_40 
REMARK   12  A    between atoms: C_28  and  C_34 
REMARK   13  A    between atoms: C_28  and  C_29 
REMARK   14  A    between atoms: C_29  and  C_30 
REMARK   15  A    between atoms: C_35  and  C_36 
ROOT
HETATM    1  C           1     -21.279  -7.581  -2.539  0.00  0.00     0.187 C 
ENDROOT
BRANCH   1   2
HETATM    2  N           1     -20.793  -6.684  -3.570  0.00  0.00    -0.345 N 
HETATM    3  H           1     -20.069  -6.011  -3.354  0.00  0.00     0.163 HD
HETATM    4  C           1     -21.314  -6.747  -4.834  0.00  0.00     0.249 C 
HETATM    5  O           1     -22.178  -7.550  -5.091  0.00  0.00    -0.271 OA
BRANCH   4   6
HETATM    6  C           1     -20.808  -5.814  -5.906  0.00  0.00     0.274 C 
BRANCH   6   7
HETATM    7  C           1     -21.988  -5.121  -6.574  0.00  0.00     0.044 C 
BRANCH   7   8
HETATM    8  C           1     -21.498  -3.885  -7.317  0.00  0.00     0.023 C 
BRANCH   8   9
HETATM    9  C           1     -22.078  -3.874  -8.726  0.00  0.00     0.138 C 
BRANCH   9  10
HETATM   10  N           1     -23.518  -3.586  -8.662  0.00  0.00    -0.227 N 
HETATM   11  H           1     -23.930  -3.165  -7.793  0.00  0.00     0.177 HD
HETATM   12  C           1     -24.261  -3.843  -9.654  0.00  0.00     0.665 C 
HETATM   13  N           1     -25.500  -3.594  -9.599  0.00  0.00    -0.235 N 
HETATM   14  N           1     -23.749  -4.364 -10.731  0.00  0.00    -0.235 N 
HETATM   15  H           1     -25.914  -3.174  -8.730  0.00  0.00     0.174 HD
HETATM   16  H           1     -26.116  -3.809 -10.423  0.00  0.00     0.174 HD
HETATM   17  H           1     -22.726  -4.570 -10.776  0.00  0.00     0.174 HD
HETATM   18  H           1     -24.362  -4.577 -11.550  0.00  0.00     0.174 HD
ENDBRANCH   9  10
ENDBRANCH   8   9
ENDBRANCH   7   8
ENDBRANCH   6   7
BRANCH   6  19
HETATM   19  N           1     -20.044  -6.598  -6.931  0.00  0.00    -0.067 N 
HETATM   20  H           1     -20.453  -7.556  -7.014  0.00  0.00     0.275 HD
HETATM   21  H           1     -20.105  -6.113  -7.856  0.00  0.00     0.275 HD
HETATM   22  H           1     -19.044  -6.670  -6.640  0.00  0.00     0.275 HD
ENDBRANCH   6  19
ENDBRANCH   4   6
ENDBRANCH   1   2
BRANCH   1  23
HETATM   23  C           1     -22.177  -6.821  -1.595  0.00  0.00     0.196 C 
HETATM   24  O           1     -22.498  -5.639  -1.851  0.00  0.00    -0.646 OA
HETATM   25  O           1     -22.601  -7.372  -0.556  0.00  0.00    -0.646 OA
ENDBRANCH   1  23
BRANCH   1  26
HETATM   26  C           1     -20.098  -8.155  -1.767  0.00  0.00     0.066 C 
BRANCH  26  27
HETATM   27  C           1     -19.635  -9.445  -2.430  0.00  0.00     0.273 C 
BRANCH  27  28
HETATM   28  N           1     -18.257  -9.314  -2.821  0.00  0.00     0.098 N 
HETATM   29  H           1     -17.655  -9.637  -2.063  0.00  0.00     0.317 HD
BRANCH  28  30
HETATM   30  C           1     -18.051 -10.140  -3.980  0.00  0.00     0.324 C 
BRANCH  30  31
HETATM   31  C           1     -16.582 -10.173  -4.319  0.00  0.00     0.207 C 
HETATM   32  O           1     -16.184  -9.739  -5.421  0.00  0.00    -0.646 OA
HETATM   33  O           1     -15.761 -10.635  -3.497  0.00  0.00    -0.646 OA
ENDBRANCH  30  31
BRANCH  30  34
HETATM   34  C           1     -18.831  -9.566  -5.156  0.00  0.00     0.087 C 
BRANCH  34  35
HETATM   35  C           1     -19.723 -10.622  -5.729  0.00  0.00    -0.028 A 
HETATM   36  C           1     -19.342 -11.625  -6.663  0.00  0.00    -0.002 A 
HETATM   37  C           1     -18.136 -11.953  -7.310  0.00  0.00     0.014 A 
HETATM   38  C           1     -20.476 -12.394  -6.925  0.00  0.00     0.042 A 
HETATM   39  C           1     -18.106 -13.037  -8.197  0.00  0.00     0.001 A 
HETATM   40  C           1     -19.256 -13.786  -8.441  0.00  0.00     0.002 A 
HETATM   41  C           1     -20.465 -13.480  -7.810  0.00  0.00     0.030 A 
HETATM   42  N           1     -21.503 -11.868  -6.175  0.00  0.00    -0.365 N 
HETATM   43  H           1     -22.487 -12.236  -6.162  0.00  0.00     0.165 HD
HETATM   44  C           1     -21.059 -10.796  -5.447  0.00  0.00     0.096 A 
ENDBRANCH  34  35
ENDBRANCH  30  34
ENDBRANCH  28  30
ENDBRANCH  27  28
ENDBRANCH  26  27
ENDBRANCH   1  26
TORSDOF 15
ENDMDL
MODEL 9
REMARK VINA RESULT:      -6.8      2.172      3.896
REMARK  15 active torsions:
REMARK  status: ('A' for Active; 'I' for Inactive)
REMARK    1  A    between atoms: C_8  and  N_9 
REMARK    2  A    between atoms: C_8  and  C_36 
REMARK    3  A    between atoms: N_9  and  C_28 
REMARK    4  A    between atoms: N_14  and  C_15 
REMARK       I    between atoms: N_14  and  C_40 
REMARK    5  A    between atoms: C_15  and  C_16 
REMARK    6  A    between atoms: C_16  and  C_18 
REMARK    7  A    between atoms: C_18  and  C_19 
REMARK    8  A    between atoms: C_19  and  C_20 
REMARK    9  A    between atoms: C_19  and  N_26 
REMARK       I    between atoms: C_20  and  N_21 
REMARK   10  A    between atoms: N_21  and  C_35 
REMARK   11  A    between atoms: C_24  and  C_35 
REMARK       I    between atoms: N_25  and  C_40 
REMARK   12  A    between atoms: C_28  and  C_34 
REMARK   13  A    between atoms: C_28  and  C_29 
REMARK   14  A    between atoms: C_29  and  C_30 
REMARK   15  A    between atoms: C_35  and  C_36 
ROOT
HETATM    1  C           1     -21.110  -6.858  -5.863  0.00  0.00     0.187 C 
ENDROOT
BRANCH   1   2
HETATM    2  N           1     -20.330  -5.965  -6.698  0.00  0.00    -0.345 N 
HETATM    3  H           1     -19.322  -5.951  -6.621  0.00  0.00     0.163 HD
HETATM    4  C           1     -20.959  -5.140  -7.591  0.00  0.00     0.249 C 
HETATM    5  O           1     -22.163  -5.156  -7.684  0.00  0.00    -0.271 OA
BRANCH   4   6
HETATM    6  C           1     -20.149  -4.211  -8.460  0.00  0.00     0.274 C 
BRANCH   6   7
HETATM    7  C           1     -20.058  -4.782  -9.869  0.00  0.00     0.044 C 
BRANCH   7   8
HETATM    8  C           1     -20.487  -3.721 -10.876  0.00  0.00     0.023 C 
BRANCH   8   9
HETATM    9  C           1     -21.933  -3.965 -11.286  0.00  0.00     0.138 C 
BRANCH   9  10
HETATM   10  N           1     -22.833  -3.308 -10.328  0.00  0.00    -0.227 N 
HETATM   11  H           1     -22.646  -2.320 -10.025  0.00  0.00     0.177 HD
HETATM   12  C           1     -23.835  -3.932  -9.868  0.00  0.00     0.665 C 
HETATM   13  N           1     -24.610  -3.365  -9.044  0.00  0.00    -0.235 N 
HETATM   14  N           1     -24.067  -5.155 -10.244  0.00  0.00    -0.235 N 
HETATM   15  H           1     -24.423  -2.378  -8.739  0.00  0.00     0.174 HD
HETATM   16  H           1     -25.440  -3.884  -8.662  0.00  0.00     0.174 HD
HETATM   17  H           1     -23.426  -5.622 -10.926  0.00  0.00     0.174 HD
HETATM   18  H           1     -24.893  -5.670  -9.865  0.00  0.00     0.174 HD
ENDBRANCH   9  10
ENDBRANCH   8   9
ENDBRANCH   7   8
ENDBRANCH   6   7
BRANCH   6  19
HETATM   19  N           1     -18.768  -4.071  -7.889  0.00  0.00    -0.067 N 
HETATM   20  H           1     -18.086  -4.582  -8.494  0.00  0.00     0.275 HD
HETATM   21  H           1     -18.509  -3.058  -7.852  0.00  0.00     0.275 HD
HETATM   22  H           1     -18.748  -4.472  -6.925  0.00  0.00     0.275 HD
ENDBRANCH   6  19
ENDBRANCH   4   6
ENDBRANCH   1   2
BRANCH   1  23
HETATM   23  C           1     -21.548  -6.126  -4.618  0.00  0.00     0.196 C 
HETATM   24  O           1     -22.720  -6.249  -4.200  0.00  0.00    -0.646 OA
HETATM   25  O           1     -20.740  -5.396  -4.005  0.00  0.00    -0.646 OA
ENDBRANCH   1  23
BRANCH   1  26
HETATM   26  C           1     -20.260  -8.060  -5.473  0.00  0.00     0.066 C 
BRANCH  26  27
HETATM   27  C           1     -21.166  -9.223  -5.091  0.00  0.00     0.273 C 
BRANCH  27  28
HETATM   28  N           1     -20.367 -10.305  -4.582  0.00  0.00     0.098 N 
HETATM   29  H           1     -20.135 -10.944  -5.341  0.00  0.00     0.317 HD
BRANCH  28  30
HETATM   30  C           1     -19.158  -9.740  -4.045  0.00  0.00     0.324 C 
BRANCH  30  31
HETATM   31  C           1     -17.967 -10.348  -4.743  0.00  0.00     0.207 C 
HETATM   32  O           1     -17.549  -9.852  -5.811  0.00  0.00    -0.646 OA
HETATM   33  O           1     -17.398 -11.348  -4.253  0.00  0.00    -0.646 OA
ENDBRANCH  30  31
BRANCH  30  34
HETATM   34  C           1     -19.079 -10.035  -2.553  0.00  0.00     0.087 C 
BRANCH  34  35
HETATM   35  C           1     -20.225  -9.377  -1.851  0.00  0.00    -0.028 A 
HETATM   36  C           1     -21.353 -10.035  -1.287  0.00  0.00    -0.002 A 
HETATM   37  C           1     -21.755 -11.380  -1.191  0.00  0.00     0.014 A 
HETATM   38  C           1     -22.170  -9.048  -0.735  0.00  0.00     0.042 A 
HETATM   39  C           1     -22.961 -11.691  -0.550  0.00  0.00     0.001 A 
HETATM   40  C           1     -23.758 -10.684  -0.009  0.00  0.00     0.002 A 
HETATM   41  C           1     -23.379  -9.341  -0.091  0.00  0.00     0.030 A 
HETATM   42  N           1     -21.554  -7.838  -0.962  0.00  0.00    -0.365 N 
HETATM   43  H           1     -21.932  -6.905  -0.663  0.00  0.00     0.165 HD
HETATM   44  C           1     -20.376  -8.025  -1.636  0.00  0.00     0.096 A 
ENDBRANCH  34  35
ENDBRANCH  30  34
ENDBRANCH  28  30
ENDBRANCH  27  28
ENDBRANCH  26  27
ENDBRANCH   1  26
TORSDOF 15
ENDMDL
