MODEL 1
REMARK VINA RESULT:      -6.6      0.000      0.000
REMARK  15 active torsions:
REMARK  status: ('A' for Active; 'I' for Inactive)
REMARK    1  A    between atoms: C_2  and  C_28 
REMARK    2  A    between atoms: C_2  and  C_3 
REMARK    3  A    between atoms: C_2  and  N_24 
REMARK    4  A    between atoms: N_13  and  C_15 
REMARK    5  A    between atoms: N_13  and  C_14 
REMARK    6  A    between atoms: C_14  and  C_28 
REMARK    7  A    between atoms: C_15  and  C_36 
REMARK    8  A    between atoms: C_15  and  C_16 
REMARK    9  A    between atoms: C_20  and  C_21 
REMARK   10  A    between atoms: C_20  and  C_25 
REMARK   11  A    between atoms: C_21  and  C_22 
REMARK   12  A    between atoms: C_22  and  C_23 
REMARK   13  A    between atoms: C_22  and  N_30 
REMARK       I    between atoms: C_23  and  N_24 
REMARK   14  A    between atoms: C_25  and  N_26 
REMARK       I    between atoms: N_26  and  C_33 
REMARK       I    between atoms: N_31  and  C_33 
REMARK   15  A    between atoms: Se_35  and  C_36 
ROOT
HETATM    1  H           1     -35.277   0.005 -12.002  0.00  0.00     0.163 HD
HETATM    2  C           1     -36.908  -0.147 -13.267  0.00  0.00     0.249 C 
HETATM    3  N           1     -36.254  -0.251 -12.068  0.00  0.00    -0.345 N 
HETATM    4  O           1     -38.074  -0.451 -13.346  0.00  0.00    -0.271 OA
ENDROOT
BRANCH   2   5
HETATM    5  C           1     -36.172   0.347 -14.488  0.00  0.00     0.274 C 
BRANCH   5   6
HETATM    6  C           1     -36.538  -0.519 -15.686  0.00  0.00     0.044 C 
BRANCH   6   7
HETATM    7  C           1     -35.296  -0.764 -16.535  0.00  0.00     0.023 C 
BRANCH   7   8
HETATM    8  C           1     -35.161  -2.254 -16.818  0.00  0.00     0.138 C 
BRANCH   8   9
HETATM    9  N           1     -33.788  -2.547 -17.256  0.00  0.00    -0.227 N 
HETATM   10  H           1     -33.293  -1.888 -17.907  0.00  0.00     0.177 HD
HETATM   11  C           1     -33.203  -3.592 -16.848  0.00  0.00     0.665 C 
HETATM   12  N           1     -33.816  -4.408 -16.041  0.00  0.00    -0.235 N 
HETATM   13  N           1     -32.022  -3.845 -17.223  0.00  0.00    -0.235 N 
HETATM   14  H           1     -34.792  -4.199 -15.730  0.00  0.00     0.174 HD
HETATM   15  H           1     -33.334  -5.271 -15.704  0.00  0.00     0.174 HD
HETATM   16  H           1     -31.536  -4.711 -16.884  0.00  0.00     0.174 HD
HETATM   17  H           1     -31.526  -3.187 -17.875  0.00  0.00     0.174 HD
ENDBRANCH   8   9
ENDBRANCH   7   8
ENDBRANCH   6   7
ENDBRANCH   5   6
BRANCH   5  18
HETATM   18  N           1     -34.694   0.267 -14.247  0.00  0.00    -0.067 N 
HETATM   19  H           1     -34.282   1.227 -14.283  0.00  0.00     0.275 HD
HETATM   20  H           1     -34.518  -0.151 -13.305  0.00  0.00     0.275 HD
HETATM   21  H           1     -34.253  -0.330 -14.982  0.00  0.00     0.275 HD
ENDBRANCH   5  18
ENDBRANCH   2   5
BRANCH   3  22
HETATM   22  C           1     -36.961  -0.726 -10.895  0.00  0.00     0.187 C 
BRANCH  22  23
HETATM   23  C           1     -36.174  -1.860 -10.253  0.00  0.00     0.066 C 
BRANCH  23  24
HETATM   24  C           1     -34.796  -1.952 -10.898  0.00  0.00     0.273 C 
BRANCH  24  25
HETATM   25  N           1     -34.190  -3.211 -10.556  0.00  0.00     0.098 N 
HETATM   26  H           1     -34.917  -3.884 -10.315  0.00  0.00     0.317 HD
BRANCH  25  27
HETATM   27  C           1     -33.471  -3.676 -11.712  0.00  0.00     0.320 C 
BRANCH  27  28
HETATM   28  C           1     -32.963  -5.089 -11.458  0.00  0.00     0.049 C 
BRANCH  28  29
HETATM   29 Se           1     -34.307  -6.096 -10.468  0.00  0.00     0.000 Se
HETATM   30  H           1     -35.250  -4.970 -10.376  0.00  0.00     0.000 HD
ENDBRANCH  28  29
ENDBRANCH  27  28
BRANCH  27  31
HETATM   31  C           1     -34.390  -3.678 -12.909  0.00  0.00     0.207 C 
HETATM   32  O           1     -34.999  -4.722 -13.228  0.00  0.00    -0.646 OA
HETATM   33  O           1     -34.542  -2.635 -13.582  0.00  0.00    -0.646 OA
ENDBRANCH  27  31
ENDBRANCH  25  27
ENDBRANCH  24  25
ENDBRANCH  23  24
ENDBRANCH  22  23
BRANCH  22  34
HETATM   34  C           1     -37.112   0.405  -9.908  0.00  0.00     0.196 C 
HETATM   35  O           1     -38.063   1.208 -10.017  0.00  0.00    -0.646 OA
HETATM   36  O           1     -36.284   0.539  -8.979  0.00  0.00    -0.646 OA
ENDBRANCH  22  34
ENDBRANCH   3  22
TORSDOF 15
ENDMDL
MODEL 2
REMARK VINA RESULT:      -6.4     15.178     17.525
REMARK  15 active torsions:
REMARK  status: ('A' for Active; 'I' for Inactive)
REMARK    1  A    between atoms: C_2  and  C_28 
REMARK    2  A    between atoms: C_2  and  C_3 
REMARK    3  A    between atoms: C_2  and  N_24 
REMARK    4  A    between atoms: N_13  and  C_15 
REMARK    5  A    between atoms: N_13  and  C_14 
REMARK    6  A    between atoms: C_14  and  C_28 
REMARK    7  A    between atoms: C_15  and  C_36 
REMARK    8  A    between atoms: C_15  and  C_16 
REMARK    9  A    between atoms: C_20  and  C_21 
REMARK   10  A    between atoms: C_20  and  C_25 
REMARK   11  A    between atoms: C_21  and  C_22 
REMARK   12  A    between atoms: C_22  and  C_23 
REMARK   13  A    between atoms: C_22  and  N_30 
REMARK       I    between atoms: C_23  and  N_24 
REMARK   14  A    between atoms: C_25  and  N_26 
REMARK       I    between atoms: N_26  and  C_33 
REMARK       I    between atoms: N_31  and  C_33 
REMARK   15  A    between atoms: Se_35  and  C_36 
ROOT
HETATM    1  H           1     -20.560  -5.717  -3.418  0.00  0.00     0.163 HD
HETATM    2  C           1     -21.091  -6.812  -5.094  0.00  0.00     0.249 C 
HETATM    3  N           1     -20.933  -6.598  -3.750  0.00  0.00    -0.345 N 
HETATM    4  O           1     -21.536  -7.862  -5.490  0.00  0.00    -0.271 OA
ENDROOT
BRANCH   2   5
HETATM    5  C           1     -20.706  -5.735  -6.079  0.00  0.00     0.274 C 
BRANCH   5   6
HETATM    6  C           1     -21.965  -5.067  -6.618  0.00  0.00     0.044 C 
BRANCH   6   7
HETATM    7  C           1     -21.581  -3.819  -7.404  0.00  0.00     0.023 C 
BRANCH   7   8
HETATM    8  C           1     -22.181  -3.894  -8.801  0.00  0.00     0.138 C 
BRANCH   8   9
HETATM    9  N           1     -23.611  -3.560  -8.739  0.00  0.00    -0.227 N 
HETATM   10  H           1     -24.005  -3.093  -7.885  0.00  0.00     0.177 HD
HETATM   11  C           1     -24.368  -3.834  -9.716  0.00  0.00     0.665 C 
HETATM   12  N           1     -23.881  -4.412 -10.774  0.00  0.00    -0.235 N 
HETATM   13  N           1     -25.599  -3.545  -9.664  0.00  0.00    -0.235 N 
HETATM   14  H           1     -22.864  -4.649 -10.818  0.00  0.00     0.174 HD
HETATM   15  H           1     -24.506  -4.638 -11.581  0.00  0.00     0.174 HD
HETATM   16  H           1     -26.227  -3.772 -10.474  0.00  0.00     0.174 HD
HETATM   17  H           1     -25.994  -3.079  -8.809  0.00  0.00     0.174 HD
ENDBRANCH   8   9
ENDBRANCH   7   8
ENDBRANCH   6   7
ENDBRANCH   5   6
BRANCH   5  18
HETATM   18  N           1     -19.940  -6.347  -7.214  0.00  0.00    -0.067 N 
HETATM   19  H           1     -19.758  -5.621  -7.943  0.00  0.00     0.275 HD
HETATM   20  H           1     -19.029  -6.718  -6.858  0.00  0.00     0.275 HD
HETATM   21  H           1     -20.497  -7.127  -7.630  0.00  0.00     0.275 HD
ENDBRANCH   5  18
ENDBRANCH   2   5
BRANCH   3  22
HETATM   22  C           1     -21.303  -7.632  -2.804  0.00  0.00     0.187 C 
BRANCH  22  23
HETATM   23  C           1     -20.044  -8.305  -2.271  0.00  0.00     0.066 C 
BRANCH  23  24
HETATM   24  C           1     -20.092  -9.795  -2.584  0.00  0.00     0.273 C 
BRANCH  24  25
HETATM   25  N           1     -19.848  -9.998  -3.987  0.00  0.00     0.098 N 
HETATM   26  H           1     -20.415  -9.346  -4.528  0.00  0.00     0.317 HD
BRANCH  25  27
HETATM   27  C           1     -18.455  -9.738  -4.229  0.00  0.00     0.320 C 
BRANCH  27  28
HETATM   28  C           1     -17.610 -10.774  -3.498  0.00  0.00     0.049 C 
BRANCH  28  29
HETATM   29 Se           1     -16.042  -9.911  -2.728  0.00  0.00     0.000 Se
HETATM   30  H           1     -16.417  -8.563  -3.184  0.00  0.00     0.000 HD
ENDBRANCH  28  29
ENDBRANCH  27  28
BRANCH  27  31
HETATM   31  C           1     -18.178  -9.818  -5.711  0.00  0.00     0.207 C 
HETATM   32  O           1     -18.395  -8.828  -6.442  0.00  0.00    -0.646 OA
HETATM   33  O           1     -17.731 -10.875  -6.206  0.00  0.00    -0.646 OA
ENDBRANCH  27  31
ENDBRANCH  25  27
ENDBRANCH  24  25
ENDBRANCH  23  24
ENDBRANCH  22  23
BRANCH  22  34
HETATM   34  C           1     -22.068  -7.015  -1.659  0.00  0.00     0.196 C 
HETATM   35  O           1     -22.587  -5.886  -1.790  0.00  0.00    -0.646 OA
HETATM   36  O           1     -22.183  -7.634  -0.578  0.00  0.00    -0.646 OA
ENDBRANCH  22  34
ENDBRANCH   3  22
TORSDOF 15
ENDMDL
MODEL 3
REMARK VINA RESULT:      -6.1     14.961     17.773
REMARK  15 active torsions:
REMARK  status: ('A' for Active; 'I' for Inactive)
REMARK    1  A    between atoms: C_2  and  C_28 
REMARK    2  A    between atoms: C_2  and  C_3 
REMARK    3  A    between atoms: C_2  and  N_24 
REMARK    4  A    between atoms: N_13  and  C_15 
REMARK    5  A    between atoms: N_13  and  C_14 
REMARK    6  A    between atoms: C_14  and  C_28 
REMARK    7  A    between atoms: C_15  and  C_36 
REMARK    8  A    between atoms: C_15  and  C_16 
REMARK    9  A    between atoms: C_20  and  C_21 
REMARK   10  A    between atoms: C_20  and  C_25 
REMARK   11  A    between atoms: C_21  and  C_22 
REMARK   12  A    between atoms: C_22  and  C_23 
REMARK   13  A    between atoms: C_22  and  N_30 
REMARK       I    between atoms: C_23  and  N_24 
REMARK   14  A    between atoms: C_25  and  N_26 
REMARK       I    between atoms: N_26  and  C_33 
REMARK       I    between atoms: N_31  and  C_33 
REMARK   15  A    between atoms: Se_35  and  C_36 
ROOT
HETATM    1  H           1     -21.197  -7.967  -3.747  0.00  0.00     0.163 HD
HETATM    2  C           1     -20.377  -7.251  -5.507  0.00  0.00     0.249 C 
HETATM    3  N           1     -20.497  -8.126  -4.461  0.00  0.00    -0.345 N 
HETATM    4  O           1     -19.542  -7.440  -6.360  0.00  0.00    -0.271 OA
ENDROOT
BRANCH   2   5
HETATM    5  C           1     -21.285  -6.048  -5.594  0.00  0.00     0.274 C 
BRANCH   5   6
HETATM    6  C           1     -20.446  -4.791  -5.780  0.00  0.00     0.044 C 
BRANCH   6   7
HETATM    7  C           1     -20.977  -3.997  -6.967  0.00  0.00     0.023 C 
BRANCH   7   8
HETATM    8  C           1     -22.002  -4.834  -7.721  0.00  0.00     0.138 C 
BRANCH   8   9
HETATM    9  N           1     -23.242  -4.062  -7.885  0.00  0.00    -0.227 N 
HETATM   10  H           1     -23.674  -3.582  -7.057  0.00  0.00     0.177 HD
HETATM   11  C           1     -23.788  -3.975  -9.023  0.00  0.00     0.665 C 
HETATM   12  N           1     -23.252  -4.569 -10.049  0.00  0.00    -0.235 N 
HETATM   13  N           1     -24.855  -3.309  -9.165  0.00  0.00    -0.235 N 
HETATM   14  H           1     -22.370  -5.118  -9.932  0.00  0.00     0.174 HD
HETATM   15  H           1     -23.702  -4.497 -10.989  0.00  0.00     0.174 HD
HETATM   16  H           1     -25.307  -3.236 -10.109  0.00  0.00     0.174 HD
HETATM   17  H           1     -25.288  -2.829  -8.337  0.00  0.00     0.174 HD
ENDBRANCH   8   9
ENDBRANCH   7   8
ENDBRANCH   6   7
ENDBRANCH   5   6
BRANCH   5  18
HETATM   18  N           1     -22.083  -5.933  -4.329  0.00  0.00    -0.067 N 
HETATM   19  H           1     -22.508  -6.860  -4.100  0.00  0.00     0.275 HD
HETATM   20  H           1     -21.456  -5.635  -3.548  0.00  0.00     0.275 HD
HETATM   21  H           1     -22.841  -5.224  -4.459  0.00  0.00     0.275 HD
ENDBRANCH   5  18
ENDBRANCH   2   5
BRANCH   3  22
HETATM   22  C           1     -19.625  -9.281  -4.377  0.00  0.00     0.187 C 
BRANCH  22  23
HETATM   23  C           1     -19.218  -9.505  -2.927  0.00  0.00     0.066 C 
BRANCH  23  24
HETATM   24  C           1     -20.026  -8.582  -2.024  0.00  0.00     0.273 C 
BRANCH  24  25
HETATM   25  N           1     -20.721  -9.365  -1.037  0.00  0.00     0.098 N 
HETATM   26  H           1     -20.354  -9.147  -0.111  0.00  0.00     0.317 HD
BRANCH  25  27
HETATM   27  C           1     -22.113  -9.006  -1.097  0.00  0.00     0.320 C 
BRANCH  27  28
HETATM   28  C           1     -22.933 -10.026  -0.317  0.00  0.00     0.049 C 
BRANCH  28  29
HETATM   29 Se           1     -23.550 -11.426  -1.524  0.00  0.00     0.000 Se
HETATM   30  H           1     -24.696 -11.806  -0.683  0.00  0.00     0.000 HD
ENDBRANCH  28  29
ENDBRANCH  27  28
BRANCH  27  31
HETATM   31  C           1     -22.306  -7.637  -0.494  0.00  0.00     0.207 C 
HETATM   32  O           1     -22.674  -6.683  -1.212  0.00  0.00    -0.646 OA
HETATM   33  O           1     -22.099  -7.457   0.726  0.00  0.00    -0.646 OA
ENDBRANCH  27  31
ENDBRANCH  25  27
ENDBRANCH  24  25
ENDBRANCH  23  24
ENDBRANCH  22  23
BRANCH  22  34
HETATM   34  C           1     -20.353 -10.499  -4.890  0.00  0.00     0.196 C 
HETATM   35  O           1     -20.982 -11.232  -4.097  0.00  0.00    -0.646 OA
HETATM   36  O           1     -20.328 -10.774  -6.110  0.00  0.00    -0.646 OA
ENDBRANCH  22  34
ENDBRANCH   3  22
TORSDOF 15
ENDMDL
MODEL 4
REMARK VINA RESULT:      -6.0      3.288      6.177
REMARK  15 active torsions:
REMARK  status: ('A' for Active; 'I' for Inactive)
REMARK    1  A    between atoms: C_2  and  C_28 
REMARK    2  A    between atoms: C_2  and  C_3 
REMARK    3  A    between atoms: C_2  and  N_24 
REMARK    4  A    between atoms: N_13  and  C_15 
REMARK    5  A    between atoms: N_13  and  C_14 
REMARK    6  A    between atoms: C_14  and  C_28 
REMARK    7  A    between atoms: C_15  and  C_36 
REMARK    8  A    between atoms: C_15  and  C_16 
REMARK    9  A    between atoms: C_20  and  C_21 
REMARK   10  A    between atoms: C_20  and  C_25 
REMARK   11  A    between atoms: C_21  and  C_22 
REMARK   12  A    between atoms: C_22  and  C_23 
REMARK   13  A    between atoms: C_22  and  N_30 
REMARK       I    between atoms: C_23  and  N_24 
REMARK   14  A    between atoms: C_25  and  N_26 
REMARK       I    between atoms: N_26  and  C_33 
REMARK       I    between atoms: N_31  and  C_33 
REMARK   15  A    between atoms: Se_35  and  C_36 
ROOT
HETATM    1  H           1     -33.866  -1.439 -15.284  0.00  0.00     0.163 HD
HETATM    2  C           1     -35.745  -0.844 -15.917  0.00  0.00     0.249 C 
HETATM    3  N           1     -34.689  -1.709 -15.808  0.00  0.00    -0.345 N 
HETATM    4  O           1     -36.728  -1.167 -16.541  0.00  0.00    -0.271 OA
ENDROOT
BRANCH   2   5
HETATM    5  C           1     -35.680   0.512 -15.258  0.00  0.00     0.274 C 
BRANCH   5   6
HETATM    6  C           1     -36.221   0.414 -13.838  0.00  0.00     0.044 C 
BRANCH   6   7
HETATM    7  C           1     -35.065   0.204 -12.868  0.00  0.00     0.023 C 
BRANCH   7   8
HETATM    8  C           1     -35.399  -0.939 -11.918  0.00  0.00     0.138 C 
BRANCH   8   9
HETATM    9  N           1     -34.479  -2.060 -12.157  0.00  0.00    -0.227 N 
HETATM   10  H           1     -34.481  -2.552 -13.086  0.00  0.00     0.177 HD
HETATM   11  C           1     -33.684  -2.433 -11.245  0.00  0.00     0.665 C 
HETATM   12  N           1     -33.682  -1.824 -10.096  0.00  0.00    -0.235 N 
HETATM   13  N           1     -32.892  -3.398 -11.451  0.00  0.00    -0.235 N 
HETATM   14  H           1     -34.336  -1.027  -9.927  0.00  0.00     0.174 HD
HETATM   15  H           1     -33.026  -2.131  -9.343  0.00  0.00     0.174 HD
HETATM   16  H           1     -32.232  -3.706 -10.695  0.00  0.00     0.174 HD
HETATM   17  H           1     -32.893  -3.890 -12.379  0.00  0.00     0.174 HD
ENDBRANCH   8   9
ENDBRANCH   7   8
ENDBRANCH   6   7
ENDBRANCH   5   6
BRANCH   5  18
HETATM   18  N           1     -36.508   1.488 -16.041  0.00  0.00    -0.067 N 
HETATM   19  H           1     -37.510   1.196 -16.013  0.00  0.00     0.275 HD
HETATM   20  H           1     -36.411   2.441 -15.622  0.00  0.00     0.275 HD
HETATM   21  H           1     -36.178   1.507 -17.033  0.00  0.00     0.275 HD
ENDBRANCH   5  18
ENDBRANCH   2   5
BRANCH   3  22
HETATM   22  C           1     -34.751  -3.013 -16.440  0.00  0.00     0.187 C 
BRANCH  22  23
HETATM   23  C           1     -33.701  -3.093 -17.540  0.00  0.00     0.066 C 
BRANCH  23  24
HETATM   24  C           1     -32.441  -3.750 -16.993  0.00  0.00     0.273 C 
BRANCH  24  25
HETATM   25  N           1     -31.298  -3.288 -17.734  0.00  0.00     0.098 N 
HETATM   26  H           1     -31.162  -2.292 -17.562  0.00  0.00     0.317 HD
BRANCH  25  27
HETATM   27  C           1     -30.150  -4.016 -17.264  0.00  0.00     0.320 C 
BRANCH  27  28
HETATM   28  C           1     -29.776  -5.084 -18.284  0.00  0.00     0.049 C 
BRANCH  28  29
HETATM   29 Se           1     -29.778  -6.834 -17.425  0.00  0.00     0.000 Se
HETATM   30  H           1     -30.360  -6.343 -16.166  0.00  0.00     0.000 HD
ENDBRANCH  28  29
ENDBRANCH  27  28
BRANCH  27  31
HETATM   31  C           1     -28.991  -3.066 -17.082  0.00  0.00     0.207 C 
HETATM   32  O           1     -27.879  -3.500 -16.715  0.00  0.00    -0.646 OA
HETATM   33  O           1     -29.145  -1.844 -17.299  0.00  0.00    -0.646 OA
ENDBRANCH  27  31
ENDBRANCH  25  27
ENDBRANCH  24  25
ENDBRANCH  23  24
ENDBRANCH  22  23
BRANCH  22  34
HETATM   34  C           1     -34.486  -4.083 -15.411  0.00  0.00     0.196 C 
HETATM   35  O           1     -34.964  -5.229 -15.563  0.00  0.00    -0.646 OA
HETATM   36  O           1     -33.788  -3.825 -14.406  0.00  0.00    -0.646 OA
ENDBRANCH  22  34
ENDBRANCH   3  22
TORSDOF 15
ENDMDL
MODEL 5
REMARK VINA RESULT:      -6.0      2.678      5.214
REMARK  15 active torsions:
REMARK  status: ('A' for Active; 'I' for Inactive)
REMARK    1  A    between atoms: C_2  and  C_28 
REMARK    2  A    between atoms: C_2  and  C_3 
REMARK    3  A    between atoms: C_2  and  N_24 
REMARK    4  A    between atoms: N_13  and  C_15 
REMARK    5  A    between atoms: N_13  and  C_14 
REMARK    6  A    between atoms: C_14  and  C_28 
REMARK    7  A    between atoms: C_15  and  C_36 
REMARK    8  A    between atoms: C_15  and  C_16 
REMARK    9  A    between atoms: C_20  and  C_21 
REMARK   10  A    between atoms: C_20  and  C_25 
REMARK   11  A    between atoms: C_21  and  C_22 
REMARK   12  A    between atoms: C_22  and  C_23 
REMARK   13  A    between atoms: C_22  and  N_30 
REMARK       I    between atoms: C_23  and  N_24 
REMARK   14  A    between atoms: C_25  and  N_26 
REMARK       I    between atoms: N_26  and  C_33 
REMARK       I    between atoms: N_31  and  C_33 
REMARK   15  A    between atoms: Se_35  and  C_36 
ROOT
HETATM    1  H           1     -35.609  -1.758 -14.420  0.00  0.00     0.163 HD
HETATM    2  C           1     -35.142   0.125 -13.698  0.00  0.00     0.249 C 
HETATM    3  N           1     -35.561  -0.772 -14.644  0.00  0.00    -0.345 N 
HETATM    4  O           1     -35.087   1.301 -13.965  0.00  0.00    -0.271 OA
ENDROOT
BRANCH   2   5
HETATM    5  C           1     -34.749  -0.357 -12.323  0.00  0.00     0.274 C 
BRANCH   5   6
HETATM    6  C           1     -34.669  -1.878 -12.322  0.00  0.00     0.044 C 
BRANCH   6   7
HETATM    7  C           1     -33.615  -2.331 -11.318  0.00  0.00     0.023 C 
BRANCH   7   8
HETATM    8  C           1     -34.128  -3.545 -10.555  0.00  0.00     0.138 C 
BRANCH   8   9
HETATM    9  N           1     -34.881  -4.416 -11.469  0.00  0.00    -0.227 N 
HETATM   10  H           1     -35.804  -4.098 -11.856  0.00  0.00     0.177 HD
HETATM   11  C           1     -34.418  -5.549 -11.788  0.00  0.00     0.665 C 
HETATM   12  N           1     -33.275  -5.943 -11.309  0.00  0.00    -0.235 N 
HETATM   13  N           1     -35.065  -6.300 -12.575  0.00  0.00    -0.235 N 
HETATM   14  H           1     -32.739  -5.323 -10.660  0.00  0.00     0.174 HD
HETATM   15  H           1     -32.892  -6.879 -11.573  0.00  0.00     0.174 HD
HETATM   16  H           1     -34.681  -7.239 -12.841  0.00  0.00     0.174 HD
HETATM   17  H           1     -35.989  -5.982 -12.963  0.00  0.00     0.174 HD
ENDBRANCH   8   9
ENDBRANCH   7   8
ENDBRANCH   6   7
ENDBRANCH   5   6
BRANCH   5  18
HETATM   18  N           1     -35.776   0.089 -11.325  0.00  0.00    -0.067 N 
HETATM   19  H           1     -35.954  -0.680 -10.641  0.00  0.00     0.275 HD
HETATM   20  H           1     -35.423   0.932 -10.816  0.00  0.00     0.275 HD
HETATM   21  H           1     -36.664   0.328 -11.821  0.00  0.00     0.275 HD
ENDBRANCH   5  18
ENDBRANCH   2   5
BRANCH   3  22
HETATM   22  C           1     -35.939  -0.309 -15.965  0.00  0.00     0.187 C 
BRANCH  22  23
HETATM   23  C           1     -35.355  -1.245 -17.016  0.00  0.00     0.066 C 
BRANCH  23  24
HETATM   24  C           1     -34.620  -2.388 -16.328  0.00  0.00     0.273 C 
BRANCH  24  25
HETATM   25  N           1     -33.640  -2.938 -17.225  0.00  0.00     0.098 N 
HETATM   26  H           1     -32.797  -2.364 -17.200  0.00  0.00     0.317 HD
BRANCH  25  27
HETATM   27  C           1     -33.329  -4.266 -16.770  0.00  0.00     0.320 C 
BRANCH  27  28
HETATM   28  C           1     -31.821  -4.402 -16.596  0.00  0.00     0.049 C 
BRANCH  28  29
HETATM   29 Se           1     -31.234  -6.111 -17.325  0.00  0.00     0.000 Se
HETATM   30  H           1     -32.073  -6.017 -18.530  0.00  0.00     0.000 HD
ENDBRANCH  28  29
ENDBRANCH  27  28
BRANCH  27  31
HETATM   31  C           1     -34.013  -4.519 -15.449  0.00  0.00     0.207 C 
HETATM   32  O           1     -33.519  -4.069 -14.392  0.00  0.00    -0.646 OA
HETATM   33  O           1     -35.075  -5.178 -15.411  0.00  0.00    -0.646 OA
ENDBRANCH  27  31
ENDBRANCH  25  27
ENDBRANCH  24  25
ENDBRANCH  23  24
ENDBRANCH  22  23
BRANCH  22  34
HETATM   34  C           1     -37.443  -0.297 -16.082  0.00  0.00     0.196 C 
HETATM   35  O           1     -38.075  -1.374 -16.139  0.00  0.00    -0.646 OA
HETATM   36  O           1     -38.058   0.792 -16.122  0.00  0.00    -0.646 OA
ENDBRANCH  22  34
ENDBRANCH   3  22
TORSDOF 15
ENDMDL
MODEL 6
REMARK VINA RESULT:      -5.9     14.610     17.041
REMARK  15 active torsions:
REMARK  status: ('A' for Active; 'I' for Inactive)
REMARK    1  A    between atoms: C_2  and  C_28 
REMARK    2  A    between atoms: C_2  and  C_3 
REMARK    3  A    between atoms: C_2  and  N_24 
REMARK    4  A    between atoms: N_13  and  C_15 
REMARK    5  A    between atoms: N_13  and  C_14 
REMARK    6  A    between atoms: C_14  and  C_28 
REMARK    7  A    between atoms: C_15  and  C_36 
REMARK    8  A    between atoms: C_15  and  C_16 
REMARK    9  A    between atoms: C_20  and  C_21 
REMARK   10  A    between atoms: C_20  and  C_25 
REMARK   11  A    between atoms: C_21  and  C_22 
REMARK   12  A    between atoms: C_22  and  C_23 
REMARK   13  A    between atoms: C_22  and  N_30 
REMARK       I    between atoms: C_23  and  N_24 
REMARK   14  A    between atoms: C_25  and  N_26 
REMARK       I    between atoms: N_26  and  C_33 
REMARK       I    between atoms: N_31  and  C_33 
REMARK   15  A    between atoms: Se_35  and  C_36 
ROOT
HETATM    1  H           1     -20.605  -5.631  -3.385  0.00  0.00     0.163 HD
HETATM    2  C           1     -21.146  -6.782  -5.018  0.00  0.00     0.249 C 
HETATM    3  N           1     -20.992  -6.518  -3.684  0.00  0.00    -0.345 N 
HETATM    4  O           1     -21.608  -7.840  -5.375  0.00  0.00    -0.271 OA
ENDROOT
BRANCH   2   5
HETATM    5  C           1     -20.738  -5.753  -6.044  0.00  0.00     0.274 C 
BRANCH   5   6
HETATM    6  C           1     -21.984  -5.135  -6.666  0.00  0.00     0.044 C 
BRANCH   6   7
HETATM    7  C           1     -21.609  -3.837  -7.370  0.00  0.00     0.023 C 
BRANCH   7   8
HETATM    8  C           1     -22.134  -3.863  -8.799  0.00  0.00     0.138 C 
BRANCH   8   9
HETATM    9  N           1     -23.550  -3.468  -8.809  0.00  0.00    -0.227 N 
HETATM   10  H           1     -23.911  -2.792  -8.090  0.00  0.00     0.177 HD
HETATM   11  C           1     -24.334  -3.941  -9.683  0.00  0.00     0.665 C 
HETATM   12  N           1     -23.886  -4.777 -10.573  0.00  0.00    -0.235 N 
HETATM   13  N           1     -25.552  -3.600  -9.692  0.00  0.00    -0.235 N 
HETATM   14  H           1     -22.880  -5.058 -10.566  0.00  0.00     0.174 HD
HETATM   15  H           1     -24.533  -5.168 -11.295  0.00  0.00     0.174 HD
HETATM   16  H           1     -26.202  -3.992 -10.418  0.00  0.00     0.174 HD
HETATM   17  H           1     -25.914  -2.925  -8.974  0.00  0.00     0.174 HD
ENDBRANCH   8   9
ENDBRANCH   7   8
ENDBRANCH   6   7
ENDBRANCH   5   6
BRANCH   5  18
HETATM   18  N           1     -19.919  -6.411  -7.114  0.00  0.00    -0.067 N 
HETATM   19  H           1     -19.351  -7.181  -6.694  0.00  0.00     0.275 HD
HETATM   20  H           1     -20.554  -6.807  -7.844  0.00  0.00     0.275 HD
HETATM   21  H           1     -19.283  -5.705  -7.549  0.00  0.00     0.275 HD
ENDBRANCH   5  18
ENDBRANCH   2   5
BRANCH   3  22
HETATM   22  C           1     -21.384  -7.507  -2.698  0.00  0.00     0.187 C 
BRANCH  22  23
HETATM   23  C           1     -20.139  -8.165  -2.118  0.00  0.00     0.066 C 
BRANCH  23  24
HETATM   24  C           1     -20.210  -9.671  -2.339  0.00  0.00     0.273 C 
BRANCH  24  25
HETATM   25  N           1     -21.566 -10.118  -2.168  0.00  0.00     0.098 N 
HETATM   26  H           1     -22.110  -9.876  -2.996  0.00  0.00     0.317 HD
BRANCH  25  27
HETATM   27  C           1     -21.538 -11.547  -2.013  0.00  0.00     0.320 C 
BRANCH  27  28
HETATM   28  C           1     -22.074 -11.918  -0.636  0.00  0.00     0.049 C 
BRANCH  28  29
HETATM   29 Se           1     -23.808 -11.072  -0.362  0.00  0.00     0.000 Se
HETATM   30  H           1     -24.393 -11.605  -1.603  0.00  0.00     0.000 HD
ENDBRANCH  28  29
ENDBRANCH  27  28
BRANCH  27  31
HETATM   31  C           1     -22.398 -12.185  -3.076  0.00  0.00     0.207 C 
HETATM   32  O           1     -22.596 -13.419  -3.062  0.00  0.00    -0.646 OA
HETATM   33  O           1     -22.911 -11.480  -3.971  0.00  0.00    -0.646 OA
ENDBRANCH  27  31
ENDBRANCH  25  27
ENDBRANCH  24  25
ENDBRANCH  23  24
ENDBRANCH  22  23
BRANCH  22  34
HETATM   34  C           1     -22.160  -6.834  -1.593  0.00  0.00     0.196 C 
HETATM   35  O           1     -22.427  -5.615  -1.669  0.00  0.00    -0.646 OA
HETATM   36  O           1     -22.538  -7.497  -0.602  0.00  0.00    -0.646 OA
ENDBRANCH  22  34
ENDBRANCH   3  22
TORSDOF 15
ENDMDL
MODEL 7
REMARK VINA RESULT:      -5.8     14.857     17.168
REMARK  15 active torsions:
REMARK  status: ('A' for Active; 'I' for Inactive)
REMARK    1  A    between atoms: C_2  and  C_28 
REMARK    2  A    between atoms: C_2  and  C_3 
REMARK    3  A    between atoms: C_2  and  N_24 
REMARK    4  A    between atoms: N_13  and  C_15 
REMARK    5  A    between atoms: N_13  and  C_14 
REMARK    6  A    between atoms: C_14  and  C_28 
REMARK    7  A    between atoms: C_15  and  C_36 
REMARK    8  A    between atoms: C_15  and  C_16 
REMARK    9  A    between atoms: C_20  and  C_21 
REMARK   10  A    between atoms: C_20  and  C_25 
REMARK   11  A    between atoms: C_21  and  C_22 
REMARK   12  A    between atoms: C_22  and  C_23 
REMARK   13  A    between atoms: C_22  and  N_30 
REMARK       I    between atoms: C_23  and  N_24 
REMARK   14  A    between atoms: C_25  and  N_26 
REMARK       I    between atoms: N_26  and  C_33 
REMARK       I    between atoms: N_31  and  C_33 
REMARK   15  A    between atoms: Se_35  and  C_36 
ROOT
HETATM    1  H           1     -19.893  -7.062  -4.933  0.00  0.00     0.163 HD
HETATM    2  C           1     -21.542  -6.030  -5.638  0.00  0.00     0.249 C 
HETATM    3  N           1     -20.889  -6.917  -4.825  0.00  0.00    -0.345 N 
HETATM    4  O           1     -22.730  -5.855  -5.509  0.00  0.00    -0.271 OA
ENDROOT
BRANCH   2   5
HETATM    5  C           1     -20.778  -5.273  -6.697  0.00  0.00     0.274 C 
BRANCH   5   6
HETATM    6  C           1     -21.742  -4.799  -7.777  0.00  0.00     0.044 C 
BRANCH   6   7
HETATM    7  C           1     -20.952  -4.260  -8.963  0.00  0.00     0.023 C 
BRANCH   7   8
HETATM    8  C           1     -21.910  -3.886 -10.086  0.00  0.00     0.138 C 
BRANCH   8   9
HETATM    9  N           1     -23.215  -3.520  -9.515  0.00  0.00    -0.227 N 
HETATM   10  H           1     -23.261  -2.952  -8.633  0.00  0.00     0.177 HD
HETATM   11  C           1     -24.282  -3.890 -10.087  0.00  0.00     0.665 C 
HETATM   12  N           1     -24.225  -4.594 -11.179  0.00  0.00    -0.235 N 
HETATM   13  N           1     -25.405  -3.575  -9.596  0.00  0.00    -0.235 N 
HETATM   14  H           1     -23.297  -4.853 -11.584  0.00  0.00     0.174 HD
HETATM   15  H           1     -25.105  -4.899 -11.651  0.00  0.00     0.174 HD
HETATM   16  H           1     -26.290  -3.881 -10.071  0.00  0.00     0.174 HD
HETATM   17  H           1     -25.452  -3.007  -8.714  0.00  0.00     0.174 HD
ENDBRANCH   8   9
ENDBRANCH   7   8
ENDBRANCH   6   7
ENDBRANCH   5   6
BRANCH   5  18
HETATM   18  N           1     -19.746  -6.172  -7.308  0.00  0.00    -0.067 N 
HETATM   19  H           1     -19.202  -6.644  -6.551  0.00  0.00     0.275 HD
HETATM   20  H           1     -20.219  -6.894  -7.898  0.00  0.00     0.275 HD
HETATM   21  H           1     -19.098  -5.606  -7.902  0.00  0.00     0.275 HD
ENDBRANCH   5  18
ENDBRANCH   2   5
BRANCH   3  22
HETATM   22  C           1     -21.622  -7.644  -3.808  0.00  0.00     0.187 C 
BRANCH  22  23
HETATM   23  C           1     -20.995  -9.019  -3.617  0.00  0.00     0.066 C 
BRANCH  23  24
HETATM   24  C           1     -22.039  -9.983  -3.068  0.00  0.00     0.273 C 
BRANCH  24  25
HETATM   25  N           1     -21.423 -10.867  -2.115  0.00  0.00     0.098 N 
HETATM   26  H           1     -20.438 -10.987  -2.352  0.00  0.00     0.317 HD
BRANCH  25  27
HETATM   27  C           1     -21.534 -10.255  -0.818  0.00  0.00     0.320 C 
BRANCH  27  28
HETATM   28  C           1     -22.995  -9.932  -0.533  0.00  0.00     0.049 C 
BRANCH  28  29
HETATM   29 Se           1     -23.104  -8.329   0.569  0.00  0.00     0.000 Se
HETATM   30  H           1     -23.750  -7.516  -0.473  0.00  0.00     0.000 HD
ENDBRANCH  28  29
ENDBRANCH  27  28
BRANCH  27  31
HETATM   31  C           1     -21.015 -11.207   0.232  0.00  0.00     0.207 C 
HETATM   32  O           1     -21.801 -11.984   0.815  0.00  0.00    -0.646 OA
HETATM   33  O           1     -19.798 -11.217   0.519  0.00  0.00    -0.646 OA
ENDBRANCH  27  31
ENDBRANCH  25  27
ENDBRANCH  24  25
ENDBRANCH  23  24
ENDBRANCH  22  23
BRANCH  22  34
HETATM   34  C           1     -21.569  -6.881  -2.508  0.00  0.00     0.196 C 
HETATM   35  O           1     -22.442  -6.025  -2.249  0.00  0.00    -0.646 OA
HETATM   36  O           1     -20.651  -7.106  -1.688  0.00  0.00    -0.646 OA
ENDBRANCH  22  34
ENDBRANCH   3  22
TORSDOF 15
ENDMDL
MODEL 8
REMARK VINA RESULT:      -5.6      2.809      5.605
REMARK  15 active torsions:
REMARK  status: ('A' for Active; 'I' for Inactive)
REMARK    1  A    between atoms: C_2  and  C_28 
REMARK    2  A    between atoms: C_2  and  C_3 
REMARK    3  A    between atoms: C_2  and  N_24 
REMARK    4  A    between atoms: N_13  and  C_15 
REMARK    5  A    between atoms: N_13  and  C_14 
REMARK    6  A    between atoms: C_14  and  C_28 
REMARK    7  A    between atoms: C_15  and  C_36 
REMARK    8  A    between atoms: C_15  and  C_16 
REMARK    9  A    between atoms: C_20  and  C_21 
REMARK   10  A    between atoms: C_20  and  C_25 
REMARK   11  A    between atoms: C_21  and  C_22 
REMARK   12  A    between atoms: C_22  and  C_23 
REMARK   13  A    between atoms: C_22  and  N_30 
REMARK       I    between atoms: C_23  and  N_24 
REMARK   14  A    between atoms: C_25  and  N_26 
REMARK       I    between atoms: N_26  and  C_33 
REMARK       I    between atoms: N_31  and  C_33 
REMARK   15  A    between atoms: Se_35  and  C_36 
ROOT
HETATM    1  H           1     -35.336  -2.433 -13.918  0.00  0.00     0.163 HD
HETATM    2  C           1     -34.786  -0.879 -12.667  0.00  0.00     0.249 C 
HETATM    3  N           1     -35.215  -1.431 -13.845  0.00  0.00    -0.345 N 
HETATM    4  O           1     -34.642   0.318 -12.579  0.00  0.00    -0.271 OA
ENDROOT
BRANCH   2   5
HETATM    5  C           1     -34.491  -1.764 -11.481  0.00  0.00     0.274 C 
BRANCH   5   6
HETATM    6  C           1     -33.908  -3.085 -11.967  0.00  0.00     0.044 C 
BRANCH   6   7
HETATM    7  C           1     -33.834  -4.066 -10.803  0.00  0.00     0.023 C 
BRANCH   7   8
HETATM    8  C           1     -34.712  -5.275 -11.101  0.00  0.00     0.138 C 
BRANCH   8   9
HETATM    9  N           1     -33.882  -6.487 -11.133  0.00  0.00    -0.227 N 
HETATM   10  H           1     -33.063  -6.546 -11.788  0.00  0.00     0.177 HD
HETATM   11  C           1     -34.154  -7.461 -10.372  0.00  0.00     0.665 C 
HETATM   12  N           1     -35.169  -7.389  -9.561  0.00  0.00    -0.235 N 
HETATM   13  N           1     -33.440  -8.505 -10.398  0.00  0.00    -0.235 N 
HETATM   14  H           1     -35.758  -6.526  -9.539  0.00  0.00     0.174 HD
HETATM   15  H           1     -35.394  -8.192  -8.932  0.00  0.00     0.174 HD
HETATM   16  H           1     -33.665  -9.312  -9.766  0.00  0.00     0.174 HD
HETATM   17  H           1     -32.620  -8.565 -11.053  0.00  0.00     0.174 HD
ENDBRANCH   8   9
ENDBRANCH   7   8
ENDBRANCH   6   7
ENDBRANCH   5   6
BRANCH   5  18
HETATM   18  N           1     -35.760  -2.026 -10.726  0.00  0.00    -0.067 N 
HETATM   19  H           1     -35.577  -1.950  -9.700  0.00  0.00     0.275 HD
HETATM   20  H           1     -36.481  -1.322 -11.004  0.00  0.00     0.275 HD
HETATM   21  H           1     -36.106  -2.987 -10.948  0.00  0.00     0.275 HD
ENDBRANCH   5  18
ENDBRANCH   2   5
BRANCH   3  22
HETATM   22  C           1     -35.498  -0.580 -14.984  0.00  0.00     0.187 C 
BRANCH  22  23
HETATM   23  C           1     -35.155  -1.323 -16.269  0.00  0.00     0.066 C 
BRANCH  23  24
HETATM   24  C           1     -34.829  -2.776 -15.945  0.00  0.00     0.273 C 
BRANCH  24  25
HETATM   25  N           1     -34.018  -3.331 -16.994  0.00  0.00     0.098 N 
HETATM   26  H           1     -33.441  -2.595 -17.403  0.00  0.00     0.317 HD
BRANCH  25  27
HETATM   27  C           1     -33.171  -4.334 -16.407  0.00  0.00     0.320 C 
BRANCH  27  28
HETATM   28  C           1     -33.661  -5.716 -16.819  0.00  0.00     0.049 C 
BRANCH  28  29
HETATM   29 Se           1     -35.194  -6.217 -15.724  0.00  0.00     0.000 Se
HETATM   30  H           1     -35.998  -6.691 -16.862  0.00  0.00     0.000 HD
ENDBRANCH  28  29
ENDBRANCH  27  28
BRANCH  27  31
HETATM   31  C           1     -31.753  -4.139 -16.886  0.00  0.00     0.207 C 
HETATM   32  O           1     -30.867  -4.960 -16.566  0.00  0.00    -0.646 OA
HETATM   33  O           1     -31.466  -3.156 -17.603  0.00  0.00    -0.646 OA
ENDBRANCH  27  31
ENDBRANCH  25  27
ENDBRANCH  24  25
ENDBRANCH  23  24
ENDBRANCH  22  23
BRANCH  22  34
HETATM   34  C           1     -36.962  -0.216 -14.987  0.00  0.00     0.196 C 
HETATM   35  O           1     -37.732  -0.711 -14.136  0.00  0.00    -0.646 OA
HETATM   36  O           1     -37.405   0.583 -15.842  0.00  0.00    -0.646 OA
ENDBRANCH  22  34
ENDBRANCH   3  22
TORSDOF 15
ENDMDL
MODEL 9
REMARK VINA RESULT:      -5.5     15.814     18.580
REMARK  15 active torsions:
REMARK  status: ('A' for Active; 'I' for Inactive)
REMARK    1  A    between atoms: C_2  and  C_28 
REMARK    2  A    between atoms: C_2  and  C_3 
REMARK    3  A    between atoms: C_2  and  N_24 
REMARK    4  A    between atoms: N_13  and  C_15 
REMARK    5  A    between atoms: N_13  and  C_14 
REMARK    6  A    between atoms: C_14  and  C_28 
REMARK    7  A    between atoms: C_15  and  C_36 
REMARK    8  A    between atoms: C_15  and  C_16 
REMARK    9  A    between atoms: C_20  and  C_21 
REMARK   10  A    between atoms: C_20  and  C_25 
REMARK   11  A    between atoms: C_21  and  C_22 
REMARK   12  A    between atoms: C_22  and  C_23 
REMARK   13  A    between atoms: C_22  and  N_30 
REMARK       I    between atoms: C_23  and  N_24 
REMARK   14  A    between atoms: C_25  and  N_26 
REMARK       I    between atoms: N_26  and  C_33 
REMARK       I    between atoms: N_31  and  C_33 
REMARK   15  A    between atoms: Se_35  and  C_36 
ROOT
HETATM    1  H           1     -20.172  -8.585  -6.352  0.00  0.00     0.163 HD
HETATM    2  C           1     -20.781  -7.431  -4.744  0.00  0.00     0.249 C 
HETATM    3  N           1     -20.142  -8.483  -5.345  0.00  0.00    -0.345 N 
HETATM    4  O           1     -20.744  -7.309  -3.543  0.00  0.00    -0.271 OA
ENDROOT
BRANCH   2   5
HETATM    5  C           1     -21.532  -6.426  -5.582  0.00  0.00     0.274 C 
BRANCH   5   6
HETATM    6  C           1     -20.723  -5.138  -5.676  0.00  0.00     0.044 C 
BRANCH   6   7
HETATM    7  C           1     -20.169  -4.988  -7.088  0.00  0.00     0.023 C 
BRANCH   7   8
HETATM    8  C           1     -20.712  -3.711  -7.714  0.00  0.00     0.138 C 
BRANCH   8   9
HETATM    9  N           1     -22.179  -3.706  -7.623  0.00  0.00    -0.227 N 
HETATM   10  H           1     -22.647  -3.650  -6.685  0.00  0.00     0.177 HD
HETATM   11  C           1     -22.879  -3.770  -8.676  0.00  0.00     0.665 C 
HETATM   12  N           1     -22.300  -3.839  -9.839  0.00  0.00    -0.235 N 
HETATM   13  N           1     -24.142  -3.765  -8.599  0.00  0.00    -0.235 N 
HETATM   14  H           1     -21.256  -3.842  -9.903  0.00  0.00     0.174 HD
HETATM   15  H           1     -22.877  -3.891 -10.708  0.00  0.00     0.174 HD
HETATM   16  H           1     -24.722  -3.816  -9.472  0.00  0.00     0.174 HD
HETATM   17  H           1     -24.610  -3.709  -7.660  0.00  0.00     0.174 HD
ENDBRANCH   8   9
ENDBRANCH   7   8
ENDBRANCH   6   7
ENDBRANCH   5   6
BRANCH   5  18
HETATM   18  N           1     -22.859  -6.137  -4.947  0.00  0.00    -0.067 N 
HETATM   19  H           1     -22.709  -5.712  -4.004  0.00  0.00     0.275 HD
HETATM   20  H           1     -23.394  -5.470  -5.548  0.00  0.00     0.275 HD
HETATM   21  H           1     -23.398  -7.027  -4.847  0.00  0.00     0.275 HD
ENDBRANCH   5  18
ENDBRANCH   2   5
BRANCH   3  22
HETATM   22  C           1     -19.421  -9.449  -4.540  0.00  0.00     0.187 C 
BRANCH  22  23
HETATM   23  C           1     -20.282 -10.689  -4.343  0.00  0.00     0.066 C 
BRANCH  23  24
HETATM   24  C           1     -20.861 -10.689  -2.934  0.00  0.00     0.273 C 
BRANCH  24  25
HETATM   25  N           1     -19.939 -10.044  -2.037  0.00  0.00     0.098 N 
HETATM   26  H           1     -19.633  -9.160  -2.443  0.00  0.00     0.317 HD
BRANCH  25  27
HETATM   27  C           1     -20.635  -9.791  -0.805  0.00  0.00     0.320 C 
BRANCH  27  28
HETATM   28  C           1     -22.094  -9.467  -1.103  0.00  0.00     0.049 C 
BRANCH  28  29
HETATM   29 Se           1     -22.681  -8.000   0.039  0.00  0.00     0.000 Se
HETATM   30  H           1     -22.184  -8.614   1.280  0.00  0.00     0.000 HD
ENDBRANCH  28  29
ENDBRANCH  27  28
BRANCH  27  31
HETATM   31  C           1     -20.562 -11.015   0.075  0.00  0.00     0.207 C 
HETATM   32  O           1     -21.611 -11.535   0.513  0.00  0.00    -0.646 OA
HETATM   33  O           1     -19.451 -11.510   0.365  0.00  0.00    -0.646 OA
ENDBRANCH  27  31
ENDBRANCH  25  27
ENDBRANCH  24  25
ENDBRANCH  23  24
ENDBRANCH  22  23
BRANCH  22  34
HETATM   34  C           1     -18.140  -9.831  -5.241  0.00  0.00     0.196 C 
HETATM   35  O           1     -18.109  -9.907  -6.488  0.00  0.00    -0.646 OA
HETATM   36  O           1     -17.110 -10.071  -4.573  0.00  0.00    -0.646 OA
ENDBRANCH  22  34
ENDBRANCH   3  22
TORSDOF 15
ENDMDL
