MODEL 1
REMARK VINA RESULT:      -9.2      0.000      0.000
REMARK  9 active torsions:
REMARK  status: ('A' for Active; 'I' for Inactive)
REMARK    1  A    between atoms: O_3  and  C_27 
REMARK    2  A    between atoms: C_4  and  C_5 
REMARK    3  A    between atoms: C_5  and  C_23 
REMARK    4  A    between atoms: N_7  and  C_8 
REMARK    5  A    between atoms: C_8  and  C_32 
REMARK    6  A    between atoms: C_8  and  C_25 
REMARK    7  A    between atoms: C_10  and  C_25 
REMARK    8  A    between atoms: C_21  and  C_23 
REMARK    9  A    between atoms: C_23  and  N_26 
REMARK       I    between atoms: N_26  and  C_32 
ROOT
HETATM    1  H           1     -19.408  -7.613  -7.183  0.00  0.00     0.163 HD
HETATM    2  N           1     -19.788  -7.203  -6.339  0.00  0.00    -0.344 N 
HETATM    3  O           1     -19.394  -5.025  -6.037  0.00  0.00    -0.271 OA
HETATM    4  C           1     -20.183  -5.892  -6.333  0.00  0.00     0.249 C 
ENDROOT
BRANCH   2   5
HETATM    5  C           1     -19.916  -8.003  -5.137  0.00  0.00     0.190 C 
BRANCH   5   6
HETATM    6  C           1     -21.249  -8.741  -5.159  0.00  0.00     0.077 C 
BRANCH   6   7
HETATM    7  C           1     -21.545  -9.279  -3.794  0.00  0.00    -0.028 A 
HETATM    8  C           1     -21.614 -10.609  -3.444  0.00  0.00     0.096 A 
HETATM    9  N           1     -21.907 -10.675  -2.108  0.00  0.00    -0.365 N 
HETATM   10  H           1     -22.022 -11.565  -1.561  0.00  0.00     0.165 HD
HETATM   11  C           1     -22.029  -9.408  -1.583  0.00  0.00     0.042 A 
HETATM   12  C           1     -22.317  -8.994  -0.278  0.00  0.00     0.030 A 
HETATM   13  C           1     -21.805  -8.509  -2.627  0.00  0.00    -0.002 A 
HETATM   14  C           1     -22.378  -7.617  -0.036  0.00  0.00     0.002 A 
HETATM   15  C           1     -22.158  -6.697  -1.058  0.00  0.00     0.001 A 
HETATM   16  C           1     -21.871  -7.129  -2.358  0.00  0.00     0.014 A 
ENDBRANCH   6   7
ENDBRANCH   5   6
BRANCH   5  17
HETATM   17  C           1     -18.788  -9.003  -5.077  0.00  0.00     0.197 C 
HETATM   18  O           1     -18.177  -9.192  -4.003  0.00  0.00    -0.646 OA
HETATM   19  O           1     -18.465  -9.643  -6.101  0.00  0.00    -0.646 OA
ENDBRANCH   5  17
ENDBRANCH   2   5
BRANCH   4  20
HETATM   20  C           1     -21.601  -5.529  -6.698  0.00  0.00     0.278 C 
BRANCH  20  21
HETATM   21  N           1     -22.482  -5.690  -5.495  0.00  0.00    -0.066 N 
HETATM   22  H           1     -23.327  -5.083  -5.598  0.00  0.00     0.275 HD
HETATM   23  H           1     -22.778  -6.689  -5.413  0.00  0.00     0.275 HD
HETATM   24  H           1     -21.956  -5.411  -4.637  0.00  0.00     0.275 HD
ENDBRANCH  20  21
BRANCH  20  25
HETATM   25  C           1     -21.650  -4.081  -7.171  0.00  0.00     0.081 C 
BRANCH  25  26
HETATM   26  C           1     -21.686  -4.046  -8.667  0.00  0.00    -0.056 A 
HETATM   27  C           1     -20.495  -4.041  -9.393  0.00  0.00     0.010 A 
HETATM   28  C           1     -20.529  -4.007 -10.788  0.00  0.00     0.037 A 
HETATM   29  C           1     -21.752  -3.979 -11.455  0.00  0.00     0.065 A 
HETATM   30  C           1     -22.944  -3.984 -10.729  0.00  0.00     0.037 A 
HETATM   31  C           1     -22.910  -4.017  -9.334  0.00  0.00     0.010 A 
BRANCH  29  32
HETATM   32  O           1     -21.786  -3.946 -12.809  0.00  0.00    -0.361 OA
HETATM   33  H           1     -22.339  -4.684 -13.114  0.00  0.00     0.217 HD
ENDBRANCH  29  32
ENDBRANCH  25  26
ENDBRANCH  20  25
ENDBRANCH   4  20
TORSDOF 9
ENDMDL
MODEL 2
REMARK VINA RESULT:      -9.1      1.425      2.035
REMARK  9 active torsions:
REMARK  status: ('A' for Active; 'I' for Inactive)
REMARK    1  A    between atoms: O_3  and  C_27 
REMARK    2  A    between atoms: C_4  and  C_5 
REMARK    3  A    between atoms: C_5  and  C_23 
REMARK    4  A    between atoms: N_7  and  C_8 
REMARK    5  A    between atoms: C_8  and  C_32 
REMARK    6  A    between atoms: C_8  and  C_25 
REMARK    7  A    between atoms: C_10  and  C_25 
REMARK    8  A    between atoms: C_21  and  C_23 
REMARK    9  A    between atoms: C_23  and  N_26 
REMARK       I    between atoms: N_26  and  C_32 
ROOT
HETATM    1  H           1     -21.489  -7.939  -6.715  0.00  0.00     0.163 HD
HETATM    2  N           1     -20.780  -7.433  -6.200  0.00  0.00    -0.344 N 
HETATM    3  O           1     -19.162  -6.490  -7.417  0.00  0.00    -0.271 OA
HETATM    4  C           1     -20.168  -6.346  -6.764  0.00  0.00     0.249 C 
ENDROOT
BRANCH   2   5
HETATM    5  C           1     -20.411  -7.859  -4.864  0.00  0.00     0.190 C 
BRANCH   5   6
HETATM    6  C           1     -21.623  -8.468  -4.173  0.00  0.00     0.077 C 
BRANCH   6   7
HETATM    7  C           1     -21.776  -7.870  -2.809  0.00  0.00    -0.028 A 
HETATM    8  C           1     -22.182  -6.585  -2.529  0.00  0.00     0.096 A 
HETATM    9  N           1     -22.190  -6.437  -1.167  0.00  0.00    -0.365 N 
HETATM   10  H           1     -22.459  -5.556  -0.660  0.00  0.00     0.165 HD
HETATM   11  C           1     -21.795  -7.607  -0.558  0.00  0.00     0.042 A 
HETATM   12  C           1     -21.656  -7.917   0.800  0.00  0.00     0.030 A 
HETATM   13  C           1     -21.528  -8.527  -1.573  0.00  0.00    -0.002 A 
HETATM   14  C           1     -21.230  -9.208   1.126  0.00  0.00     0.002 A 
HETATM   15  C           1     -20.957 -10.148   0.135  0.00  0.00     0.001 A 
HETATM   16  C           1     -21.102  -9.820  -1.218  0.00  0.00     0.014 A 
ENDBRANCH   6   7
ENDBRANCH   5   6
BRANCH   5  17
HETATM   17  C           1     -19.311  -8.888  -4.951  0.00  0.00     0.197 C 
HETATM   18  O           1     -19.200  -9.598  -5.974  0.00  0.00    -0.646 OA
HETATM   19  O           1     -18.510  -9.030  -4.002  0.00  0.00    -0.646 OA
ENDBRANCH   5  17
ENDBRANCH   2   5
BRANCH   4  20
HETATM   20  C           1     -20.753  -4.968  -6.573  0.00  0.00     0.278 C 
BRANCH  20  21
HETATM   21  N           1     -20.336  -4.430  -5.236  0.00  0.00    -0.066 N 
HETATM   22  H           1     -19.368  -4.757  -5.016  0.00  0.00     0.275 HD
HETATM   23  H           1     -20.354  -3.385  -5.261  0.00  0.00     0.275 HD
HETATM   24  H           1     -20.994  -4.773  -4.501  0.00  0.00     0.275 HD
ENDBRANCH  20  21
BRANCH  20  25
HETATM   25  C           1     -20.245  -4.043  -7.672  0.00  0.00     0.081 C 
BRANCH  25  26
HETATM   26  C           1     -21.085  -4.218  -8.900  0.00  0.00    -0.056 A 
HETATM   27  C           1     -20.481  -4.262 -10.156  0.00  0.00     0.010 A 
HETATM   28  C           1     -21.264  -4.425 -11.300  0.00  0.00     0.037 A 
HETATM   29  C           1     -22.648  -4.544 -11.186  0.00  0.00     0.065 A 
HETATM   30  C           1     -23.252  -4.500  -9.929  0.00  0.00     0.037 A 
HETATM   31  C           1     -22.469  -4.338  -8.786  0.00  0.00     0.010 A 
BRANCH  29  32
HETATM   32  O           1     -23.409  -4.702 -12.297  0.00  0.00    -0.361 OA
HETATM   33  H           1     -24.086  -4.006 -12.299  0.00  0.00     0.217 HD
ENDBRANCH  29  32
ENDBRANCH  25  26
ENDBRANCH  20  25
ENDBRANCH   4  20
TORSDOF 9
ENDMDL
MODEL 3
REMARK VINA RESULT:      -8.9      1.737      2.544
REMARK  9 active torsions:
REMARK  status: ('A' for Active; 'I' for Inactive)
REMARK    1  A    between atoms: O_3  and  C_27 
REMARK    2  A    between atoms: C_4  and  C_5 
REMARK    3  A    between atoms: C_5  and  C_23 
REMARK    4  A    between atoms: N_7  and  C_8 
REMARK    5  A    between atoms: C_8  and  C_32 
REMARK    6  A    between atoms: C_8  and  C_25 
REMARK    7  A    between atoms: C_10  and  C_25 
REMARK    8  A    between atoms: C_21  and  C_23 
REMARK    9  A    between atoms: C_23  and  N_26 
REMARK       I    between atoms: N_26  and  C_32 
ROOT
HETATM    1  H           1     -19.656  -7.423  -5.558  0.00  0.00     0.163 HD
HETATM    2  N           1     -20.429  -6.933  -5.126  0.00  0.00    -0.344 N 
HETATM    3  O           1     -20.164  -4.735  -4.834  0.00  0.00    -0.271 OA
HETATM    4  C           1     -20.684  -5.630  -5.457  0.00  0.00     0.249 C 
ENDROOT
BRANCH   2   5
HETATM    5  C           1     -21.267  -7.612  -4.157  0.00  0.00     0.190 C 
BRANCH   5   6
HETATM    6  C           1     -20.524  -8.819  -3.601  0.00  0.00     0.077 C 
BRANCH   6   7
HETATM    7  C           1     -21.494  -9.929  -3.341  0.00  0.00    -0.028 A 
HETATM    8  C           1     -21.809 -10.950  -4.209  0.00  0.00     0.096 A 
HETATM    9  N           1     -22.733 -11.752  -3.594  0.00  0.00    -0.365 N 
HETATM   10  H           1     -23.160 -12.613  -4.019  0.00  0.00     0.165 HD
HETATM   11  C           1     -23.024 -11.268  -2.338  0.00  0.00     0.042 A 
HETATM   12  C           1     -23.899 -11.755  -1.361  0.00  0.00     0.030 A 
HETATM   13  C           1     -22.254 -10.118  -2.155  0.00  0.00    -0.002 A 
HETATM   14  C           1     -23.988 -11.043  -0.160  0.00  0.00     0.002 A 
HETATM   15  C           1     -23.231  -9.892   0.051  0.00  0.00     0.001 A 
HETATM   16  C           1     -22.361  -9.419  -0.937  0.00  0.00     0.014 A 
ENDBRANCH   6   7
ENDBRANCH   5   6
BRANCH   5  17
HETATM   17  C           1     -21.601  -6.664  -3.032  0.00  0.00     0.197 C 
HETATM   18  O           1     -22.676  -6.026  -3.051  0.00  0.00    -0.646 OA
HETATM   19  O           1     -20.805  -6.517  -2.080  0.00  0.00    -0.646 OA
ENDBRANCH   5  17
ENDBRANCH   2   5
BRANCH   4  20
HETATM   20  C           1     -21.614  -5.310  -6.603  0.00  0.00     0.278 C 
BRANCH  20  21
HETATM   21  N           1     -23.032  -5.332  -6.114  0.00  0.00    -0.066 N 
HETATM   22  H           1     -23.683  -5.308  -6.932  0.00  0.00     0.275 HD
HETATM   23  H           1     -23.196  -6.205  -5.564  0.00  0.00     0.275 HD
HETATM   24  H           1     -23.205  -4.499  -5.508  0.00  0.00     0.275 HD
ENDBRANCH  20  21
BRANCH  20  25
HETATM   25  C           1     -21.288  -3.927  -7.151  0.00  0.00     0.081 C 
BRANCH  25  26
HETATM   26  C           1     -21.428  -3.935  -8.642  0.00  0.00    -0.056 A 
HETATM   27  C           1     -22.662  -3.654  -9.228  0.00  0.00     0.010 A 
HETATM   28  C           1     -22.792  -3.662 -10.617  0.00  0.00     0.037 A 
HETATM   29  C           1     -21.688  -3.951 -11.418  0.00  0.00     0.065 A 
HETATM   30  C           1     -20.454  -4.232 -10.832  0.00  0.00     0.037 A 
HETATM   31  C           1     -20.324  -4.224  -9.443  0.00  0.00     0.010 A 
BRANCH  29  32
HETATM   32  O           1     -21.814  -3.958 -12.768  0.00  0.00    -0.361 OA
HETATM   33  H           1     -20.973  -4.264 -13.146  0.00  0.00     0.217 HD
ENDBRANCH  29  32
ENDBRANCH  25  26
ENDBRANCH  20  25
ENDBRANCH   4  20
TORSDOF 9
ENDMDL
MODEL 4
REMARK VINA RESULT:      -8.4      2.372      8.785
REMARK  9 active torsions:
REMARK  status: ('A' for Active; 'I' for Inactive)
REMARK    1  A    between atoms: O_3  and  C_27 
REMARK    2  A    between atoms: C_4  and  C_5 
REMARK    3  A    between atoms: C_5  and  C_23 
REMARK    4  A    between atoms: N_7  and  C_8 
REMARK    5  A    between atoms: C_8  and  C_32 
REMARK    6  A    between atoms: C_8  and  C_25 
REMARK    7  A    between atoms: C_10  and  C_25 
REMARK    8  A    between atoms: C_21  and  C_23 
REMARK    9  A    between atoms: C_23  and  N_26 
REMARK       I    between atoms: N_26  and  C_32 
ROOT
HETATM    1  H           1     -23.451  -6.347  -4.166  0.00  0.00     0.163 HD
HETATM    2  N           1     -22.464  -6.543  -4.273  0.00  0.00    -0.344 N 
HETATM    3  O           1     -21.114  -5.688  -2.713  0.00  0.00    -0.271 OA
HETATM    4  C           1     -21.666  -6.662  -3.167  0.00  0.00     0.249 C 
ENDROOT
BRANCH   2   5
HETATM    5  C           1     -21.895  -6.699  -5.597  0.00  0.00     0.190 C 
BRANCH   5   6
HETATM    6  C           1     -21.261  -5.386  -6.035  0.00  0.00     0.077 C 
BRANCH   6   7
HETATM    7  C           1     -22.039  -4.810  -7.177  0.00  0.00    -0.028 A 
HETATM    8  C           1     -23.359  -4.423  -7.145  0.00  0.00     0.096 A 
HETATM    9  N           1     -23.687  -3.951  -8.388  0.00  0.00    -0.365 N 
HETATM   10  H           1     -24.633  -3.585  -8.662  0.00  0.00     0.165 HD
HETATM   11  C           1     -22.599  -4.026  -9.229  0.00  0.00     0.042 A 
HETATM   12  C           1     -22.469  -3.662 -10.574  0.00  0.00     0.030 A 
HETATM   13  C           1     -21.546  -4.565  -8.488  0.00  0.00    -0.002 A 
HETATM   14  C           1     -21.222  -3.856 -11.177  0.00  0.00     0.002 A 
HETATM   15  C           1     -20.152  -4.390 -10.462  0.00  0.00     0.001 A 
HETATM   16  C           1     -20.301  -4.750  -9.118  0.00  0.00     0.014 A 
ENDBRANCH   6   7
ENDBRANCH   5   6
BRANCH   5  17
HETATM   17  C           1     -20.844  -7.781  -5.568  0.00  0.00     0.197 C 
HETATM   18  O           1     -19.635  -7.475  -5.477  0.00  0.00    -0.646 OA
HETATM   19  O           1     -21.181  -8.983  -5.632  0.00  0.00    -0.646 OA
ENDBRANCH   5  17
ENDBRANCH   2   5
BRANCH   4  20
HETATM   20  C           1     -21.478  -8.009  -2.514  0.00  0.00     0.278 C 
BRANCH  20  21
HETATM   21  N           1     -20.035  -8.412  -2.607  0.00  0.00    -0.066 N 
HETATM   22  H           1     -19.675  -8.194  -3.564  0.00  0.00     0.275 HD
HETATM   23  H           1     -19.481  -7.883  -1.896  0.00  0.00     0.275 HD
HETATM   24  H           1     -19.947  -9.437  -2.427  0.00  0.00     0.275 HD
ENDBRANCH  20  21
BRANCH  20  25
HETATM   25  C           1     -21.886  -7.925  -1.049  0.00  0.00     0.081 C 
BRANCH  25  26
HETATM   26  C           1     -21.991  -9.306  -0.479  0.00  0.00    -0.056 A 
HETATM   27  C           1     -20.952  -9.820   0.298  0.00  0.00     0.010 A 
HETATM   28  C           1     -21.050 -11.106   0.828  0.00  0.00     0.037 A 
HETATM   29  C           1     -22.185 -11.878   0.582  0.00  0.00     0.065 A 
HETATM   30  C           1     -23.223 -11.364  -0.196  0.00  0.00     0.037 A 
HETATM   31  C           1     -23.125 -10.077  -0.726  0.00  0.00     0.010 A 
BRANCH  29  32
HETATM   32  O           1     -22.280 -13.128   1.097  0.00  0.00    -0.361 OA
HETATM   33  H           1     -21.477 -13.302   1.615  0.00  0.00     0.217 HD
ENDBRANCH  29  32
ENDBRANCH  25  26
ENDBRANCH  20  25
ENDBRANCH   4  20
TORSDOF 9
ENDMDL
MODEL 5
REMARK VINA RESULT:      -8.4      2.545      4.288
REMARK  9 active torsions:
REMARK  status: ('A' for Active; 'I' for Inactive)
REMARK    1  A    between atoms: O_3  and  C_27 
REMARK    2  A    between atoms: C_4  and  C_5 
REMARK    3  A    between atoms: C_5  and  C_23 
REMARK    4  A    between atoms: N_7  and  C_8 
REMARK    5  A    between atoms: C_8  and  C_32 
REMARK    6  A    between atoms: C_8  and  C_25 
REMARK    7  A    between atoms: C_10  and  C_25 
REMARK    8  A    between atoms: C_21  and  C_23 
REMARK    9  A    between atoms: C_23  and  N_26 
REMARK       I    between atoms: N_26  and  C_32 
ROOT
HETATM    1  H           1     -21.107  -5.578  -2.582  0.00  0.00     0.163 HD
HETATM    2  N           1     -21.316  -6.375  -3.170  0.00  0.00    -0.344 N 
HETATM    3  O           1     -22.765  -6.022  -4.832  0.00  0.00    -0.271 OA
HETATM    4  C           1     -21.617  -6.190  -4.493  0.00  0.00     0.249 C 
ENDROOT
BRANCH   2   5
HETATM    5  C           1     -21.294  -7.713  -2.613  0.00  0.00     0.190 C 
BRANCH   5   6
HETATM    6  C           1     -19.853  -8.125  -2.339  0.00  0.00     0.077 C 
BRANCH   6   7
HETATM    7  C           1     -19.398  -9.087  -3.392  0.00  0.00    -0.028 A 
HETATM    8  C           1     -20.183  -9.640  -4.378  0.00  0.00     0.096 A 
HETATM    9  N           1     -19.389 -10.463  -5.132  0.00  0.00    -0.365 N 
HETATM   10  H           1     -19.717 -11.022  -5.959  0.00  0.00     0.165 HD
HETATM   11  C           1     -18.099 -10.453  -4.651  0.00  0.00     0.042 A 
HETATM   12  C           1     -16.962 -11.133  -5.100  0.00  0.00     0.030 A 
HETATM   13  C           1     -18.079  -9.592  -3.553  0.00  0.00    -0.002 A 
HETATM   14  C           1     -15.768 -10.925  -4.401  0.00  0.00     0.002 A 
HETATM   15  C           1     -15.717 -10.071  -3.302  0.00  0.00     0.001 A 
HETATM   16  C           1     -16.865  -9.399  -2.867  0.00  0.00     0.014 A 
ENDBRANCH   6   7
ENDBRANCH   5   6
BRANCH   5  17
HETATM   17  C           1     -22.077  -7.734  -1.324  0.00  0.00     0.197 C 
HETATM   18  O           1     -22.658  -6.699  -0.930  0.00  0.00    -0.646 OA
HETATM   19  O           1     -22.146  -8.784  -0.650  0.00  0.00    -0.646 OA
ENDBRANCH   5  17
ENDBRANCH   2   5
BRANCH   4  20
HETATM   20  C           1     -20.517  -6.192  -5.525  0.00  0.00     0.278 C 
BRANCH  20  21
HETATM   21  N           1     -20.980  -6.932  -6.746  0.00  0.00    -0.066 N 
HETATM   22  H           1     -20.229  -7.587  -7.062  0.00  0.00     0.275 HD
HETATM   23  H           1     -21.842  -7.475  -6.515  0.00  0.00     0.275 HD
HETATM   24  H           1     -21.191  -6.250  -7.508  0.00  0.00     0.275 HD
ENDBRANCH  20  21
BRANCH  20  25
HETATM   25  C           1     -20.172  -4.758  -5.903  0.00  0.00     0.081 C 
BRANCH  25  26
HETATM   26  C           1     -20.704  -4.460  -7.271  0.00  0.00    -0.056 A 
HETATM   27  C           1     -22.023  -4.033  -7.428  0.00  0.00     0.010 A 
HETATM   28  C           1     -22.519  -3.757  -8.702  0.00  0.00     0.037 A 
HETATM   29  C           1     -21.696  -3.907  -9.818  0.00  0.00     0.065 A 
HETATM   30  C           1     -20.378  -4.334  -9.661  0.00  0.00     0.037 A 
HETATM   31  C           1     -19.882  -4.610  -8.387  0.00  0.00     0.010 A 
BRANCH  29  32
HETATM   32  O           1     -22.178  -3.638 -11.057  0.00  0.00    -0.361 OA
HETATM   33  H           1     -22.913  -3.011 -10.963  0.00  0.00     0.217 HD
ENDBRANCH  29  32
ENDBRANCH  25  26
ENDBRANCH  20  25
ENDBRANCH   4  20
TORSDOF 9
ENDMDL
MODEL 6
REMARK VINA RESULT:      -8.0      2.553      8.662
REMARK  9 active torsions:
REMARK  status: ('A' for Active; 'I' for Inactive)
REMARK    1  A    between atoms: O_3  and  C_27 
REMARK    2  A    between atoms: C_4  and  C_5 
REMARK    3  A    between atoms: C_5  and  C_23 
REMARK    4  A    between atoms: N_7  and  C_8 
REMARK    5  A    between atoms: C_8  and  C_32 
REMARK    6  A    between atoms: C_8  and  C_25 
REMARK    7  A    between atoms: C_10  and  C_25 
REMARK    8  A    between atoms: C_21  and  C_23 
REMARK    9  A    between atoms: C_23  and  N_26 
REMARK       I    between atoms: N_26  and  C_32 
ROOT
HETATM    1  H           1     -23.562  -7.402  -4.121  0.00  0.00     0.163 HD
HETATM    2  N           1     -22.598  -7.120  -3.993  0.00  0.00    -0.344 N 
HETATM    3  O           1     -22.180  -5.809  -2.234  0.00  0.00    -0.271 OA
HETATM    4  C           1     -22.109  -6.908  -2.732  0.00  0.00     0.249 C 
ENDROOT
BRANCH   2   5
HETATM    5  C           1     -21.735  -6.943  -5.144  0.00  0.00     0.190 C 
BRANCH   5   6
HETATM    6  C           1     -20.950  -5.647  -4.994  0.00  0.00     0.077 C 
BRANCH   6   7
HETATM    7  C           1     -20.574  -5.129  -6.348  0.00  0.00    -0.028 A 
HETATM    8  C           1     -19.295  -5.004  -6.841  0.00  0.00     0.096 A 
HETATM    9  N           1     -19.385  -4.495  -8.110  0.00  0.00    -0.365 N 
HETATM   10  H           1     -18.565  -4.291  -8.735  0.00  0.00     0.165 HD
HETATM   11  C           1     -20.704  -4.288  -8.449  0.00  0.00     0.042 A 
HETATM   12  C           1     -21.266  -3.788  -9.628  0.00  0.00     0.030 A 
HETATM   13  C           1     -21.474  -4.681  -7.353  0.00  0.00    -0.002 A 
HETATM   14  C           1     -22.660  -3.689  -9.687  0.00  0.00     0.002 A 
HETATM   15  C           1     -23.455  -4.075  -8.609  0.00  0.00     0.001 A 
HETATM   16  C           1     -22.875  -4.571  -7.437  0.00  0.00     0.014 A 
ENDBRANCH   6   7
ENDBRANCH   5   6
BRANCH   5  17
HETATM   17  C           1     -20.777  -8.105  -5.237  0.00  0.00     0.197 C 
HETATM   18  O           1     -21.164  -9.197  -5.706  0.00  0.00    -0.646 OA
HETATM   19  O           1     -19.597  -7.975  -4.847  0.00  0.00    -0.646 OA
ENDBRANCH   5  17
ENDBRANCH   2   5
BRANCH   4  20
HETATM   20  C           1     -21.484  -8.046  -1.963  0.00  0.00     0.278 C 
BRANCH  20  21
HETATM   21  N           1     -20.008  -7.810  -1.835  0.00  0.00    -0.066 N 
HETATM   22  H           1     -19.523  -8.167  -2.689  0.00  0.00     0.275 HD
HETATM   23  H           1     -19.828  -6.786  -1.733  0.00  0.00     0.275 HD
HETATM   24  H           1     -19.646  -8.313  -0.993  0.00  0.00     0.275 HD
ENDBRANCH  20  21
BRANCH  20  25
HETATM   25  C           1     -22.107  -8.124  -0.575  0.00  0.00     0.081 C 
BRANCH  25  26
HETATM   26  C           1     -22.287  -9.560  -0.189  0.00  0.00    -0.056 A 
HETATM   27  C           1     -23.530 -10.173  -0.346  0.00  0.00     0.010 A 
HETATM   28  C           1     -23.698 -11.510   0.014  0.00  0.00     0.037 A 
HETATM   29  C           1     -22.624 -12.233   0.532  0.00  0.00     0.065 A 
HETATM   30  C           1     -21.381 -11.619   0.689  0.00  0.00     0.037 A 
HETATM   31  C           1     -21.213 -10.282   0.329  0.00  0.00     0.010 A 
BRANCH  29  32
HETATM   32  O           1     -22.787 -13.532   0.882  0.00  0.00    -0.361 OA
HETATM   33  H           1     -22.221 -13.709   1.651  0.00  0.00     0.217 HD
ENDBRANCH  29  32
ENDBRANCH  25  26
ENDBRANCH  20  25
ENDBRANCH   4  20
TORSDOF 9
ENDMDL
MODEL 7
REMARK VINA RESULT:      -8.0      1.952      3.581
REMARK  9 active torsions:
REMARK  status: ('A' for Active; 'I' for Inactive)
REMARK    1  A    between atoms: O_3  and  C_27 
REMARK    2  A    between atoms: C_4  and  C_5 
REMARK    3  A    between atoms: C_5  and  C_23 
REMARK    4  A    between atoms: N_7  and  C_8 
REMARK    5  A    between atoms: C_8  and  C_32 
REMARK    6  A    between atoms: C_8  and  C_25 
REMARK    7  A    between atoms: C_10  and  C_25 
REMARK    8  A    between atoms: C_21  and  C_23 
REMARK    9  A    between atoms: C_23  and  N_26 
REMARK       I    between atoms: N_26  and  C_32 
ROOT
HETATM    1  H           1     -19.630  -7.385  -5.643  0.00  0.00     0.163 HD
HETATM    2  N           1     -20.416  -6.930  -5.195  0.00  0.00    -0.344 N 
HETATM    3  O           1     -20.208  -4.738  -4.825  0.00  0.00    -0.271 OA
HETATM    4  C           1     -20.705  -5.623  -5.481  0.00  0.00     0.249 C 
ENDROOT
BRANCH   2   5
HETATM    5  C           1     -21.238  -7.664  -4.252  0.00  0.00     0.190 C 
BRANCH   5   6
HETATM    6  C           1     -20.450  -8.847  -3.707  0.00  0.00     0.077 C 
BRANCH   6   7
HETATM    7  C           1     -21.328 -10.059  -3.669  0.00  0.00    -0.028 A 
HETATM    8  C           1     -22.124 -10.451  -2.616  0.00  0.00     0.096 A 
HETATM    9  N           1     -22.763 -11.605  -2.983  0.00  0.00    -0.365 N 
HETATM   10  H           1     -23.438 -12.137  -2.377  0.00  0.00     0.165 HD
HETATM   11  C           1     -22.395 -11.970  -4.258  0.00  0.00     0.042 A 
HETATM   12  C           1     -22.791 -13.064  -5.035  0.00  0.00     0.030 A 
HETATM   13  C           1     -21.490 -11.010  -4.713  0.00  0.00    -0.002 A 
HETATM   14  C           1     -22.242 -13.178  -6.317  0.00  0.00     0.002 A 
HETATM   15  C           1     -21.337 -12.234  -6.798  0.00  0.00     0.001 A 
HETATM   16  C           1     -20.952 -11.146  -6.007  0.00  0.00     0.014 A 
ENDBRANCH   6   7
ENDBRANCH   5   6
BRANCH   5  17
HETATM   17  C           1     -21.632  -6.753  -3.115  0.00  0.00     0.197 C 
HETATM   18  O           1     -22.685  -6.083  -3.188  0.00  0.00    -0.646 OA
HETATM   19  O           1     -20.907  -6.670  -2.101  0.00  0.00    -0.646 OA
ENDBRANCH   5  17
ENDBRANCH   2   5
BRANCH   4  20
HETATM   20  C           1     -21.641  -5.287  -6.616  0.00  0.00     0.278 C 
BRANCH  20  21
HETATM   21  N           1     -23.054  -5.288  -6.114  0.00  0.00    -0.066 N 
HETATM   22  H           1     -23.712  -5.252  -6.925  0.00  0.00     0.275 HD
HETATM   23  H           1     -23.226  -6.159  -5.563  0.00  0.00     0.275 HD
HETATM   24  H           1     -23.208  -4.453  -5.504  0.00  0.00     0.275 HD
ENDBRANCH  20  21
BRANCH  20  25
HETATM   25  C           1     -21.299  -3.908  -7.165  0.00  0.00     0.081 C 
BRANCH  25  26
HETATM   26  C           1     -21.432  -3.917  -8.657  0.00  0.00    -0.056 A 
HETATM   27  C           1     -22.659  -3.622  -9.249  0.00  0.00     0.010 A 
HETATM   28  C           1     -22.782  -3.631 -10.639  0.00  0.00     0.037 A 
HETATM   29  C           1     -21.678  -3.935 -11.435  0.00  0.00     0.065 A 
HETATM   30  C           1     -20.451  -4.231 -10.842  0.00  0.00     0.037 A 
HETATM   31  C           1     -20.328  -4.221  -9.452  0.00  0.00     0.010 A 
BRANCH  29  32
HETATM   32  O           1     -21.798  -3.945 -12.785  0.00  0.00    -0.361 OA
HETATM   33  H           1     -21.548  -3.066 -13.115  0.00  0.00     0.217 HD
ENDBRANCH  29  32
ENDBRANCH  25  26
ENDBRANCH  20  25
ENDBRANCH   4  20
TORSDOF 9
ENDMDL
MODEL 8
REMARK VINA RESULT:      -8.0      0.986      2.403
REMARK  9 active torsions:
REMARK  status: ('A' for Active; 'I' for Inactive)
REMARK    1  A    between atoms: O_3  and  C_27 
REMARK    2  A    between atoms: C_4  and  C_5 
REMARK    3  A    between atoms: C_5  and  C_23 
REMARK    4  A    between atoms: N_7  and  C_8 
REMARK    5  A    between atoms: C_8  and  C_32 
REMARK    6  A    between atoms: C_8  and  C_25 
REMARK    7  A    between atoms: C_10  and  C_25 
REMARK    8  A    between atoms: C_21  and  C_23 
REMARK    9  A    between atoms: C_23  and  N_26 
REMARK       I    between atoms: N_26  and  C_32 
ROOT
HETATM    1  H           1     -19.230  -7.418  -7.057  0.00  0.00     0.163 HD
HETATM    2  N           1     -19.714  -7.092  -6.230  0.00  0.00    -0.344 N 
HETATM    3  O           1     -19.505  -4.920  -5.756  0.00  0.00    -0.271 OA
HETATM    4  C           1     -20.200  -5.813  -6.180  0.00  0.00     0.249 C 
ENDROOT
BRANCH   2   5
HETATM    5  C           1     -19.894  -7.980  -5.098  0.00  0.00     0.190 C 
BRANCH   5   6
HETATM    6  C           1     -21.307  -8.549  -5.120  0.00  0.00     0.077 C 
BRANCH   6   7
HETATM    7  C           1     -21.645  -9.103  -3.771  0.00  0.00    -0.028 A 
HETATM    8  C           1     -21.640  -8.406  -2.584  0.00  0.00     0.096 A 
HETATM    9  N           1     -22.007  -9.272  -1.589  0.00  0.00    -0.365 N 
HETATM   10  H           1     -22.091  -9.019  -0.573  0.00  0.00     0.165 HD
HETATM   11  C           1     -22.251 -10.523  -2.111  0.00  0.00     0.042 A 
HETATM   12  C           1     -22.646 -11.706  -1.477  0.00  0.00     0.030 A 
HETATM   13  C           1     -22.029 -10.442  -3.487  0.00  0.00    -0.002 A 
HETATM   14  C           1     -22.819 -12.840  -2.277  0.00  0.00     0.002 A 
HETATM   15  C           1     -22.606 -12.789  -3.653  0.00  0.00     0.001 A 
HETATM   16  C           1     -22.211 -11.598  -4.270  0.00  0.00     0.014 A 
ENDBRANCH   6   7
ENDBRANCH   5   6
BRANCH   5  17
HETATM   17  C           1     -18.896  -9.108  -5.181  0.00  0.00     0.197 C 
HETATM   18  O           1     -19.016  -9.985  -6.063  0.00  0.00    -0.646 OA
HETATM   19  O           1     -17.947  -9.164  -4.368  0.00  0.00    -0.646 OA
ENDBRANCH   5  17
ENDBRANCH   2   5
BRANCH   4  20
HETATM   20  C           1     -21.601  -5.519  -6.656  0.00  0.00     0.278 C 
BRANCH  20  21
HETATM   21  N           1     -22.565  -5.722  -5.524  0.00  0.00    -0.066 N 
HETATM   22  H           1     -22.674  -6.745  -5.339  0.00  0.00     0.275 HD
HETATM   23  H           1     -22.200  -5.249  -4.668  0.00  0.00     0.275 HD
HETATM   24  H           1     -23.493  -5.314  -5.779  0.00  0.00     0.275 HD
ENDBRANCH  20  21
BRANCH  20  25
HETATM   25  C           1     -21.682  -4.076  -7.137  0.00  0.00     0.081 C 
BRANCH  25  26
HETATM   26  C           1     -21.711  -4.049  -8.634  0.00  0.00    -0.056 A 
HETATM   27  C           1     -22.933  -4.046  -9.307  0.00  0.00     0.010 A 
HETATM   28  C           1     -22.960  -4.022 -10.702  0.00  0.00     0.037 A 
HETATM   29  C           1     -21.766  -4.001 -11.422  0.00  0.00     0.065 A 
HETATM   30  C           1     -20.544  -4.004 -10.749  0.00  0.00     0.037 A 
HETATM   31  C           1     -20.517  -4.028  -9.354  0.00  0.00     0.010 A 
BRANCH  29  32
HETATM   32  O           1     -21.792  -3.977 -12.777  0.00  0.00    -0.361 OA
HETATM   33  H           1     -21.612  -4.876 -13.097  0.00  0.00     0.217 HD
ENDBRANCH  29  32
ENDBRANCH  25  26
ENDBRANCH  20  25
ENDBRANCH   4  20
TORSDOF 9
ENDMDL
MODEL 9
REMARK VINA RESULT:      -7.9      4.193      7.811
REMARK  9 active torsions:
REMARK  status: ('A' for Active; 'I' for Inactive)
REMARK    1  A    between atoms: O_3  and  C_27 
REMARK    2  A    between atoms: C_4  and  C_5 
REMARK    3  A    between atoms: C_5  and  C_23 
REMARK    4  A    between atoms: N_7  and  C_8 
REMARK    5  A    between atoms: C_8  and  C_32 
REMARK    6  A    between atoms: C_8  and  C_25 
REMARK    7  A    between atoms: C_10  and  C_25 
REMARK    8  A    between atoms: C_21  and  C_23 
REMARK    9  A    between atoms: C_23  and  N_26 
REMARK       I    between atoms: N_26  and  C_32 
ROOT
HETATM    1  H           1     -19.258  -7.472  -4.489  0.00  0.00     0.163 HD
HETATM    2  N           1     -19.976  -8.153  -4.275  0.00  0.00    -0.344 N 
HETATM    3  O           1     -20.490  -9.589  -5.906  0.00  0.00    -0.271 OA
HETATM    4  C           1     -19.935  -9.394  -4.851  0.00  0.00     0.249 C 
ENDROOT
BRANCH   2   5
HETATM    5  C           1     -21.047  -7.814  -3.359  0.00  0.00     0.190 C 
BRANCH   5   6
HETATM    6  C           1     -20.548  -7.945  -1.926  0.00  0.00     0.077 C 
BRANCH   6   7
HETATM    7  C           1     -21.652  -8.463  -1.057  0.00  0.00    -0.028 A 
HETATM    8  C           1     -22.204  -7.814   0.024  0.00  0.00     0.096 A 
HETATM    9  N           1     -23.181  -8.622   0.543  0.00  0.00    -0.365 N 
HETATM   10  H           1     -23.775  -8.388   1.377  0.00  0.00     0.165 HD
HETATM   11  C           1     -23.272  -9.788  -0.185  0.00  0.00     0.042 A 
HETATM   12  C           1     -24.117 -10.891  -0.024  0.00  0.00     0.030 A 
HETATM   13  C           1     -22.317  -9.711  -1.201  0.00  0.00    -0.002 A 
HETATM   14  C           1     -23.980 -11.947  -0.931  0.00  0.00     0.002 A 
HETATM   15  C           1     -23.037 -11.898  -1.955  0.00  0.00     0.001 A 
HETATM   16  C           1     -22.199 -10.787  -2.100  0.00  0.00     0.014 A 
ENDBRANCH   6   7
ENDBRANCH   5   6
BRANCH   5  17
HETATM   17  C           1     -21.492  -6.395  -3.609  0.00  0.00     0.197 C 
HETATM   18  O           1     -20.983  -5.736  -4.542  0.00  0.00    -0.646 OA
HETATM   19  O           1     -22.370  -5.878  -2.886  0.00  0.00    -0.646 OA
ENDBRANCH   5  17
ENDBRANCH   2   5
BRANCH   4  20
HETATM   20  C           1     -19.194 -10.518  -4.168  0.00  0.00     0.278 C 
BRANCH  20  21
HETATM   21  N           1     -18.868 -11.583  -5.174  0.00  0.00    -0.066 N 
HETATM   22  H           1     -18.778 -12.505  -4.689  0.00  0.00     0.275 HD
HETATM   23  H           1     -19.632 -11.635  -5.885  0.00  0.00     0.275 HD
HETATM   24  H           1     -17.966 -11.350  -5.648  0.00  0.00     0.275 HD
ENDBRANCH  20  21
BRANCH  20  25
HETATM   25  C           1     -17.904  -9.982  -3.561  0.00  0.00     0.081 C 
BRANCH  25  26
HETATM   26  C           1     -17.599 -10.728  -2.300  0.00  0.00    -0.056 A 
HETATM   27  C           1     -16.274 -10.937  -1.917  0.00  0.00     0.010 A 
HETATM   28  C           1     -15.989 -11.633  -0.741  0.00  0.00     0.037 A 
HETATM   29  C           1     -17.029 -12.118   0.050  0.00  0.00     0.065 A 
HETATM   30  C           1     -18.354 -11.910  -0.333  0.00  0.00     0.037 A 
HETATM   31  C           1     -18.638 -11.214  -1.508  0.00  0.00     0.010 A 
BRANCH  29  32
HETATM   32  O           1     -16.753 -12.794   1.192  0.00  0.00    -0.361 OA
HETATM   33  H           1     -15.930 -13.291   1.056  0.00  0.00     0.217 HD
ENDBRANCH  29  32
ENDBRANCH  25  26
ENDBRANCH  20  25
ENDBRANCH   4  20
TORSDOF 9
ENDMDL
