MODEL 1
REMARK VINA RESULT:      -6.1      0.000      0.000
REMARK  11 active torsions:
REMARK  status: ('A' for Active; 'I' for Inactive)
REMARK    1  A    between atoms: N_4  and  C_9 
REMARK    2  A    between atoms: N_7  and  C_16 
REMARK       I    between atoms: N_7  and  C_8 
REMARK    3  A    between atoms: C_8  and  C_9 
REMARK    4  A    between atoms: C_9  and  C_10 
REMARK    5  A    between atoms: C_10  and  C_11 
REMARK    6  A    between atoms: C_11  and  C_12 
REMARK    7  A    between atoms: C_14  and  C_15 
REMARK    8  A    between atoms: C_14  and  C_16 
REMARK    9  A    between atoms: C_15  and  C_24 
REMARK   10  A    between atoms: C_16  and  C_23 
REMARK   11  A    between atoms: C_24  and  N_25 
ROOT
HETATM    1  H           1     -27.263  -5.901 -17.974  0.00  0.00     0.163 HD
HETATM    2  O           1     -26.156  -7.319 -15.403  0.00  0.00    -0.271 OA
HETATM    3  N           1     -27.281  -6.314 -17.050  0.00  0.00    -0.345 N 
HETATM    4  C           1     -26.134  -6.825 -16.506  0.00  0.00     0.249 C 
ENDROOT
BRANCH   3   5
HETATM    5  C           1     -28.523  -6.365 -16.303  0.00  0.00     0.185 C 
BRANCH   5   6
HETATM    6  C           1     -28.994  -4.948 -16.005  0.00  0.00     0.038 C 
BRANCH   6   7
HETATM    7  C           1     -28.268  -3.968 -16.919  0.00  0.00     0.030 C 
BRANCH   7   8
HETATM    8  C           1     -29.185  -2.796 -17.239  0.00  0.00     0.230 C 
BRANCH   8   9
HETATM    9  N           1     -30.430  -3.302 -17.905  0.00  0.00    -0.079 N 
HETATM   10  H           1     -31.118  -3.600 -17.177  0.00  0.00     0.274 HD
HETATM   11  H           1     -30.192  -4.116 -18.515  0.00  0.00     0.274 HD
HETATM   12  H           1     -30.848  -2.542 -18.487  0.00  0.00     0.274 HD
ENDBRANCH   8   9
ENDBRANCH   7   8
ENDBRANCH   6   7
ENDBRANCH   5   6
BRANCH   5  13
HETATM   13  C           1     -29.570  -7.083 -17.119  0.00  0.00     0.196 C 
HETATM   14  O           1     -29.474  -8.313 -17.317  0.00  0.00    -0.646 OA
HETATM   15  O           1     -30.534  -6.446 -17.598  0.00  0.00    -0.646 OA
ENDBRANCH   5  13
ENDBRANCH   3   5
BRANCH   4  16
HETATM   16  C           1     -24.841  -6.772 -17.283  0.00  0.00     0.275 C 
BRANCH  16  17
HETATM   17  N           1     -23.982  -7.942 -16.904  0.00  0.00    -0.066 N 
HETATM   18  H           1     -22.988  -7.629 -16.819  0.00  0.00     0.275 HD
HETATM   19  H           1     -24.306  -8.329 -15.989  0.00  0.00     0.275 HD
HETATM   20  H           1     -24.053  -8.679 -17.640  0.00  0.00     0.275 HD
ENDBRANCH  16  17
BRANCH  16  21
HETATM   21  C           1     -25.143  -6.827 -18.775  0.00  0.00     0.053 C 
BRANCH  21  22
HETATM   22  C           1     -23.999  -7.522 -19.500  0.00  0.00     0.115 C 
BRANCH  22  23
HETATM   23  C           1     -24.455  -7.941 -20.877  0.00  0.00     0.172 C 
HETATM   24  O           1     -23.620  -8.073 -21.797  0.00  0.00    -0.648 OA
HETATM   25  O           1     -25.666  -8.156 -21.094  0.00  0.00    -0.648 OA
ENDBRANCH  22  23
ENDBRANCH  21  22
ENDBRANCH  16  21
ENDBRANCH   4  16
TORSDOF 11
ENDMDL
MODEL 2
REMARK VINA RESULT:      -6.0      2.145      3.117
REMARK  11 active torsions:
REMARK  status: ('A' for Active; 'I' for Inactive)
REMARK    1  A    between atoms: N_4  and  C_9 
REMARK    2  A    between atoms: N_7  and  C_16 
REMARK       I    between atoms: N_7  and  C_8 
REMARK    3  A    between atoms: C_8  and  C_9 
REMARK    4  A    between atoms: C_9  and  C_10 
REMARK    5  A    between atoms: C_10  and  C_11 
REMARK    6  A    between atoms: C_11  and  C_12 
REMARK    7  A    between atoms: C_14  and  C_15 
REMARK    8  A    between atoms: C_14  and  C_16 
REMARK    9  A    between atoms: C_15  and  C_24 
REMARK   10  A    between atoms: C_16  and  C_23 
REMARK   11  A    between atoms: C_24  and  N_25 
ROOT
HETATM    1  H           1     -27.290  -6.732 -18.745  0.00  0.00     0.163 HD
HETATM    2  O           1     -24.226  -6.527 -18.103  0.00  0.00    -0.271 OA
HETATM    3  N           1     -26.457  -6.512 -18.215  0.00  0.00    -0.345 N 
HETATM    4  C           1     -25.222  -6.787 -18.736  0.00  0.00     0.249 C 
ENDROOT
BRANCH   3   5
HETATM    5  C           1     -26.571  -5.908 -16.901  0.00  0.00     0.185 C 
BRANCH   5   6
HETATM    6  C           1     -27.861  -5.101 -16.825  0.00  0.00     0.038 C 
BRANCH   6   7
HETATM    7  C           1     -28.706  -5.376 -18.063  0.00  0.00     0.030 C 
BRANCH   7   8
HETATM    8  C           1     -30.075  -5.891 -17.639  0.00  0.00     0.230 C 
BRANCH   8   9
HETATM    9  N           1     -30.223  -5.752 -16.153  0.00  0.00    -0.079 N 
HETATM   10  H           1     -30.079  -4.755 -15.880  0.00  0.00     0.274 HD
HETATM   11  H           1     -29.513  -6.352 -15.675  0.00  0.00     0.274 HD
HETATM   12  H           1     -31.182  -6.056 -15.868  0.00  0.00     0.274 HD
ENDBRANCH   8   9
ENDBRANCH   7   8
ENDBRANCH   6   7
ENDBRANCH   5   6
BRANCH   5  13
HETATM   13  C           1     -26.592  -6.991 -15.851  0.00  0.00     0.196 C 
HETATM   14  O           1     -27.683  -7.438 -15.435  0.00  0.00    -0.646 OA
HETATM   15  O           1     -25.518  -7.441 -15.395  0.00  0.00    -0.646 OA
ENDBRANCH   5  13
ENDBRANCH   3   5
BRANCH   4  16
HETATM   16  C           1     -25.103  -7.416 -20.103  0.00  0.00     0.275 C 
BRANCH  16  17
HETATM   17  N           1     -25.322  -6.369 -21.155  0.00  0.00    -0.066 N 
HETATM   18  H           1     -24.472  -5.766 -21.227  0.00  0.00     0.275 HD
HETATM   19  H           1     -25.501  -6.832 -22.074  0.00  0.00     0.275 HD
HETATM   20  H           1     -26.145  -5.781 -20.895  0.00  0.00     0.275 HD
ENDBRANCH  16  17
BRANCH  16  21
HETATM   21  C           1     -23.713  -8.017 -20.267  0.00  0.00     0.053 C 
BRANCH  21  22
HETATM   22  C           1     -23.404  -8.187 -21.748  0.00  0.00     0.115 C 
BRANCH  22  23
HETATM   23  C           1     -22.105  -8.939 -21.909  0.00  0.00     0.172 C 
HETATM   24  O           1     -21.932  -9.682 -22.899  0.00  0.00    -0.648 OA
HETATM   25  O           1     -21.203  -8.816 -21.054  0.00  0.00    -0.648 OA
ENDBRANCH  22  23
ENDBRANCH  21  22
ENDBRANCH  16  21
ENDBRANCH   4  16
TORSDOF 11
ENDMDL
MODEL 3
REMARK VINA RESULT:      -5.7      2.188      2.630
REMARK  11 active torsions:
REMARK  status: ('A' for Active; 'I' for Inactive)
REMARK    1  A    between atoms: N_4  and  C_9 
REMARK    2  A    between atoms: N_7  and  C_16 
REMARK       I    between atoms: N_7  and  C_8 
REMARK    3  A    between atoms: C_8  and  C_9 
REMARK    4  A    between atoms: C_9  and  C_10 
REMARK    5  A    between atoms: C_10  and  C_11 
REMARK    6  A    between atoms: C_11  and  C_12 
REMARK    7  A    between atoms: C_14  and  C_15 
REMARK    8  A    between atoms: C_14  and  C_16 
REMARK    9  A    between atoms: C_15  and  C_24 
REMARK   10  A    between atoms: C_16  and  C_23 
REMARK   11  A    between atoms: C_24  and  N_25 
ROOT
HETATM    1  H           1     -28.134  -7.047 -20.444  0.00  0.00     0.163 HD
HETATM    2  O           1     -25.767  -6.455 -18.472  0.00  0.00    -0.271 OA
HETATM    3  N           1     -27.678  -6.804 -19.574  0.00  0.00    -0.345 N 
HETATM    4  C           1     -26.312  -6.744 -19.511  0.00  0.00     0.249 C 
ENDROOT
BRANCH   3   5
HETATM    5  C           1     -28.471  -6.523 -18.393  0.00  0.00     0.185 C 
BRANCH   5   6
HETATM    6  C           1     -28.998  -5.096 -18.466  0.00  0.00     0.038 C 
BRANCH   6   7
HETATM    7  C           1     -28.552  -4.326 -17.229  0.00  0.00     0.030 C 
BRANCH   7   8
HETATM    8  C           1     -29.149  -2.926 -17.258  0.00  0.00     0.230 C 
BRANCH   8   9
HETATM    9  N           1     -30.597  -3.008 -17.643  0.00  0.00    -0.079 N 
HETATM   10  H           1     -30.798  -3.951 -18.044  0.00  0.00     0.274 HD
HETATM   11  H           1     -30.810  -2.272 -18.354  0.00  0.00     0.274 HD
HETATM   12  H           1     -31.192  -2.856 -16.797  0.00  0.00     0.274 HD
ENDBRANCH   8   9
ENDBRANCH   7   8
ENDBRANCH   6   7
ENDBRANCH   5   6
BRANCH   5  13
HETATM   13  C           1     -29.632  -7.485 -18.327  0.00  0.00     0.196 C 
HETATM   14  O           1     -29.680  -8.461 -19.107  0.00  0.00    -0.646 OA
HETATM   15  O           1     -30.545  -7.306 -17.492  0.00  0.00    -0.646 OA
ENDBRANCH   5  13
ENDBRANCH   3   5
BRANCH   4  16
HETATM   16  C           1     -25.487  -7.037 -20.740  0.00  0.00     0.275 C 
BRANCH  16  17
HETATM   17  N           1     -25.133  -5.748 -21.424  0.00  0.00    -0.066 N 
HETATM   18  H           1     -25.778  -5.596 -22.232  0.00  0.00     0.275 HD
HETATM   19  H           1     -25.229  -4.958 -20.747  0.00  0.00     0.275 HD
HETATM   20  H           1     -24.149  -5.795 -21.768  0.00  0.00     0.275 HD
ENDBRANCH  16  17
BRANCH  16  21
HETATM   21  C           1     -24.210  -7.761 -20.334  0.00  0.00     0.053 C 
BRANCH  21  22
HETATM   22  C           1     -23.556  -8.369 -21.567  0.00  0.00     0.115 C 
BRANCH  22  23
HETATM   23  C           1     -22.084  -8.578 -21.306  0.00  0.00     0.172 C 
HETATM   24  O           1     -21.574  -8.167 -20.241  0.00  0.00    -0.648 OA
HETATM   25  O           1     -21.377  -9.164 -22.152  0.00  0.00    -0.648 OA
ENDBRANCH  22  23
ENDBRANCH  21  22
ENDBRANCH  16  21
ENDBRANCH   4  16
TORSDOF 11
ENDMDL
MODEL 4
REMARK VINA RESULT:      -5.6     12.208     14.557
REMARK  11 active torsions:
REMARK  status: ('A' for Active; 'I' for Inactive)
REMARK    1  A    between atoms: N_4  and  C_9 
REMARK    2  A    between atoms: N_7  and  C_16 
REMARK       I    between atoms: N_7  and  C_8 
REMARK    3  A    between atoms: C_8  and  C_9 
REMARK    4  A    between atoms: C_9  and  C_10 
REMARK    5  A    between atoms: C_10  and  C_11 
REMARK    6  A    between atoms: C_11  and  C_12 
REMARK    7  A    between atoms: C_14  and  C_15 
REMARK    8  A    between atoms: C_14  and  C_16 
REMARK    9  A    between atoms: C_15  and  C_24 
REMARK   10  A    between atoms: C_16  and  C_23 
REMARK   11  A    between atoms: C_24  and  N_25 
ROOT
HETATM    1  H           1     -22.122  -5.053  -5.185  0.00  0.00     0.163 HD
HETATM    2  O           1     -21.096  -7.799  -6.300  0.00  0.00    -0.271 OA
HETATM    3  N           1     -21.752  -5.711  -5.858  0.00  0.00    -0.345 N 
HETATM    4  C           1     -21.539  -7.014  -5.496  0.00  0.00     0.249 C 
ENDROOT
BRANCH   3   5
HETATM    5  C           1     -21.444  -5.273  -7.206  0.00  0.00     0.185 C 
BRANCH   5   6
HETATM    6  C           1     -22.474  -4.243  -7.652  0.00  0.00     0.038 C 
BRANCH   6   7
HETATM    7  C           1     -22.882  -4.523  -9.093  0.00  0.00     0.030 C 
BRANCH   7   8
HETATM    8  C           1     -23.871  -3.462  -9.556  0.00  0.00     0.230 C 
BRANCH   8   9
HETATM    9  N           1     -25.248  -4.054  -9.617  0.00  0.00    -0.079 N 
HETATM   10  H           1     -25.180  -5.071  -9.844  0.00  0.00     0.274 HD
HETATM   11  H           1     -25.804  -3.567 -10.356  0.00  0.00     0.274 HD
HETATM   12  H           1     -25.720  -3.936  -8.692  0.00  0.00     0.274 HD
ENDBRANCH   8   9
ENDBRANCH   7   8
ENDBRANCH   6   7
ENDBRANCH   5   6
BRANCH   5  13
HETATM   13  C           1     -20.069  -4.654  -7.231  0.00  0.00     0.196 C 
HETATM   14  O           1     -19.398  -4.576  -6.179  0.00  0.00    -0.646 OA
HETATM   15  O           1     -19.599  -4.217  -8.305  0.00  0.00    -0.646 OA
ENDBRANCH   5  13
ENDBRANCH   3   5
BRANCH   4  16
HETATM   16  C           1     -21.860  -7.468  -4.093  0.00  0.00     0.275 C 
BRANCH  16  17
HETATM   17  N           1     -21.322  -8.854  -3.882  0.00  0.00    -0.066 N 
HETATM   18  H           1     -21.185  -9.021  -2.860  0.00  0.00     0.275 HD
HETATM   19  H           1     -22.001  -9.551  -4.262  0.00  0.00     0.275 HD
HETATM   20  H           1     -20.408  -8.951  -4.378  0.00  0.00     0.275 HD
ENDBRANCH  16  17
BRANCH  16  21
HETATM   21  C           1     -21.217  -6.518  -3.092  0.00  0.00     0.053 C 
BRANCH  21  22
HETATM   22  C           1     -22.228  -6.157  -2.012  0.00  0.00     0.115 C 
BRANCH  22  23
HETATM   23  C           1     -22.172  -7.183  -0.906  0.00  0.00     0.172 C 
HETATM   24  O           1     -23.138  -7.311  -0.123  0.00  0.00    -0.648 OA
HETATM   25  O           1     -21.160  -7.904  -0.775  0.00  0.00    -0.648 OA
ENDBRANCH  22  23
ENDBRANCH  21  22
ENDBRANCH  16  21
ENDBRANCH   4  16
TORSDOF 11
ENDMDL
MODEL 5
REMARK VINA RESULT:      -5.5     11.358     13.485
REMARK  11 active torsions:
REMARK  status: ('A' for Active; 'I' for Inactive)
REMARK    1  A    between atoms: N_4  and  C_9 
REMARK    2  A    between atoms: N_7  and  C_16 
REMARK       I    between atoms: N_7  and  C_8 
REMARK    3  A    between atoms: C_8  and  C_9 
REMARK    4  A    between atoms: C_9  and  C_10 
REMARK    5  A    between atoms: C_10  and  C_11 
REMARK    6  A    between atoms: C_11  and  C_12 
REMARK    7  A    between atoms: C_14  and  C_15 
REMARK    8  A    between atoms: C_14  and  C_16 
REMARK    9  A    between atoms: C_15  and  C_24 
REMARK   10  A    between atoms: C_16  and  C_23 
REMARK   11  A    between atoms: C_24  and  N_25 
ROOT
HETATM    1  H           1     -22.444  -5.916  -6.456  0.00  0.00     0.163 HD
HETATM    2  O           1     -19.593  -4.615  -6.324  0.00  0.00    -0.271 OA
HETATM    3  N           1     -21.516  -5.727  -6.099  0.00  0.00    -0.345 N 
HETATM    4  C           1     -20.701  -4.839  -6.748  0.00  0.00     0.249 C 
ENDROOT
BRANCH   3   5
HETATM    5  C           1     -21.049  -6.399  -4.902  0.00  0.00     0.185 C 
BRANCH   5   6
HETATM    6  C           1     -22.159  -6.409  -3.860  0.00  0.00     0.038 C 
BRANCH   6   7
HETATM    7  C           1     -21.581  -6.048  -2.498  0.00  0.00     0.030 C 
BRANCH   7   8
HETATM    8  C           1     -22.142  -6.992  -1.442  0.00  0.00     0.230 C 
BRANCH   8   9
HETATM    9  N           1     -21.692  -8.393  -1.734  0.00  0.00    -0.079 N 
HETATM   10  H           1     -21.788  -8.583  -2.756  0.00  0.00     0.274 HD
HETATM   11  H           1     -22.282  -9.067  -1.195  0.00  0.00     0.274 HD
HETATM   12  H           1     -20.692  -8.504  -1.451  0.00  0.00     0.274 HD
ENDBRANCH   8   9
ENDBRANCH   7   8
ENDBRANCH   6   7
ENDBRANCH   5   6
BRANCH   5  13
HETATM   13  C           1     -20.664  -7.818  -5.241  0.00  0.00     0.196 C 
HETATM   14  O           1     -21.375  -8.770  -4.853  0.00  0.00    -0.646 OA
HETATM   15  O           1     -19.632  -8.043  -5.911  0.00  0.00    -0.646 OA
ENDBRANCH   5  13
ENDBRANCH   3   5
BRANCH   4  16
HETATM   16  C           1     -21.188  -4.140  -7.994  0.00  0.00     0.275 C 
BRANCH  16  17
HETATM   17  N           1     -20.306  -4.510  -9.151  0.00  0.00    -0.066 N 
HETATM   18  H           1     -20.405  -3.794  -9.905  0.00  0.00     0.275 HD
HETATM   19  H           1     -19.312  -4.547  -8.832  0.00  0.00     0.275 HD
HETATM   20  H           1     -20.590  -5.445  -9.519  0.00  0.00     0.275 HD
ENDBRANCH  16  17
BRANCH  16  21
HETATM   21  C           1     -22.619  -4.568  -8.290  0.00  0.00     0.053 C 
BRANCH  21  22
HETATM   22  C           1     -23.341  -3.450  -9.030  0.00  0.00     0.115 C 
BRANCH  22  23
HETATM   23  C           1     -24.122  -4.031 -10.184  0.00  0.00     0.172 C 
HETATM   24  O           1     -24.948  -3.323 -10.799  0.00  0.00    -0.648 OA
HETATM   25  O           1     -23.941  -5.219 -10.524  0.00  0.00    -0.648 OA
ENDBRANCH  22  23
ENDBRANCH  21  22
ENDBRANCH  16  21
ENDBRANCH   4  16
TORSDOF 11
ENDMDL
MODEL 6
REMARK VINA RESULT:      -5.5     11.365     13.360
REMARK  11 active torsions:
REMARK  status: ('A' for Active; 'I' for Inactive)
REMARK    1  A    between atoms: N_4  and  C_9 
REMARK    2  A    between atoms: N_7  and  C_16 
REMARK       I    between atoms: N_7  and  C_8 
REMARK    3  A    between atoms: C_8  and  C_9 
REMARK    4  A    between atoms: C_9  and  C_10 
REMARK    5  A    between atoms: C_10  and  C_11 
REMARK    6  A    between atoms: C_11  and  C_12 
REMARK    7  A    between atoms: C_14  and  C_15 
REMARK    8  A    between atoms: C_14  and  C_16 
REMARK    9  A    between atoms: C_15  and  C_24 
REMARK   10  A    between atoms: C_16  and  C_23 
REMARK   11  A    between atoms: C_24  and  N_25 
ROOT
HETATM    1  H           1     -21.903  -7.316  -7.008  0.00  0.00     0.163 HD
HETATM    2  O           1     -20.215  -4.768  -6.298  0.00  0.00    -0.271 OA
HETATM    3  N           1     -21.257  -6.734  -6.489  0.00  0.00    -0.345 N 
HETATM    4  C           1     -20.987  -5.462  -6.916  0.00  0.00     0.249 C 
ENDROOT
BRANCH   3   5
HETATM    5  C           1     -20.615  -7.250  -5.295  0.00  0.00     0.185 C 
BRANCH   5   6
HETATM    6  C           1     -21.611  -7.245  -4.143  0.00  0.00     0.038 C 
BRANCH   6   7
HETATM    7  C           1     -20.907  -7.674  -2.861  0.00  0.00     0.030 C 
BRANCH   7   8
HETATM    8  C           1     -21.684  -7.157  -1.658  0.00  0.00     0.230 C 
BRANCH   8   9
HETATM    9  N           1     -22.353  -5.863  -2.012  0.00  0.00    -0.079 N 
HETATM   10  H           1     -22.027  -5.113  -1.362  0.00  0.00     0.274 HD
HETATM   11  H           1     -23.389  -5.972  -1.928  0.00  0.00     0.274 HD
HETATM   12  H           1     -22.110  -5.601  -2.994  0.00  0.00     0.274 HD
ENDBRANCH   8   9
ENDBRANCH   7   8
ENDBRANCH   6   7
ENDBRANCH   5   6
BRANCH   5  13
HETATM   13  C           1     -20.144  -8.661  -5.547  0.00  0.00     0.196 C 
HETATM   14  O           1     -18.921  -8.916  -5.580  0.00  0.00    -0.646 OA
HETATM   15  O           1     -20.978  -9.576  -5.724  0.00  0.00    -0.646 OA
ENDBRANCH   5  13
ENDBRANCH   3   5
BRANCH   4  16
HETATM   16  C           1     -21.655  -4.926  -8.159  0.00  0.00     0.275 C 
BRANCH  16  17
HETATM   17  N           1     -22.808  -4.049  -7.767  0.00  0.00    -0.066 N 
HETATM   18  H           1     -22.467  -3.071  -7.627  0.00  0.00     0.275 HD
HETATM   19  H           1     -23.528  -4.063  -8.524  0.00  0.00     0.275 HD
HETATM   20  H           1     -23.228  -4.402  -6.879  0.00  0.00     0.275 HD
ENDBRANCH  16  17
BRANCH  16  21
HETATM   21  C           1     -20.650  -4.114  -8.965  0.00  0.00     0.053 C 
BRANCH  21  22
HETATM   22  C           1     -20.790  -4.455 -10.442  0.00  0.00     0.115 C 
BRANCH  22  23
HETATM   23  C           1     -21.843  -3.571 -11.066  0.00  0.00     0.172 C 
HETATM   24  O           1     -21.510  -2.511 -11.639  0.00  0.00    -0.648 OA
HETATM   25  O           1     -23.047  -3.901 -11.011  0.00  0.00    -0.648 OA
ENDBRANCH  22  23
ENDBRANCH  21  22
ENDBRANCH  16  21
ENDBRANCH   4  16
TORSDOF 11
ENDMDL
MODEL 7
REMARK VINA RESULT:      -5.2     11.960     14.230
REMARK  11 active torsions:
REMARK  status: ('A' for Active; 'I' for Inactive)
REMARK    1  A    between atoms: N_4  and  C_9 
REMARK    2  A    between atoms: N_7  and  C_16 
REMARK       I    between atoms: N_7  and  C_8 
REMARK    3  A    between atoms: C_8  and  C_9 
REMARK    4  A    between atoms: C_9  and  C_10 
REMARK    5  A    between atoms: C_10  and  C_11 
REMARK    6  A    between atoms: C_11  and  C_12 
REMARK    7  A    between atoms: C_14  and  C_15 
REMARK    8  A    between atoms: C_14  and  C_16 
REMARK    9  A    between atoms: C_15  and  C_24 
REMARK   10  A    between atoms: C_16  and  C_23 
REMARK   11  A    between atoms: C_24  and  N_25 
ROOT
HETATM    1  H           1     -19.830  -6.296  -4.933  0.00  0.00     0.163 HD
HETATM    2  O           1     -22.680  -5.437  -5.924  0.00  0.00    -0.271 OA
HETATM    3  N           1     -20.839  -6.307  -5.006  0.00  0.00    -0.345 N 
HETATM    4  C           1     -21.475  -5.425  -5.838  0.00  0.00     0.249 C 
ENDROOT
BRANCH   3   5
HETATM    5  C           1     -21.612  -7.256  -4.228  0.00  0.00     0.185 C 
BRANCH   5   6
HETATM    6  C           1     -20.975  -8.635  -4.332  0.00  0.00     0.038 C 
BRANCH   6   7
HETATM    7  C           1     -19.609  -8.515  -4.997  0.00  0.00     0.030 C 
BRANCH   7   8
HETATM    8  C           1     -18.628  -9.460  -4.317  0.00  0.00     0.230 C 
BRANCH   8   9
HETATM    9  N           1     -18.628  -9.202  -2.839  0.00  0.00    -0.079 N 
HETATM   10  H           1     -18.631  -8.172  -2.665  0.00  0.00     0.274 HD
HETATM   11  H           1     -17.773  -9.626  -2.412  0.00  0.00     0.274 HD
HETATM   12  H           1     -19.479  -9.630  -2.410  0.00  0.00     0.274 HD
ENDBRANCH   8   9
ENDBRANCH   7   8
ENDBRANCH   6   7
ENDBRANCH   5   6
BRANCH   5  13
HETATM   13  C           1     -21.635  -6.820  -2.784  0.00  0.00     0.196 C 
HETATM   14  O           1     -22.432  -5.932  -2.410  0.00  0.00    -0.646 OA
HETATM   15  O           1     -20.856  -7.347  -1.959  0.00  0.00    -0.646 OA
ENDBRANCH   5  13
ENDBRANCH   3   5
BRANCH   4  16
HETATM   16  C           1     -20.671  -4.438  -6.647  0.00  0.00     0.275 C 
BRANCH  16  17
HETATM   17  N           1     -19.588  -5.165  -7.390  0.00  0.00    -0.066 N 
HETATM   18  H           1     -18.704  -4.610  -7.347  0.00  0.00     0.275 HD
HETATM   19  H           1     -19.436  -6.102  -6.953  0.00  0.00     0.275 HD
HETATM   20  H           1     -19.873  -5.289  -8.387  0.00  0.00     0.275 HD
ENDBRANCH  16  17
BRANCH  16  21
HETATM   21  C           1     -21.584  -3.734  -7.643  0.00  0.00     0.053 C 
BRANCH  21  22
HETATM   22  C           1     -21.149  -4.076  -9.061  0.00  0.00     0.115 C 
BRANCH  22  23
HETATM   23  C           1     -22.348  -4.042  -9.978  0.00  0.00     0.172 C 
HETATM   24  O           1     -23.294  -4.839  -9.799  0.00  0.00    -0.648 OA
HETATM   25  O           1     -22.395  -3.216 -10.914  0.00  0.00    -0.648 OA
ENDBRANCH  22  23
ENDBRANCH  21  22
ENDBRANCH  16  21
ENDBRANCH   4  16
TORSDOF 11
ENDMDL
MODEL 8
REMARK VINA RESULT:      -5.0     10.987     13.322
REMARK  11 active torsions:
REMARK  status: ('A' for Active; 'I' for Inactive)
REMARK    1  A    between atoms: N_4  and  C_9 
REMARK    2  A    between atoms: N_7  and  C_16 
REMARK       I    between atoms: N_7  and  C_8 
REMARK    3  A    between atoms: C_8  and  C_9 
REMARK    4  A    between atoms: C_9  and  C_10 
REMARK    5  A    between atoms: C_10  and  C_11 
REMARK    6  A    between atoms: C_11  and  C_12 
REMARK    7  A    between atoms: C_14  and  C_15 
REMARK    8  A    between atoms: C_14  and  C_16 
REMARK    9  A    between atoms: C_15  and  C_24 
REMARK   10  A    between atoms: C_16  and  C_23 
REMARK   11  A    between atoms: C_24  and  N_25 
ROOT
HETATM    1  H           1     -22.434  -4.128  -7.576  0.00  0.00     0.163 HD
HETATM    2  O           1     -20.753  -6.747  -7.179  0.00  0.00    -0.271 OA
HETATM    3  N           1     -21.874  -4.930  -7.835  0.00  0.00    -0.345 N 
HETATM    4  C           1     -21.422  -5.790  -6.870  0.00  0.00     0.249 C 
ENDROOT
BRANCH   3   5
HETATM    5  C           1     -21.547  -5.168  -9.228  0.00  0.00     0.185 C 
BRANCH   5   6
HETATM    6  C           1     -22.684  -4.664 -10.108  0.00  0.00     0.038 C 
BRANCH   6   7
HETATM    7  C           1     -23.185  -3.328  -9.575  0.00  0.00     0.030 C 
BRANCH   7   8
HETATM    8  C           1     -24.695  -3.245  -9.749  0.00  0.00     0.230 C 
BRANCH   8   9
HETATM    9  N           1     -25.290  -4.615  -9.617  0.00  0.00    -0.079 N 
HETATM   10  H           1     -24.957  -5.055  -8.730  0.00  0.00     0.274 HD
HETATM   11  H           1     -24.996  -5.202 -10.430  0.00  0.00     0.274 HD
HETATM   12  H           1     -26.333  -4.543  -9.599  0.00  0.00     0.274 HD
ENDBRANCH   8   9
ENDBRANCH   7   8
ENDBRANCH   6   7
ENDBRANCH   5   6
BRANCH   5  13
HETATM   13  C           1     -20.277  -4.434  -9.578  0.00  0.00     0.196 C 
HETATM   14  O           1     -19.779  -4.554 -10.719  0.00  0.00    -0.646 OA
HETATM   15  O           1     -19.721  -3.705  -8.728  0.00  0.00    -0.646 OA
ENDBRANCH   5  13
ENDBRANCH   3   5
BRANCH   4  16
HETATM   16  C           1     -21.762  -5.542  -5.421  0.00  0.00     0.275 C 
BRANCH  16  17
HETATM   17  N           1     -23.154  -6.029  -5.144  0.00  0.00    -0.066 N 
HETATM   18  H           1     -23.389  -6.804  -5.804  0.00  0.00     0.275 HD
HETATM   19  H           1     -23.212  -6.377  -4.161  0.00  0.00     0.275 HD
HETATM   20  H           1     -23.830  -5.243  -5.275  0.00  0.00     0.275 HD
ENDBRANCH  16  17
BRANCH  16  21
HETATM   21  C           1     -20.777  -6.292  -4.533  0.00  0.00     0.053 C 
BRANCH  21  22
HETATM   22  C           1     -21.518  -7.363  -3.744  0.00  0.00     0.115 C 
BRANCH  22  23
HETATM   23  C           1     -21.640  -6.932  -2.303  0.00  0.00     0.172 C 
HETATM   24  O           1     -22.324  -5.929  -2.006  0.00  0.00    -0.648 OA
HETATM   25  O           1     -21.060  -7.581  -1.406  0.00  0.00    -0.648 OA
ENDBRANCH  22  23
ENDBRANCH  21  22
ENDBRANCH  16  21
ENDBRANCH   4  16
TORSDOF 11
ENDMDL
MODEL 9
REMARK VINA RESULT:      -4.8     13.321     15.272
REMARK  11 active torsions:
REMARK  status: ('A' for Active; 'I' for Inactive)
REMARK    1  A    between atoms: N_4  and  C_9 
REMARK    2  A    between atoms: N_7  and  C_16 
REMARK       I    between atoms: N_7  and  C_8 
REMARK    3  A    between atoms: C_8  and  C_9 
REMARK    4  A    between atoms: C_9  and  C_10 
REMARK    5  A    between atoms: C_10  and  C_11 
REMARK    6  A    between atoms: C_11  and  C_12 
REMARK    7  A    between atoms: C_14  and  C_15 
REMARK    8  A    between atoms: C_14  and  C_16 
REMARK    9  A    between atoms: C_15  and  C_24 
REMARK   10  A    between atoms: C_16  and  C_23 
REMARK   11  A    between atoms: C_24  and  N_25 
ROOT
HETATM    1  H           1     -22.002  -7.250  -3.537  0.00  0.00     0.163 HD
HETATM    2  O           1     -19.633  -8.055  -5.429  0.00  0.00    -0.271 OA
HETATM    3  N           1     -21.169  -7.739  -3.839  0.00  0.00    -0.345 N 
HETATM    4  C           1     -20.627  -7.471  -5.067  0.00  0.00     0.249 C 
ENDROOT
BRANCH   3   5
HETATM    5  C           1     -20.552  -8.725  -2.973  0.00  0.00     0.185 C 
BRANCH   5   6
HETATM    6  C           1     -20.427  -8.155  -1.566  0.00  0.00     0.038 C 
BRANCH   6   7
HETATM    7  C           1     -21.755  -7.535  -1.149  0.00  0.00     0.030 C 
BRANCH   7   8
HETATM    8  C           1     -22.030  -7.859   0.313  0.00  0.00     0.230 C 
BRANCH   8   9
HETATM    9  N           1     -23.505  -8.046   0.515  0.00  0.00    -0.079 N 
HETATM   10  H           1     -23.672  -8.551   1.414  0.00  0.00     0.274 HD
HETATM   11  H           1     -23.896  -8.605  -0.277  0.00  0.00     0.274 HD
HETATM   12  H           1     -23.974  -7.113   0.547  0.00  0.00     0.274 HD
ENDBRANCH   8   9
ENDBRANCH   7   8
ENDBRANCH   6   7
ENDBRANCH   5   6
BRANCH   5  13
HETATM   13  C           1     -21.407  -9.968  -2.939  0.00  0.00     0.196 C 
HETATM   14  O           1     -21.252 -10.808  -2.026  0.00  0.00    -0.646 OA
HETATM   15  O           1     -22.270 -10.158  -3.824  0.00  0.00    -0.646 OA
ENDBRANCH   5  13
ENDBRANCH   3   5
BRANCH   4  16
HETATM   16  C           1     -21.269  -6.445  -5.968  0.00  0.00     0.275 C 
BRANCH  16  17
HETATM   17  N           1     -22.541  -5.955  -5.340  0.00  0.00    -0.066 N 
HETATM   18  H           1     -22.676  -4.945  -5.572  0.00  0.00     0.275 HD
HETATM   19  H           1     -23.346  -6.509  -5.707  0.00  0.00     0.275 HD
HETATM   20  H           1     -22.483  -6.068  -4.303  0.00  0.00     0.275 HD
ENDBRANCH  16  17
BRANCH  16  21
HETATM   21  C           1     -20.316  -5.273  -6.164  0.00  0.00     0.053 C 
BRANCH  21  22
HETATM   22  C           1     -21.014  -4.178  -6.960  0.00  0.00     0.115 C 
BRANCH  22  23
HETATM   23  C           1     -21.059  -4.567  -8.418  0.00  0.00     0.172 C 
HETATM   24  O           1     -22.157  -4.804  -8.967  0.00  0.00    -0.648 OA
HETATM   25  O           1     -20.000  -4.649  -9.075  0.00  0.00    -0.648 OA
ENDBRANCH  22  23
ENDBRANCH  21  22
ENDBRANCH  16  21
ENDBRANCH   4  16
TORSDOF 11
ENDMDL
