MODEL 1
REMARK VINA RESULT:      -6.7      0.000      0.000
REMARK  11 active torsions:
REMARK  status: ('A' for Active; 'I' for Inactive)
REMARK    1  A    between atoms: N_1  and  C_23 
REMARK    2  A    between atoms: C_6  and  C_7 
REMARK    3  A    between atoms: C_7  and  C_28 
REMARK    4  A    between atoms: C_10  and  C_19 
REMARK    5  A    between atoms: C_10  and  N_14 
REMARK    6  A    between atoms: C_19  and  C_25 
REMARK    7  A    between atoms: N_21  and  C_28 
REMARK       I    between atoms: N_21  and  C_22 
REMARK    8  A    between atoms: C_22  and  C_23 
REMARK    9  A    between atoms: C_23  and  C_24 
REMARK   10  A    between atoms: C_24  and  C_25 
REMARK   11  A    between atoms: C_26  and  C_28 
ROOT
HETATM    1  O           1     -34.584  -3.402 -13.705  0.00  0.00    -0.271 OA
HETATM    2  H           1     -34.016  -0.668 -13.244  0.00  0.00     0.163 HD
HETATM    3  N           1     -34.695  -1.328 -12.886  0.00  0.00    -0.344 N 
HETATM    4  C           1     -34.372  -2.654 -12.781  0.00  0.00     0.249 C 
ENDROOT
BRANCH   4   5
HETATM    5  C           1     -33.752  -3.180 -11.510  0.00  0.00     0.274 C 
BRANCH   5   6
HETATM    6  N           1     -33.492  -2.039 -10.571  0.00  0.00    -0.067 N 
HETATM    7  H           1     -32.993  -1.275 -11.081  0.00  0.00     0.275 HD
HETATM    8  H           1     -34.402  -1.677 -10.205  0.00  0.00     0.275 HD
HETATM    9  H           1     -32.902  -2.371  -9.776  0.00  0.00     0.275 HD
ENDBRANCH   5   6
BRANCH   5  10
HETATM   10  C           1     -34.704  -4.172 -10.852  0.00  0.00     0.043 C 
BRANCH  10  11
HETATM   11  C           1     -34.174  -5.587 -11.044  0.00  0.00     0.006 C 
BRANCH  11  12
HETATM   12  C           1     -34.544  -6.435  -9.835  0.00  0.00     0.421 C 
BRANCH  12  13
HETATM   13  C           1     -34.782  -7.874 -10.276  0.00  0.00     0.231 C 
BRANCH  13  14
HETATM   14  N           1     -33.475  -8.610 -10.310  0.00  0.00    -0.079 N 
HETATM   15  H           1     -33.086  -8.669  -9.343  0.00  0.00     0.274 HD
HETATM   16  H           1     -32.803  -8.099 -10.925  0.00  0.00     0.274 HD
HETATM   17  H           1     -33.628  -9.573 -10.686  0.00  0.00     0.274 HD
ENDBRANCH  13  14
ENDBRANCH  12  13
ENDBRANCH  11  12
ENDBRANCH  10  11
ENDBRANCH   5  10
ENDBRANCH   4   5
BRANCH   3  18
HETATM   18  C           1     -36.010  -0.868 -12.484  0.00  0.00     0.191 C 
BRANCH  18  19
HETATM   19  C           1     -35.876   0.441 -11.716  0.00  0.00     0.094 C 
BRANCH  19  20
HETATM   20  C           1     -36.465   0.279 -10.348  0.00  0.00     0.034 A 
HETATM   21  C           1     -36.979  -0.895  -9.853  0.00  0.00     0.212 A 
HETATM   22  N           1     -37.402  -0.592  -8.588  0.00  0.00    -0.073 N 
HETATM   23  C           1     -37.133   0.730  -8.372  0.00  0.00     0.277 A 
HETATM   24  H           1     -37.851  -1.254  -7.908  0.00  0.00     0.272 HD
HETATM   25  N           1     -36.566   1.282  -9.420  0.00  0.00    -0.349 N 
ATOM     26  HN          1     -36.265   2.252  -9.522  1.00  0.00     0.166 HD
ENDBRANCH  19  20
ENDBRANCH  18  19
BRANCH  18  27
HETATM   27  C           1     -36.862  -0.646 -13.710  0.00  0.00     0.197 C 
HETATM   28  O           1     -38.073  -0.364 -13.586  0.00  0.00    -0.646 OA
HETATM   29  O           1     -36.356  -0.744 -14.849  0.00  0.00    -0.646 OA
ENDBRANCH  18  27
ENDBRANCH   3  18
TORSDOF 11
ENDMDL
MODEL 2
REMARK VINA RESULT:      -6.5      2.360      6.567
REMARK  11 active torsions:
REMARK  status: ('A' for Active; 'I' for Inactive)
REMARK    1  A    between atoms: N_1  and  C_23 
REMARK    2  A    between atoms: C_6  and  C_7 
REMARK    3  A    between atoms: C_7  and  C_28 
REMARK    4  A    between atoms: C_10  and  C_19 
REMARK    5  A    between atoms: C_10  and  N_14 
REMARK    6  A    between atoms: C_19  and  C_25 
REMARK    7  A    between atoms: N_21  and  C_28 
REMARK       I    between atoms: N_21  and  C_22 
REMARK    8  A    between atoms: C_22  and  C_23 
REMARK    9  A    between atoms: C_23  and  C_24 
REMARK   10  A    between atoms: C_24  and  C_25 
REMARK   11  A    between atoms: C_26  and  C_28 
ROOT
HETATM    1  O           1     -33.912  -1.873  -9.889  0.00  0.00    -0.271 OA
HETATM    2  H           1     -32.616  -2.506 -12.324  0.00  0.00     0.163 HD
HETATM    3  N           1     -33.400  -2.889 -11.810  0.00  0.00    -0.344 N 
HETATM    4  C           1     -34.187  -2.068 -11.049  0.00  0.00     0.249 C 
ENDROOT
BRANCH   4   5
HETATM    5  C           1     -35.397  -1.405 -11.659  0.00  0.00     0.274 C 
BRANCH   5   6
HETATM    6  N           1     -35.808  -0.237 -10.812  0.00  0.00    -0.067 N 
HETATM    7  H           1     -35.807  -0.519  -9.805  0.00  0.00     0.275 HD
HETATM    8  H           1     -35.134   0.549 -10.954  0.00  0.00     0.275 HD
HETATM    9  H           1     -36.767   0.070 -11.086  0.00  0.00     0.275 HD
ENDBRANCH   5   6
BRANCH   5  10
HETATM   10  C           1     -35.057  -0.919 -13.062  0.00  0.00     0.043 C 
BRANCH  10  11
HETATM   11  C           1     -34.945   0.600 -13.060  0.00  0.00     0.006 C 
BRANCH  11  12
HETATM   12  C           1     -34.980   1.114 -14.493  0.00  0.00     0.421 C 
BRANCH  12  13
HETATM   13  C           1     -35.994   0.311 -15.297  0.00  0.00     0.231 C 
BRANCH  13  14
HETATM   14  N           1     -37.050   1.232 -15.832  0.00  0.00    -0.079 N 
HETATM   15  H           1     -37.853   1.264 -15.164  0.00  0.00     0.274 HD
HETATM   16  H           1     -37.382   0.880 -16.759  0.00  0.00     0.274 HD
HETATM   17  H           1     -36.651   2.190 -15.946  0.00  0.00     0.274 HD
ENDBRANCH  13  14
ENDBRANCH  12  13
ENDBRANCH  11  12
ENDBRANCH  10  11
ENDBRANCH   5  10
ENDBRANCH   4   5
BRANCH   3  18
HETATM   18  C           1     -33.689  -4.308 -11.880  0.00  0.00     0.191 C 
BRANCH  18  19
HETATM   19  C           1     -34.562  -4.707 -10.698  0.00  0.00     0.094 C 
BRANCH  19  20
HETATM   20  C           1     -34.367  -6.162 -10.401  0.00  0.00     0.034 A 
HETATM   21  C           1     -35.170  -6.904  -9.568  0.00  0.00     0.212 A 
HETATM   22  N           1     -34.635  -8.163  -9.587  0.00  0.00    -0.073 N 
HETATM   23  C           1     -33.549  -8.133 -10.415  0.00  0.00     0.277 A 
HETATM   24  H           1     -34.993  -8.998  -9.061  0.00  0.00     0.272 HD
HETATM   25  N           1     -33.363  -6.936 -10.921  0.00  0.00    -0.349 N 
ATOM     26  HN          1     -32.627  -6.644 -11.565  1.00  0.00     0.166 HD
ENDBRANCH  19  20
ENDBRANCH  18  19
BRANCH  18  27
HETATM   27  C           1     -34.417  -4.610 -13.168  0.00  0.00     0.197 C 
HETATM   28  O           1     -34.205  -3.911 -14.182  0.00  0.00    -0.646 OA
HETATM   29  O           1     -35.231  -5.556 -13.219  0.00  0.00    -0.646 OA
ENDBRANCH  18  27
ENDBRANCH   3  18
TORSDOF 11
ENDMDL
MODEL 3
REMARK VINA RESULT:      -6.4     10.061     13.069
REMARK  11 active torsions:
REMARK  status: ('A' for Active; 'I' for Inactive)
REMARK    1  A    between atoms: N_1  and  C_23 
REMARK    2  A    between atoms: C_6  and  C_7 
REMARK    3  A    between atoms: C_7  and  C_28 
REMARK    4  A    between atoms: C_10  and  C_19 
REMARK    5  A    between atoms: C_10  and  N_14 
REMARK    6  A    between atoms: C_19  and  C_25 
REMARK    7  A    between atoms: N_21  and  C_28 
REMARK       I    between atoms: N_21  and  C_22 
REMARK    8  A    between atoms: C_22  and  C_23 
REMARK    9  A    between atoms: C_23  and  C_24 
REMARK   10  A    between atoms: C_24  and  C_25 
REMARK   11  A    between atoms: C_26  and  C_28 
ROOT
HETATM    1  O           1     -28.309  -6.545 -15.596  0.00  0.00    -0.271 OA
HETATM    2  H           1     -26.560  -5.025 -17.220  0.00  0.00     0.163 HD
HETATM    3  N           1     -26.763  -6.011 -17.116  0.00  0.00    -0.344 N 
HETATM    4  C           1     -28.021  -6.418 -16.762  0.00  0.00     0.249 C 
ENDROOT
BRANCH   4   5
HETATM    5  C           1     -29.048  -6.706 -17.829  0.00  0.00     0.274 C 
BRANCH   5   6
HETATM    6  N           1     -29.484  -8.138 -17.730  0.00  0.00    -0.067 N 
HETATM    7  H           1     -29.622  -8.391 -16.725  0.00  0.00     0.275 HD
HETATM    8  H           1     -30.383  -8.265 -18.248  0.00  0.00     0.275 HD
HETATM    9  H           1     -28.750  -8.754 -18.146  0.00  0.00     0.275 HD
ENDBRANCH   5   6
BRANCH   5  10
HETATM   10  C           1     -30.254  -5.795 -17.635  0.00  0.00     0.043 C 
BRANCH  10  11
HETATM   11  C           1     -29.878  -4.368 -18.011  0.00  0.00     0.006 C 
BRANCH  11  12
HETATM   12  C           1     -31.017  -3.428 -17.641  0.00  0.00     0.421 C 
BRANCH  12  13
HETATM   13  C           1     -32.177  -4.235 -17.072  0.00  0.00     0.231 C 
BRANCH  13  14
HETATM   14  N           1     -33.436  -3.422 -17.148  0.00  0.00    -0.079 N 
HETATM   15  H           1     -33.791  -3.243 -16.182  0.00  0.00     0.274 HD
HETATM   16  H           1     -34.157  -3.947 -17.692  0.00  0.00     0.274 HD
HETATM   17  H           1     -33.236  -2.513 -17.622  0.00  0.00     0.274 HD
ENDBRANCH  13  14
ENDBRANCH  12  13
ENDBRANCH  11  12
ENDBRANCH  10  11
ENDBRANCH   5  10
ENDBRANCH   4   5
BRANCH   3  18
HETATM   18  C           1     -25.720  -6.994 -17.341  0.00  0.00     0.191 C 
BRANCH  18  19
HETATM   19  C           1     -24.789  -6.501 -18.441  0.00  0.00     0.094 C 
BRANCH  19  20
HETATM   20  C           1     -25.059  -7.262 -19.702  0.00  0.00     0.034 A 
HETATM   21  C           1     -24.089  -7.826 -20.496  0.00  0.00     0.212 A 
HETATM   22  N           1     -24.772  -8.413 -21.527  0.00  0.00    -0.073 N 
HETATM   23  C           1     -26.102  -8.184 -21.319  0.00  0.00     0.277 A 
HETATM   24  H           1     -24.350  -8.941 -22.330  0.00  0.00     0.272 HD
HETATM   25  N           1     -26.305  -7.490 -20.223  0.00  0.00    -0.349 N 
ATOM     26  HN          1     -27.201  -7.185 -19.840  1.00  0.00     0.166 HD
ENDBRANCH  19  20
ENDBRANCH  18  19
BRANCH  18  27
HETATM   27  C           1     -24.934  -7.193 -16.068  0.00  0.00     0.197 C 
HETATM   28  O           1     -24.117  -8.134 -15.981  0.00  0.00    -0.646 OA
HETATM   29  O           1     -25.100  -6.418 -15.102  0.00  0.00    -0.646 OA
ENDBRANCH  18  27
ENDBRANCH   3  18
TORSDOF 11
ENDMDL
MODEL 4
REMARK VINA RESULT:      -6.1      2.171      3.921
REMARK  11 active torsions:
REMARK  status: ('A' for Active; 'I' for Inactive)
REMARK    1  A    between atoms: N_1  and  C_23 
REMARK    2  A    between atoms: C_6  and  C_7 
REMARK    3  A    between atoms: C_7  and  C_28 
REMARK    4  A    between atoms: C_10  and  C_19 
REMARK    5  A    between atoms: C_10  and  N_14 
REMARK    6  A    between atoms: C_19  and  C_25 
REMARK    7  A    between atoms: N_21  and  C_28 
REMARK       I    between atoms: N_21  and  C_22 
REMARK    8  A    between atoms: C_22  and  C_23 
REMARK    9  A    between atoms: C_23  and  C_24 
REMARK   10  A    between atoms: C_24  and  C_25 
REMARK   11  A    between atoms: C_26  and  C_28 
ROOT
HETATM    1  O           1     -35.984  -3.026 -10.905  0.00  0.00    -0.271 OA
HETATM    2  H           1     -35.888  -2.141 -13.591  0.00  0.00     0.163 HD
HETATM    3  N           1     -35.810  -1.692 -12.687  0.00  0.00    -0.344 N 
HETATM    4  C           1     -35.271  -2.373 -11.629  0.00  0.00     0.249 C 
ENDROOT
BRANCH   4   5
HETATM    5  C           1     -33.787  -2.307 -11.368  0.00  0.00     0.274 C 
BRANCH   5   6
HETATM    6  N           1     -33.547  -1.821  -9.969  0.00  0.00    -0.067 N 
HETATM    7  H           1     -33.066  -2.567  -9.418  0.00  0.00     0.275 HD
HETATM    8  H           1     -32.944  -0.967  -9.997  0.00  0.00     0.275 HD
HETATM    9  H           1     -34.461  -1.589  -9.520  0.00  0.00     0.275 HD
ENDBRANCH   5   6
BRANCH   5  10
HETATM   10  C           1     -33.180  -3.695 -11.532  0.00  0.00     0.043 C 
BRANCH  10  11
HETATM   11  C           1     -33.766  -4.634 -10.486  0.00  0.00     0.006 C 
BRANCH  11  12
HETATM   12  C           1     -34.206  -5.929 -11.155  0.00  0.00     0.421 C 
BRANCH  12  13
HETATM   13  C           1     -34.727  -6.896 -10.099  0.00  0.00     0.231 C 
BRANCH  13  14
HETATM   14  N           1     -34.112  -8.248 -10.311  0.00  0.00    -0.079 N 
HETATM   15  H           1     -34.244  -8.536 -11.306  0.00  0.00     0.274 HD
HETATM   16  H           1     -34.574  -8.943  -9.683  0.00  0.00     0.274 HD
HETATM   17  H           1     -33.092  -8.204 -10.091  0.00  0.00     0.274 HD
ENDBRANCH  13  14
ENDBRANCH  12  13
ENDBRANCH  11  12
ENDBRANCH  10  11
ENDBRANCH   5  10
ENDBRANCH   4   5
BRANCH   3  18
HETATM   18  C           1     -36.270  -0.328 -12.513  0.00  0.00     0.191 C 
BRANCH  18  19
HETATM   19  C           1     -37.270   0.014 -13.610  0.00  0.00     0.094 C 
BRANCH  19  20
HETATM   20  C           1     -36.683  -0.326 -14.944  0.00  0.00     0.034 A 
HETATM   21  C           1     -37.416  -0.574 -16.080  0.00  0.00     0.212 A 
HETATM   22  N           1     -36.489  -0.838 -17.051  0.00  0.00    -0.073 N 
HETATM   23  C           1     -35.254  -0.742 -16.475  0.00  0.00     0.277 A 
HETATM   24  H           1     -36.690  -1.073 -18.054  0.00  0.00     0.272 HD
HETATM   25  N           1     -35.341  -0.434 -15.201  0.00  0.00    -0.349 N 
ATOM     26  HN          1     -34.573  -0.302 -14.543  1.00  0.00     0.166 HD
ENDBRANCH  19  20
ENDBRANCH  18  19
BRANCH  18  27
HETATM   27  C           1     -36.935  -0.189 -11.165  0.00  0.00     0.197 C 
HETATM   28  O           1     -38.075  -0.666 -10.980  0.00  0.00    -0.646 OA
HETATM   29  O           1     -36.346   0.402 -10.235  0.00  0.00    -0.646 OA
ENDBRANCH  18  27
ENDBRANCH   3  18
TORSDOF 11
ENDMDL
MODEL 5
REMARK VINA RESULT:      -6.1     13.508     15.520
REMARK  11 active torsions:
REMARK  status: ('A' for Active; 'I' for Inactive)
REMARK    1  A    between atoms: N_1  and  C_23 
REMARK    2  A    between atoms: C_6  and  C_7 
REMARK    3  A    between atoms: C_7  and  C_28 
REMARK    4  A    between atoms: C_10  and  C_19 
REMARK    5  A    between atoms: C_10  and  N_14 
REMARK    6  A    between atoms: C_19  and  C_25 
REMARK    7  A    between atoms: N_21  and  C_28 
REMARK       I    between atoms: N_21  and  C_22 
REMARK    8  A    between atoms: C_22  and  C_23 
REMARK    9  A    between atoms: C_23  and  C_24 
REMARK   10  A    between atoms: C_24  and  C_25 
REMARK   11  A    between atoms: C_26  and  C_28 
ROOT
HETATM    1  O           1     -19.597  -7.366  -6.304  0.00  0.00    -0.271 OA
HETATM    2  H           1     -20.331  -4.659  -5.924  0.00  0.00     0.163 HD
HETATM    3  N           1     -20.652  -5.411  -6.522  0.00  0.00    -0.344 N 
HETATM    4  C           1     -20.586  -6.707  -6.088  0.00  0.00     0.249 C 
ENDROOT
BRANCH   4   5
HETATM    5  C           1     -21.748  -7.313  -5.341  0.00  0.00     0.274 C 
BRANCH   5   6
HETATM    6  N           1     -21.337  -8.635  -4.764  0.00  0.00    -0.067 N 
HETATM    7  H           1     -20.299  -8.655  -4.644  0.00  0.00     0.275 HD
HETATM    8  H           1     -21.798  -8.767  -3.835  0.00  0.00     0.275 HD
HETATM    9  H           1     -21.628  -9.402  -5.411  0.00  0.00     0.275 HD
ENDBRANCH   5   6
BRANCH   5  10
HETATM   10  C           1     -22.172  -6.378  -4.215  0.00  0.00     0.043 C 
BRANCH  10  11
HETATM   11  C           1     -21.472  -6.787  -2.925  0.00  0.00     0.006 C 
BRANCH  11  12
HETATM   12  C           1     -22.226  -6.211  -1.734  0.00  0.00     0.421 C 
BRANCH  12  13
HETATM   13  C           1     -22.344  -7.272  -0.647  0.00  0.00     0.231 C 
BRANCH  13  14
HETATM   14  N           1     -22.028  -8.620  -1.225  0.00  0.00    -0.079 N 
HETATM   15  H           1     -22.784  -9.293  -0.968  0.00  0.00     0.274 HD
HETATM   16  H           1     -21.116  -8.957  -0.844  0.00  0.00     0.274 HD
HETATM   17  H           1     -21.964  -8.545  -2.265  0.00  0.00     0.274 HD
ENDBRANCH  13  14
ENDBRANCH  12  13
ENDBRANCH  11  12
ENDBRANCH  10  11
ENDBRANCH   5  10
ENDBRANCH   4   5
BRANCH   3  18
HETATM   18  C           1     -21.183  -5.112  -7.838  0.00  0.00     0.191 C 
BRANCH  18  19
HETATM   19  C           1     -22.339  -4.129  -7.708  0.00  0.00     0.094 C 
BRANCH  19  20
HETATM   20  C           1     -23.174  -4.173  -8.949  0.00  0.00     0.034 A 
HETATM   21  C           1     -24.274  -3.381  -9.179  0.00  0.00     0.212 A 
HETATM   22  N           1     -24.724  -3.750 -10.417  0.00  0.00    -0.073 N 
HETATM   23  C           1     -23.896  -4.733 -10.878  0.00  0.00     0.277 A 
HETATM   24  H           1     -25.555  -3.351 -10.920  0.00  0.00     0.272 HD
HETATM   25  N           1     -22.950  -5.010 -10.011  0.00  0.00    -0.349 N 
ATOM     26  HN          1     -22.205  -5.700 -10.108  1.00  0.00     0.166 HD
ENDBRANCH  19  20
ENDBRANCH  18  19
BRANCH  18  27
HETATM   27  C           1     -20.097  -4.502  -8.692  0.00  0.00     0.197 C 
HETATM   28  O           1     -19.343  -3.630  -8.212  0.00  0.00    -0.646 OA
HETATM   29  O           1     -19.954  -4.870  -9.877  0.00  0.00    -0.646 OA
ENDBRANCH  18  27
ENDBRANCH   3  18
TORSDOF 11
ENDMDL
MODEL 6
REMARK VINA RESULT:      -6.1     15.050     17.854
REMARK  11 active torsions:
REMARK  status: ('A' for Active; 'I' for Inactive)
REMARK    1  A    between atoms: N_1  and  C_23 
REMARK    2  A    between atoms: C_6  and  C_7 
REMARK    3  A    between atoms: C_7  and  C_28 
REMARK    4  A    between atoms: C_10  and  C_19 
REMARK    5  A    between atoms: C_10  and  N_14 
REMARK    6  A    between atoms: C_19  and  C_25 
REMARK    7  A    between atoms: N_21  and  C_28 
REMARK       I    between atoms: N_21  and  C_22 
REMARK    8  A    between atoms: C_22  and  C_23 
REMARK    9  A    between atoms: C_23  and  C_24 
REMARK   10  A    between atoms: C_24  and  C_25 
REMARK   11  A    between atoms: C_26  and  C_28 
ROOT
HETATM    1  O           1     -22.752  -6.041  -4.831  0.00  0.00    -0.271 OA
HETATM    2  H           1     -21.207  -5.726  -2.481  0.00  0.00     0.163 HD
HETATM    3  N           1     -21.405  -6.495  -3.110  0.00  0.00    -0.344 N 
HETATM    4  C           1     -21.630  -6.253  -4.438  0.00  0.00     0.249 C 
ENDROOT
BRANCH   4   5
HETATM    5  C           1     -20.476  -6.252  -5.410  0.00  0.00     0.274 C 
BRANCH   5   6
HETATM    6  N           1     -20.896  -6.921  -6.685  0.00  0.00    -0.067 N 
HETATM    7  H           1     -21.814  -7.399  -6.542  0.00  0.00     0.275 HD
HETATM    8  H           1     -20.991  -6.204  -7.439  0.00  0.00     0.275 HD
HETATM    9  H           1     -20.176  -7.626  -6.961  0.00  0.00     0.275 HD
ENDBRANCH   5   6
BRANCH   5  10
HETATM   10  C           1     -20.060  -4.816  -5.704  0.00  0.00     0.043 C 
BRANCH  10  11
HETATM   11  C           1     -20.256  -4.524  -7.186  0.00  0.00     0.006 C 
BRANCH  11  12
HETATM   12  C           1     -21.333  -3.461  -7.357  0.00  0.00     0.421 C 
BRANCH  12  13
HETATM   13  C           1     -22.487  -4.033  -8.171  0.00  0.00     0.231 C 
BRANCH  13  14
HETATM   14  N           1     -23.616  -4.395  -7.252  0.00  0.00    -0.079 N 
HETATM   15  H           1     -23.331  -4.213  -6.264  0.00  0.00     0.274 HD
HETATM   16  H           1     -23.849  -5.407  -7.367  0.00  0.00     0.274 HD
HETATM   17  H           1     -24.454  -3.816  -7.486  0.00  0.00     0.274 HD
ENDBRANCH  13  14
ENDBRANCH  12  13
ENDBRANCH  11  12
ENDBRANCH  10  11
ENDBRANCH   5  10
ENDBRANCH   4   5
BRANCH   3  18
HETATM   18  C           1     -21.450  -7.853  -2.602  0.00  0.00     0.191 C 
BRANCH  18  19
HETATM   19  C           1     -20.034  -8.406  -2.509  0.00  0.00     0.094 C 
BRANCH  19  20
HETATM   20  C           1     -19.705  -9.150  -3.765  0.00  0.00     0.034 A 
HETATM   21  C           1     -20.608  -9.879  -4.501  0.00  0.00     0.212 A 
HETATM   22  N           1     -19.888 -10.382  -5.550  0.00  0.00    -0.073 N 
HETATM   23  C           1     -18.601  -9.946  -5.410  0.00  0.00     0.277 A 
HETATM   24  H           1     -20.257 -10.992  -6.321  0.00  0.00     0.272 HD
HETATM   25  N           1     -18.461  -9.199  -4.339  0.00  0.00    -0.349 N 
ATOM     26  HN          1     -17.608  -8.750  -4.005  1.00  0.00     0.166 HD
ENDBRANCH  19  20
ENDBRANCH  18  19
BRANCH  18  27
HETATM   27  C           1     -22.083  -7.857  -1.232  0.00  0.00     0.197 C 
HETATM   28  O           1     -22.675  -6.838  -0.815  0.00  0.00    -0.646 OA
HETATM   29  O           1     -22.015  -8.877  -0.514  0.00  0.00    -0.646 OA
ENDBRANCH  18  27
ENDBRANCH   3  18
TORSDOF 11
ENDMDL
MODEL 7
REMARK VINA RESULT:      -5.9     10.019     12.722
REMARK  11 active torsions:
REMARK  status: ('A' for Active; 'I' for Inactive)
REMARK    1  A    between atoms: N_1  and  C_23 
REMARK    2  A    between atoms: C_6  and  C_7 
REMARK    3  A    between atoms: C_7  and  C_28 
REMARK    4  A    between atoms: C_10  and  C_19 
REMARK    5  A    between atoms: C_10  and  N_14 
REMARK    6  A    between atoms: C_19  and  C_25 
REMARK    7  A    between atoms: N_21  and  C_28 
REMARK       I    between atoms: N_21  and  C_22 
REMARK    8  A    between atoms: C_22  and  C_23 
REMARK    9  A    between atoms: C_23  and  C_24 
REMARK   10  A    between atoms: C_24  and  C_25 
REMARK   11  A    between atoms: C_26  and  C_28 
ROOT
HETATM    1  O           1     -30.169  -8.603 -18.898  0.00  0.00    -0.271 OA
HETATM    2  H           1     -27.414  -8.184 -18.404  0.00  0.00     0.163 HD
HETATM    3  N           1     -28.102  -7.767 -19.019  0.00  0.00    -0.344 N 
HETATM    4  C           1     -29.413  -7.699 -18.632  0.00  0.00     0.249 C 
ENDROOT
BRANCH   4   5
HETATM    5  C           1     -29.914  -6.494 -17.874  0.00  0.00     0.274 C 
BRANCH   5   6
HETATM    6  N           1     -31.388  -6.634 -17.631  0.00  0.00    -0.067 N 
HETATM    7  H           1     -31.912  -6.326 -18.481  0.00  0.00     0.275 HD
HETATM    8  H           1     -31.613  -7.634 -17.427  0.00  0.00     0.275 HD
HETATM    9  H           1     -31.664  -6.040 -16.818  0.00  0.00     0.275 HD
ENDBRANCH   5   6
BRANCH   5  10
HETATM   10  C           1     -29.187  -6.395 -16.539  0.00  0.00     0.043 C 
BRANCH  10  11
HETATM   11  C           1     -28.783  -4.949 -16.286  0.00  0.00     0.006 C 
BRANCH  11  12
HETATM   12  C           1     -28.802  -4.179 -17.600  0.00  0.00     0.421 C 
BRANCH  12  13
HETATM   13  C           1     -29.461  -2.823 -17.385  0.00  0.00     0.231 C 
BRANCH  13  14
HETATM   14  N           1     -30.925  -2.923 -17.696  0.00  0.00    -0.079 N 
HETATM   15  H           1     -31.234  -3.916 -17.598  0.00  0.00     0.274 HD
HETATM   16  H           1     -31.096  -2.601 -18.676  0.00  0.00     0.274 HD
HETATM   17  H           1     -31.464  -2.322 -17.033  0.00  0.00     0.274 HD
ENDBRANCH  13  14
ENDBRANCH  12  13
ENDBRANCH  11  12
ENDBRANCH  10  11
ENDBRANCH   5  10
ENDBRANCH   4   5
BRANCH   3  18
HETATM   18  C           1     -27.698  -7.242 -20.308  0.00  0.00     0.191 C 
BRANCH  18  19
HETATM   19  C           1     -26.572  -6.235 -20.115  0.00  0.00     0.094 C 
BRANCH  19  20
HETATM   20  C           1     -25.695  -6.677 -18.985  0.00  0.00     0.034 A 
HETATM   21  C           1     -24.462  -7.266 -19.137  0.00  0.00     0.212 A 
HETATM   22  N           1     -24.022  -7.502 -17.863  0.00  0.00    -0.073 N 
HETATM   23  C           1     -24.988  -7.056 -17.007  0.00  0.00     0.277 A 
HETATM   24  H           1     -23.109  -7.945 -17.594  0.00  0.00     0.272 HD
HETATM   25  N           1     -26.011  -6.552 -17.658  0.00  0.00    -0.349 N 
ATOM     26  HN          1     -26.862  -6.152 -17.260  1.00  0.00     0.166 HD
ENDBRANCH  19  20
ENDBRANCH  18  19
BRANCH  18  27
HETATM   27  C           1     -27.217  -8.373 -21.184  0.00  0.00     0.197 C 
HETATM   28  O           1     -27.994  -9.305 -21.482  0.00  0.00    -0.646 OA
HETATM   29  O           1     -26.043  -8.377 -21.611  0.00  0.00    -0.646 OA
ENDBRANCH  18  27
ENDBRANCH   3  18
TORSDOF 11
ENDMDL
MODEL 8
REMARK VINA RESULT:      -5.9     14.596     17.069
REMARK  11 active torsions:
REMARK  status: ('A' for Active; 'I' for Inactive)
REMARK    1  A    between atoms: N_1  and  C_23 
REMARK    2  A    between atoms: C_6  and  C_7 
REMARK    3  A    between atoms: C_7  and  C_28 
REMARK    4  A    between atoms: C_10  and  C_19 
REMARK    5  A    between atoms: C_10  and  N_14 
REMARK    6  A    between atoms: C_19  and  C_25 
REMARK    7  A    between atoms: N_21  and  C_28 
REMARK       I    between atoms: N_21  and  C_22 
REMARK    8  A    between atoms: C_22  and  C_23 
REMARK    9  A    between atoms: C_23  and  C_24 
REMARK   10  A    between atoms: C_24  and  C_25 
REMARK   11  A    between atoms: C_26  and  C_28 
ROOT
HETATM    1  O           1     -19.348  -6.517  -7.355  0.00  0.00    -0.271 OA
HETATM    2  H           1     -21.492  -8.129  -6.452  0.00  0.00     0.163 HD
HETATM    3  N           1     -20.764  -7.589  -6.001  0.00  0.00    -0.344 N 
HETATM    4  C           1     -20.286  -6.452  -6.596  0.00  0.00     0.249 C 
ENDROOT
BRANCH   4   5
HETATM    5  C           1     -20.931  -5.120  -6.305  0.00  0.00     0.274 C 
BRANCH   5   6
HETATM    6  N           1     -20.134  -4.397  -5.260  0.00  0.00    -0.067 N 
HETATM    7  H           1     -20.744  -3.699  -4.777  0.00  0.00     0.275 HD
HETATM    8  H           1     -19.771  -5.085  -4.562  0.00  0.00     0.275 HD
HETATM    9  H           1     -19.333  -3.904  -5.714  0.00  0.00     0.275 HD
ENDBRANCH   5   6
BRANCH   5  10
HETATM   10  C           1     -20.973  -4.285  -7.579  0.00  0.00     0.043 C 
BRANCH  10  11
HETATM   11  C           1     -22.116  -4.765  -8.463  0.00  0.00     0.006 C 
BRANCH  11  12
HETATM   12  C           1     -22.128  -3.964  -9.758  0.00  0.00     0.421 C 
BRANCH  12  13
HETATM   13  C           1     -23.555  -3.537 -10.079  0.00  0.00     0.231 C 
BRANCH  13  14
HETATM   14  N           1     -24.367  -3.516  -8.817  0.00  0.00    -0.079 N 
HETATM   15  H           1     -25.226  -4.096  -8.948  0.00  0.00     0.274 HD
HETATM   16  H           1     -24.641  -2.533  -8.595  0.00  0.00     0.274 HD
HETATM   17  H           1     -23.798  -3.905  -8.031  0.00  0.00     0.274 HD
ENDBRANCH  13  14
ENDBRANCH  12  13
ENDBRANCH  11  12
ENDBRANCH  10  11
ENDBRANCH   5  10
ENDBRANCH   4   5
BRANCH   3  18
HETATM   18  C           1     -20.227  -8.019  -4.725  0.00  0.00     0.191 C 
BRANCH  18  19
HETATM   19  C           1     -21.342  -8.633  -3.888  0.00  0.00     0.094 C 
BRANCH  19  20
HETATM   20  C           1     -21.734  -7.679  -2.802  0.00  0.00     0.034 A 
HETATM   21  C           1     -21.946  -6.333  -2.984  0.00  0.00     0.212 A 
HETATM   22  N           1     -22.281  -5.856  -1.747  0.00  0.00    -0.073 N 
HETATM   23  C           1     -22.257  -6.911  -0.880  0.00  0.00     0.277 A 
HETATM   24  H           1     -22.512  -4.860  -1.507  0.00  0.00     0.272 HD
HETATM   25  N           1     -21.929  -8.027  -1.491  0.00  0.00    -0.349 N 
ATOM     26  HN          1     -21.840  -8.955  -1.078  1.00  0.00     0.166 HD
ENDBRANCH  19  20
ENDBRANCH  18  19
BRANCH  18  27
HETATM   27  C           1     -19.147  -9.048  -4.954  0.00  0.00     0.197 C 
HETATM   28  O           1     -19.159  -9.745  -5.991  0.00  0.00    -0.646 OA
HETATM   29  O           1     -18.240  -9.202  -4.108  0.00  0.00    -0.646 OA
ENDBRANCH  18  27
ENDBRANCH   3  18
TORSDOF 11
ENDMDL
MODEL 9
REMARK VINA RESULT:      -5.5      9.243     12.247
REMARK  11 active torsions:
REMARK  status: ('A' for Active; 'I' for Inactive)
REMARK    1  A    between atoms: N_1  and  C_23 
REMARK    2  A    between atoms: C_6  and  C_7 
REMARK    3  A    between atoms: C_7  and  C_28 
REMARK    4  A    between atoms: C_10  and  C_19 
REMARK    5  A    between atoms: C_10  and  N_14 
REMARK    6  A    between atoms: C_19  and  C_25 
REMARK    7  A    between atoms: N_21  and  C_28 
REMARK       I    between atoms: N_21  and  C_22 
REMARK    8  A    between atoms: C_22  and  C_23 
REMARK    9  A    between atoms: C_23  and  C_24 
REMARK   10  A    between atoms: C_24  and  C_25 
REMARK   11  A    between atoms: C_26  and  C_28 
ROOT
HETATM    1  O           1     -28.490  -5.184 -19.145  0.00  0.00    -0.271 OA
HETATM    2  H           1     -29.073  -7.469 -17.581  0.00  0.00     0.163 HD
HETATM    3  N           1     -28.339  -6.772 -17.583  0.00  0.00    -0.344 N 
HETATM    4  C           1     -28.612  -5.491 -17.983  0.00  0.00     0.249 C 
ENDROOT
BRANCH   4   5
HETATM    5  C           1     -29.065  -4.466 -16.974  0.00  0.00     0.274 C 
BRANCH   5   6
HETATM    6  N           1     -29.486  -3.215 -17.688  0.00  0.00    -0.067 N 
HETATM    7  H           1     -29.676  -3.434 -18.692  0.00  0.00     0.275 HD
HETATM    8  H           1     -30.353  -2.837 -17.243  0.00  0.00     0.275 HD
HETATM    9  H           1     -28.723  -2.506 -17.624  0.00  0.00     0.275 HD
ENDBRANCH   5   6
BRANCH   5  10
HETATM   10  C           1     -30.244  -5.019 -16.182  0.00  0.00     0.043 C 
BRANCH  10  11
HETATM   11  C           1     -31.436  -5.209 -17.111  0.00  0.00     0.006 C 
BRANCH  11  12
HETATM   12  C           1     -32.662  -4.536 -16.509  0.00  0.00     0.421 C 
BRANCH  12  13
HETATM   13  C           1     -33.071  -3.352 -17.377  0.00  0.00     0.231 C 
BRANCH  13  14
HETATM   14  N           1     -34.377  -2.800 -16.887  0.00  0.00    -0.079 N 
HETATM   15  H           1     -34.954  -3.574 -16.490  0.00  0.00     0.274 HD
HETATM   16  H           1     -34.888  -2.356 -17.683  0.00  0.00     0.274 HD
HETATM   17  H           1     -34.196  -2.084 -16.147  0.00  0.00     0.274 HD
ENDBRANCH  13  14
ENDBRANCH  12  13
ENDBRANCH  11  12
ENDBRANCH  10  11
ENDBRANCH   5  10
ENDBRANCH   4   5
BRANCH   3  18
HETATM   18  C           1     -26.999  -7.129 -17.160  0.00  0.00     0.191 C 
BRANCH  18  19
HETATM   19  C           1     -25.991  -6.208 -17.836  0.00  0.00     0.094 C 
BRANCH  19  20
HETATM   20  C           1     -25.380  -6.910 -19.008  0.00  0.00     0.034 A 
HETATM   21  C           1     -24.065  -7.302 -19.085  0.00  0.00     0.212 A 
HETATM   22  N           1     -23.943  -7.897 -20.311  0.00  0.00    -0.073 N 
HETATM   23  C           1     -25.166  -7.841 -20.917  0.00  0.00     0.277 A 
HETATM   24  H           1     -23.069  -8.317 -20.713  0.00  0.00     0.272 HD
HETATM   25  N           1     -26.054  -7.250 -20.152  0.00  0.00    -0.349 N 
ATOM     26  HN          1     -27.038  -7.079 -20.364  1.00  0.00     0.166 HD
ENDBRANCH  19  20
ENDBRANCH  18  19
BRANCH  18  27
HETATM   27  C           1     -26.888  -6.981 -15.662  0.00  0.00     0.197 C 
HETATM   28  O           1     -27.744  -7.507 -14.919  0.00  0.00    -0.646 OA
HETATM   29  O           1     -25.942  -6.334 -15.165  0.00  0.00    -0.646 OA
ENDBRANCH  18  27
ENDBRANCH   3  18
TORSDOF 11
ENDMDL
