MODEL 1
REMARK VINA RESULT:      -8.2      0.000      0.000
REMARK  9 active torsions:
REMARK  status: ('A' for Active; 'I' for Inactive)
REMARK    1  A    between atoms: C_1  and  C_13 
REMARK    2  A    between atoms: C_1  and  C_25 
REMARK    3  A    between atoms: C_1  and  N_28 
REMARK    4  A    between atoms: N_7  and  C_29 
REMARK       I    between atoms: N_7  and  C_13 
REMARK    5  A    between atoms: C_14  and  C_29 
REMARK    6  A    between atoms: C_14  and  C_21 
REMARK    7  A    between atoms: C_17  and  C_29 
REMARK    8  A    between atoms: C_18  and  O_19 
REMARK    9  A    between atoms: C_25  and  C_27 
ROOT
HETATM    1  N           1     -20.836  -7.586  -6.095  0.00  0.00    -0.344 N 
HETATM    2  O           1     -19.263  -6.602  -7.338  0.00  0.00    -0.271 OA
HETATM    3  C           1     -20.228  -6.478  -6.622  0.00  0.00     0.249 C 
HETATM    4  H           1     -21.587  -8.040  -6.601  0.00  0.00     0.163 HD
ENDROOT
BRANCH   3   5
HETATM    5  C           1     -20.763  -5.103  -6.307  0.00  0.00     0.278 C 
BRANCH   5   6
HETATM    6  C           1     -20.375  -4.139  -7.422  0.00  0.00     0.081 C 
BRANCH   6   7
HETATM    7  C           1     -21.473  -4.084  -8.439  0.00  0.00    -0.056 A 
HETATM    8  C           1     -22.805  -4.067  -8.027  0.00  0.00     0.010 A 
HETATM    9  C           1     -23.827  -4.016  -8.974  0.00  0.00     0.037 A 
HETATM   10  C           1     -23.517  -3.982 -10.334  0.00  0.00     0.065 A 
HETATM   11  C           1     -22.185  -3.999 -10.746  0.00  0.00     0.037 A 
HETATM   12  C           1     -21.162  -4.050  -9.797  0.00  0.00     0.010 A 
BRANCH  10  13
HETATM   13  O           1     -24.510  -3.931 -11.254  0.00  0.00    -0.361 OA
HETATM   14  H           1     -25.153  -3.262 -10.966  0.00  0.00     0.217 HD
ENDBRANCH  10  13
ENDBRANCH   6   7
ENDBRANCH   5   6
BRANCH   5  15
HETATM   15  N           1     -20.183  -4.625  -5.010  0.00  0.00    -0.066 N 
HETATM   16  H           1     -20.862  -4.805  -4.236  0.00  0.00     0.275 HD
HETATM   17  H           1     -19.989  -3.600  -5.071  0.00  0.00     0.275 HD
HETATM   18  H           1     -19.292  -5.137  -4.818  0.00  0.00     0.275 HD
ENDBRANCH   5  15
ENDBRANCH   3   5
BRANCH   1  19
HETATM   19  C           1     -20.405  -8.108  -4.813  0.00  0.00     0.189 C 
BRANCH  19  20
HETATM   20  C           1     -21.558  -8.855  -4.156  0.00  0.00     0.074 C 
BRANCH  20  21
HETATM   21  C           1     -21.797  -8.300  -2.786  0.00  0.00    -0.056 A 
HETATM   22  C           1     -21.875  -9.159  -1.690  0.00  0.00     0.007 A 
HETATM   23  C           1     -22.099  -8.642  -0.414  0.00  0.00     0.001 A 
HETATM   24  C           1     -22.244  -7.267  -0.234  0.00  0.00     0.000 A 
HETATM   25  C           1     -22.166  -6.408  -1.330  0.00  0.00     0.001 A 
HETATM   26  C           1     -21.943  -6.925  -2.607  0.00  0.00     0.007 A 
ENDBRANCH  20  21
ENDBRANCH  19  20
BRANCH  19  27
HETATM   27  C           1     -19.246  -9.052  -5.019  0.00  0.00     0.197 C 
HETATM   28  O           1     -19.195  -9.765  -6.046  0.00  0.00    -0.646 OA
HETATM   29  O           1     -18.337  -9.122  -4.164  0.00  0.00    -0.646 OA
ENDBRANCH  19  27
ENDBRANCH   1  19
TORSDOF 9
ENDMDL
MODEL 2
REMARK VINA RESULT:      -8.0      1.037      1.640
REMARK  9 active torsions:
REMARK  status: ('A' for Active; 'I' for Inactive)
REMARK    1  A    between atoms: C_1  and  C_13 
REMARK    2  A    between atoms: C_1  and  C_25 
REMARK    3  A    between atoms: C_1  and  N_28 
REMARK    4  A    between atoms: N_7  and  C_29 
REMARK       I    between atoms: N_7  and  C_13 
REMARK    5  A    between atoms: C_14  and  C_29 
REMARK    6  A    between atoms: C_14  and  C_21 
REMARK    7  A    between atoms: C_17  and  C_29 
REMARK    8  A    between atoms: C_18  and  O_19 
REMARK    9  A    between atoms: C_25  and  C_27 
ROOT
HETATM    1  N           1     -20.719  -8.133  -5.738  0.00  0.00    -0.344 N 
HETATM    2  O           1     -19.342  -6.731  -6.799  0.00  0.00    -0.271 OA
HETATM    3  C           1     -20.435  -6.929  -6.324  0.00  0.00     0.249 C 
HETATM    4  H           1     -21.103  -8.888  -6.292  0.00  0.00     0.163 HD
ENDROOT
BRANCH   3   5
HETATM    5  C           1     -21.487  -5.848  -6.375  0.00  0.00     0.278 C 
BRANCH   5   6
HETATM    6  C           1     -20.878  -4.573  -6.943  0.00  0.00     0.081 C 
BRANCH   6   7
HETATM    7  C           1     -21.209  -4.467  -8.400  0.00  0.00    -0.056 A 
HETATM    8  C           1     -22.539  -4.384  -8.808  0.00  0.00     0.010 A 
HETATM    9  C           1     -22.847  -4.285 -10.165  0.00  0.00     0.037 A 
HETATM   10  C           1     -21.824  -4.271 -11.113  0.00  0.00     0.065 A 
HETATM   11  C           1     -20.493  -4.354 -10.704  0.00  0.00     0.037 A 
HETATM   12  C           1     -20.186  -4.452  -9.347  0.00  0.00     0.010 A 
BRANCH  10  13
HETATM   13  O           1     -22.123  -4.175 -12.431  0.00  0.00    -0.361 OA
HETATM   14  H           1     -22.245  -3.234 -12.644  0.00  0.00     0.217 HD
ENDBRANCH  10  13
ENDBRANCH   6   7
ENDBRANCH   5   6
BRANCH   5  15
HETATM   15  N           1     -22.000  -5.584  -4.991  0.00  0.00    -0.066 N 
HETATM   16  H           1     -21.329  -5.971  -4.290  0.00  0.00     0.275 HD
HETATM   17  H           1     -22.931  -6.043  -4.871  0.00  0.00     0.275 HD
HETATM   18  H           1     -22.098  -4.554  -4.847  0.00  0.00     0.275 HD
ENDBRANCH   5  15
ENDBRANCH   3   5
BRANCH   1  19
HETATM   19  C           1     -20.469  -8.327  -4.323  0.00  0.00     0.189 C 
BRANCH  19  20
HETATM   20  C           1     -21.555  -9.215  -3.732  0.00  0.00     0.074 C 
BRANCH  20  21
HETATM   21  C           1     -21.883  -8.750  -2.347  0.00  0.00    -0.056 A 
HETATM   22  C           1     -21.875  -7.388  -2.048  0.00  0.00     0.007 A 
HETATM   23  C           1     -22.180  -6.956  -0.758  0.00  0.00     0.001 A 
HETATM   24  C           1     -22.492  -7.885   0.234  0.00  0.00     0.000 A 
HETATM   25  C           1     -22.499  -9.247  -0.065  0.00  0.00     0.001 A 
HETATM   26  C           1     -22.194  -9.680  -1.356  0.00  0.00     0.007 A 
ENDBRANCH  20  21
ENDBRANCH  19  20
BRANCH  19  27
HETATM   27  C           1     -19.124  -8.985  -4.136  0.00  0.00     0.197 C 
HETATM   28  O           1     -18.568  -8.965  -3.015  0.00  0.00    -0.646 OA
HETATM   29  O           1     -18.565  -9.550  -5.100  0.00  0.00    -0.646 OA
ENDBRANCH  19  27
ENDBRANCH   1  19
TORSDOF 9
ENDMDL
MODEL 3
REMARK VINA RESULT:      -7.6      2.224      8.073
REMARK  9 active torsions:
REMARK  status: ('A' for Active; 'I' for Inactive)
REMARK    1  A    between atoms: C_1  and  C_13 
REMARK    2  A    between atoms: C_1  and  C_25 
REMARK    3  A    between atoms: C_1  and  N_28 
REMARK    4  A    between atoms: N_7  and  C_29 
REMARK       I    between atoms: N_7  and  C_13 
REMARK    5  A    between atoms: C_14  and  C_29 
REMARK    6  A    between atoms: C_14  and  C_21 
REMARK    7  A    between atoms: C_17  and  C_29 
REMARK    8  A    between atoms: C_18  and  O_19 
REMARK    9  A    between atoms: C_25  and  C_27 
ROOT
HETATM    1  N           1     -22.277  -5.847  -5.636  0.00  0.00    -0.344 N 
HETATM    2  O           1     -21.074  -5.862  -3.754  0.00  0.00    -0.271 OA
HETATM    3  C           1     -21.667  -6.495  -4.595  0.00  0.00     0.249 C 
HETATM    4  H           1     -23.239  -5.544  -5.550  0.00  0.00     0.163 HD
ENDROOT
BRANCH   3   5
HETATM    5  C           1     -21.735  -8.000  -4.500  0.00  0.00     0.278 C 
BRANCH   5   6
HETATM    6  C           1     -20.889  -8.473  -3.325  0.00  0.00     0.081 C 
BRANCH   6   7
HETATM    7  C           1     -21.750  -9.230  -2.362  0.00  0.00    -0.056 A 
HETATM    8  C           1     -22.288 -10.463  -2.728  0.00  0.00     0.010 A 
HETATM    9  C           1     -23.091 -11.168  -1.831  0.00  0.00     0.037 A 
HETATM   10  C           1     -23.356 -10.639  -0.568  0.00  0.00     0.065 A 
HETATM   11  C           1     -22.819  -9.404  -0.202  0.00  0.00     0.037 A 
HETATM   12  C           1     -22.015  -8.700  -1.100  0.00  0.00     0.010 A 
BRANCH  10  13
HETATM   13  O           1     -24.135 -11.324   0.303  0.00  0.00    -0.361 OA
HETATM   14  H           1     -23.607 -12.052   0.670  0.00  0.00     0.217 HD
ENDBRANCH  10  13
ENDBRANCH   6   7
ENDBRANCH   5   6
BRANCH   5  15
HETATM   15  N           1     -21.211  -8.605  -5.768  0.00  0.00    -0.066 N 
HETATM   16  H           1     -21.500  -8.016  -6.581  0.00  0.00     0.275 HD
HETATM   17  H           1     -21.601  -9.568  -5.881  0.00  0.00     0.275 HD
HETATM   18  H           1     -20.168  -8.653  -5.726  0.00  0.00     0.275 HD
ENDBRANCH   5  15
ENDBRANCH   3   5
BRANCH   1  19
HETATM   19  C           1     -21.544  -5.596  -6.862  0.00  0.00     0.189 C 
BRANCH  19  20
HETATM   20  C           1     -21.941  -4.236  -7.420  0.00  0.00     0.074 C 
BRANCH  20  21
HETATM   21  C           1     -21.884  -4.273  -8.916  0.00  0.00    -0.056 A 
HETATM   22  C           1     -20.669  -4.078  -9.572  0.00  0.00     0.007 A 
HETATM   23  C           1     -20.616  -4.111 -10.965  0.00  0.00     0.001 A 
HETATM   24  C           1     -21.778  -4.340 -11.702  0.00  0.00     0.000 A 
HETATM   25  C           1     -22.993  -4.534 -11.045  0.00  0.00     0.001 A 
HETATM   26  C           1     -23.046  -4.501  -9.651  0.00  0.00     0.007 A 
ENDBRANCH  20  21
ENDBRANCH  19  20
BRANCH  19  27
HETATM   27  C           1     -20.063  -5.610  -6.574  0.00  0.00     0.197 C 
HETATM   28  O           1     -19.389  -6.635  -6.817  0.00  0.00    -0.646 OA
HETATM   29  O           1     -19.510  -4.598  -6.093  0.00  0.00    -0.646 OA
ENDBRANCH  19  27
ENDBRANCH   1  19
TORSDOF 9
ENDMDL
MODEL 4
REMARK VINA RESULT:      -7.6      1.721      2.271
REMARK  9 active torsions:
REMARK  status: ('A' for Active; 'I' for Inactive)
REMARK    1  A    between atoms: C_1  and  C_13 
REMARK    2  A    between atoms: C_1  and  C_25 
REMARK    3  A    between atoms: C_1  and  N_28 
REMARK    4  A    between atoms: N_7  and  C_29 
REMARK       I    between atoms: N_7  and  C_13 
REMARK    5  A    between atoms: C_14  and  C_29 
REMARK    6  A    between atoms: C_14  and  C_21 
REMARK    7  A    between atoms: C_17  and  C_29 
REMARK    8  A    between atoms: C_18  and  O_19 
REMARK    9  A    between atoms: C_25  and  C_27 
ROOT
HETATM    1  N           1     -21.364  -7.671  -6.086  0.00  0.00    -0.344 N 
HETATM    2  O           1     -19.186  -7.260  -6.357  0.00  0.00    -0.271 OA
HETATM    3  C           1     -20.317  -6.837  -6.372  0.00  0.00     0.249 C 
HETATM    4  H           1     -21.818  -8.188  -6.828  0.00  0.00     0.163 HD
ENDROOT
BRANCH   3   5
HETATM    5  C           1     -20.578  -5.388  -6.707  0.00  0.00     0.278 C 
BRANCH   5   6
HETATM    6  C           1     -20.234  -5.136  -8.170  0.00  0.00     0.081 C 
BRANCH   6   7
HETATM    7  C           1     -21.445  -4.619  -8.885  0.00  0.00    -0.056 A 
HETATM    8  C           1     -22.627  -4.395  -8.181  0.00  0.00     0.010 A 
HETATM    9  C           1     -23.755  -3.914  -8.847  0.00  0.00     0.037 A 
HETATM   10  C           1     -23.698  -3.656 -10.217  0.00  0.00     0.065 A 
HETATM   11  C           1     -22.515  -3.880 -10.921  0.00  0.00     0.037 A 
HETATM   12  C           1     -21.388  -4.362 -10.254  0.00  0.00     0.010 A 
BRANCH  10  13
HETATM   13  O           1     -24.793  -3.188 -10.864  0.00  0.00    -0.361 OA
HETATM   14  H           1     -25.026  -2.328 -10.476  0.00  0.00     0.217 HD
ENDBRANCH  10  13
ENDBRANCH   6   7
ENDBRANCH   5   6
BRANCH   5  15
HETATM   15  N           1     -19.726  -4.514  -5.837  0.00  0.00    -0.066 N 
HETATM   16  H           1     -18.740  -4.858  -5.853  0.00  0.00     0.275 HD
HETATM   17  H           1     -20.088  -4.541  -4.857  0.00  0.00     0.275 HD
HETATM   18  H           1     -19.758  -3.531  -6.192  0.00  0.00     0.275 HD
ENDBRANCH   5  15
ENDBRANCH   3   5
BRANCH   1  19
HETATM   19  C           1     -21.823  -7.814  -4.717  0.00  0.00     0.189 C 
BRANCH  19  20
HETATM   20  C           1     -20.635  -8.102  -3.811  0.00  0.00     0.074 C 
BRANCH  20  21
HETATM   21  C           1     -21.108  -8.791  -2.569  0.00  0.00    -0.056 A 
HETATM   22  C           1     -21.937  -9.909  -2.664  0.00  0.00     0.007 A 
HETATM   23  C           1     -22.379 -10.550  -1.507  0.00  0.00     0.001 A 
HETATM   24  C           1     -21.992 -10.073  -0.254  0.00  0.00     0.000 A 
HETATM   25  C           1     -21.165  -8.954  -0.159  0.00  0.00     0.001 A 
HETATM   26  C           1     -20.723  -8.313  -1.317  0.00  0.00     0.007 A 
ENDBRANCH  20  21
ENDBRANCH  19  20
BRANCH  19  27
HETATM   27  C           1     -22.494  -6.537  -4.277  0.00  0.00     0.197 C 
HETATM   28  O           1     -22.085  -5.934  -3.260  0.00  0.00    -0.646 OA
HETATM   29  O           1     -23.459  -6.081  -4.927  0.00  0.00    -0.646 OA
ENDBRANCH  19  27
ENDBRANCH   1  19
TORSDOF 9
ENDMDL
MODEL 5
REMARK VINA RESULT:      -7.5      2.164      2.952
REMARK  9 active torsions:
REMARK  status: ('A' for Active; 'I' for Inactive)
REMARK    1  A    between atoms: C_1  and  C_13 
REMARK    2  A    between atoms: C_1  and  C_25 
REMARK    3  A    between atoms: C_1  and  N_28 
REMARK    4  A    between atoms: N_7  and  C_29 
REMARK       I    between atoms: N_7  and  C_13 
REMARK    5  A    between atoms: C_14  and  C_29 
REMARK    6  A    between atoms: C_14  and  C_21 
REMARK    7  A    between atoms: C_17  and  C_29 
REMARK    8  A    between atoms: C_18  and  O_19 
REMARK    9  A    between atoms: C_25  and  C_27 
ROOT
HETATM    1  N           1     -20.057  -6.845  -4.738  0.00  0.00    -0.344 N 
HETATM    2  O           1     -20.128  -4.616  -4.856  0.00  0.00    -0.271 OA
HETATM    3  C           1     -20.269  -5.676  -5.419  0.00  0.00     0.249 C 
HETATM    4  H           1     -19.135  -7.263  -4.725  0.00  0.00     0.163 HD
ENDROOT
BRANCH   3   5
HETATM    5  C           1     -20.678  -5.712  -6.871  0.00  0.00     0.278 C 
BRANCH   5   6
HETATM    6  C           1     -21.481  -4.461  -7.204  0.00  0.00     0.081 C 
BRANCH   6   7
HETATM    7  C           1     -21.538  -4.285  -8.690  0.00  0.00    -0.056 A 
HETATM    8  C           1     -20.374  -4.390  -9.450  0.00  0.00     0.010 A 
HETATM    9  C           1     -20.428  -4.226 -10.834  0.00  0.00     0.037 A 
HETATM   10  C           1     -21.646  -3.956 -11.457  0.00  0.00     0.065 A 
HETATM   11  C           1     -22.811  -3.851 -10.697  0.00  0.00     0.037 A 
HETATM   12  C           1     -22.756  -4.015  -9.312  0.00  0.00     0.010 A 
BRANCH  10  13
HETATM   13  O           1     -21.699  -3.797 -12.802  0.00  0.00    -0.361 OA
HETATM   14  H           1     -21.773  -2.847 -12.990  0.00  0.00     0.217 HD
ENDBRANCH  10  13
ENDBRANCH   6   7
ENDBRANCH   5   6
BRANCH   5  15
HETATM   15  N           1     -21.520  -6.927  -7.122  0.00  0.00    -0.066 N 
HETATM   16  H           1     -21.575  -7.500  -6.250  0.00  0.00     0.275 HD
HETATM   17  H           1     -21.091  -7.496  -7.886  0.00  0.00     0.275 HD
HETATM   18  H           1     -22.482  -6.632  -7.406  0.00  0.00     0.275 HD
ENDBRANCH   5  15
ENDBRANCH   3   5
BRANCH   1  19
HETATM   19  C           1     -21.154  -7.484  -4.037  0.00  0.00     0.189 C 
BRANCH  19  20
HETATM   20  C           1     -20.632  -8.130  -2.762  0.00  0.00     0.074 C 
BRANCH  20  21
HETATM   21  C           1     -21.609  -9.162  -2.288  0.00  0.00    -0.056 A 
HETATM   22  C           1     -22.134  -9.085  -0.998  0.00  0.00     0.007 A 
HETATM   23  C           1     -23.043 -10.047  -0.557  0.00  0.00     0.001 A 
HETATM   24  C           1     -23.428 -11.085  -1.406  0.00  0.00     0.000 A 
HETATM   25  C           1     -22.902 -11.161  -2.696  0.00  0.00     0.001 A 
HETATM   26  C           1     -21.993 -10.200  -3.137  0.00  0.00     0.007 A 
ENDBRANCH  20  21
ENDBRANCH  19  20
BRANCH  19  27
HETATM   27  C           1     -22.197  -6.451  -3.689  0.00  0.00     0.197 C 
HETATM   28  O           1     -23.118  -6.196  -4.496  0.00  0.00    -0.646 OA
HETATM   29  O           1     -22.141  -5.851  -2.595  0.00  0.00    -0.646 OA
ENDBRANCH  19  27
ENDBRANCH   1  19
TORSDOF 9
ENDMDL
MODEL 6
REMARK VINA RESULT:      -7.4      2.059      7.978
REMARK  9 active torsions:
REMARK  status: ('A' for Active; 'I' for Inactive)
REMARK    1  A    between atoms: C_1  and  C_13 
REMARK    2  A    between atoms: C_1  and  C_25 
REMARK    3  A    between atoms: C_1  and  N_28 
REMARK    4  A    between atoms: N_7  and  C_29 
REMARK       I    between atoms: N_7  and  C_13 
REMARK    5  A    between atoms: C_14  and  C_29 
REMARK    6  A    between atoms: C_14  and  C_21 
REMARK    7  A    between atoms: C_17  and  C_29 
REMARK    8  A    between atoms: C_18  and  O_19 
REMARK    9  A    between atoms: C_25  and  C_27 
ROOT
HETATM    1  N           1     -22.097  -5.484  -5.923  0.00  0.00    -0.344 N 
HETATM    2  O           1     -20.603  -5.495  -4.263  0.00  0.00    -0.271 OA
HETATM    3  C           1     -21.378  -6.120  -4.946  0.00  0.00     0.249 C 
HETATM    4  H           1     -23.002  -5.086  -5.708  0.00  0.00     0.163 HD
ENDROOT
BRANCH   3   5
HETATM    5  C           1     -21.556  -7.602  -4.724  0.00  0.00     0.278 C 
BRANCH   5   6
HETATM    6  C           1     -20.647  -8.058  -3.588  0.00  0.00     0.081 C 
BRANCH   6   7
HETATM    7  C           1     -21.430  -8.110  -2.313  0.00  0.00    -0.056 A 
HETATM    8  C           1     -21.756  -6.930  -1.646  0.00  0.00     0.010 A 
HETATM    9  C           1     -22.485  -6.979  -0.457  0.00  0.00     0.037 A 
HETATM   10  C           1     -22.887  -8.209   0.064  0.00  0.00     0.065 A 
HETATM   11  C           1     -22.561  -9.389  -0.604  0.00  0.00     0.037 A 
HETATM   12  C           1     -21.832  -9.339  -1.793  0.00  0.00     0.010 A 
BRANCH  10  13
HETATM   13  O           1     -23.596  -8.256   1.217  0.00  0.00    -0.361 OA
HETATM   14  H           1     -22.966  -8.298   1.956  0.00  0.00     0.217 HD
ENDBRANCH  10  13
ENDBRANCH   6   7
ENDBRANCH   5   6
BRANCH   5  15
HETATM   15  N           1     -21.197  -8.342  -5.978  0.00  0.00    -0.066 N 
HETATM   16  H           1     -20.217  -8.696  -5.906  0.00  0.00     0.275 HD
HETATM   17  H           1     -21.275  -7.697  -6.796  0.00  0.00     0.275 HD
HETATM   18  H           1     -21.851  -9.148  -6.105  0.00  0.00     0.275 HD
ENDBRANCH   5  15
ENDBRANCH   3   5
BRANCH   1  19
HETATM   19  C           1     -21.560  -5.382  -7.266  0.00  0.00     0.189 C 
BRANCH  19  20
HETATM   20  C           1     -21.996  -4.063  -7.888  0.00  0.00     0.074 C 
BRANCH  20  21
HETATM   21  C           1     -22.180  -4.242  -9.363  0.00  0.00    -0.056 A 
HETATM   22  C           1     -21.150  -3.900 -10.240  0.00  0.00     0.007 A 
HETATM   23  C           1     -21.322  -4.066 -11.614  0.00  0.00     0.001 A 
HETATM   24  C           1     -22.522  -4.574 -12.112  0.00  0.00     0.000 A 
HETATM   25  C           1     -23.551  -4.914 -11.234  0.00  0.00     0.001 A 
HETATM   26  C           1     -23.381  -4.748  -9.860  0.00  0.00     0.007 A 
ENDBRANCH  20  21
ENDBRANCH  19  20
BRANCH  19  27
HETATM   27  C           1     -20.053  -5.439  -7.211  0.00  0.00     0.197 C 
HETATM   28  O           1     -19.393  -4.386  -7.065  0.00  0.00    -0.646 OA
HETATM   29  O           1     -19.464  -6.536  -7.311  0.00  0.00    -0.646 OA
ENDBRANCH  19  27
ENDBRANCH   1  19
TORSDOF 9
ENDMDL
MODEL 7
REMARK VINA RESULT:      -7.3      2.335      3.971
REMARK  9 active torsions:
REMARK  status: ('A' for Active; 'I' for Inactive)
REMARK    1  A    between atoms: C_1  and  C_13 
REMARK    2  A    between atoms: C_1  and  C_25 
REMARK    3  A    between atoms: C_1  and  N_28 
REMARK    4  A    between atoms: N_7  and  C_29 
REMARK       I    between atoms: N_7  and  C_13 
REMARK    5  A    between atoms: C_14  and  C_29 
REMARK    6  A    between atoms: C_14  and  C_21 
REMARK    7  A    between atoms: C_17  and  C_29 
REMARK    8  A    between atoms: C_18  and  O_19 
REMARK    9  A    between atoms: C_25  and  C_27 
ROOT
HETATM    1  N           1     -21.395  -6.425  -3.056  0.00  0.00    -0.344 N 
HETATM    2  O           1     -22.798  -6.084  -4.759  0.00  0.00    -0.271 OA
HETATM    3  C           1     -21.660  -6.239  -4.386  0.00  0.00     0.249 C 
HETATM    4  H           1     -21.214  -5.628  -2.459  0.00  0.00     0.163 HD
ENDROOT
BRANCH   3   5
HETATM    5  C           1     -20.529  -6.228  -5.385  0.00  0.00     0.278 C 
BRANCH   5   6
HETATM    6  C           1     -20.195  -4.789  -5.758  0.00  0.00     0.081 C 
BRANCH   6   7
HETATM    7  C           1     -20.671  -4.511  -7.151  0.00  0.00    -0.056 A 
HETATM    8  C           1     -19.805  -4.681  -8.230  0.00  0.00     0.010 A 
HETATM    9  C           1     -20.247  -4.422  -9.527  0.00  0.00     0.037 A 
HETATM   10  C           1     -21.556  -3.992  -9.744  0.00  0.00     0.065 A 
HETATM   11  C           1     -22.423  -3.821  -8.664  0.00  0.00     0.037 A 
HETATM   12  C           1     -21.979  -4.081  -7.367  0.00  0.00     0.010 A 
BRANCH  10  13
HETATM   13  O           1     -21.987  -3.741 -11.004  0.00  0.00    -0.361 OA
HETATM   14  H           1     -21.315  -4.072 -11.623  0.00  0.00     0.217 HD
ENDBRANCH  10  13
ENDBRANCH   6   7
ENDBRANCH   5   6
BRANCH   5  15
HETATM   15  N           1     -20.942  -6.979  -6.615  0.00  0.00    -0.066 N 
HETATM   16  H           1     -21.746  -6.490  -7.070  0.00  0.00     0.275 HD
HETATM   17  H           1     -21.229  -7.949  -6.351  0.00  0.00     0.275 HD
HETATM   18  H           1     -20.139  -7.024  -7.282  0.00  0.00     0.275 HD
ENDBRANCH   5  15
ENDBRANCH   3   5
BRANCH   1  19
HETATM   19  C           1     -21.375  -7.765  -2.501  0.00  0.00     0.189 C 
BRANCH  19  20
HETATM   20  C           1     -19.934  -8.239  -2.373  0.00  0.00     0.074 C 
BRANCH  20  21
HETATM   21  C           1     -19.602  -9.145  -3.519  0.00  0.00    -0.056 A 
HETATM   22  C           1     -18.273  -9.330  -3.899  0.00  0.00     0.007 A 
HETATM   23  C           1     -17.964 -10.173  -4.966  0.00  0.00     0.001 A 
HETATM   24  C           1     -18.984 -10.830  -5.654  0.00  0.00     0.000 A 
HETATM   25  C           1     -20.313 -10.644  -5.274  0.00  0.00     0.001 A 
HETATM   26  C           1     -20.623  -9.801  -4.207  0.00  0.00     0.007 A 
ENDBRANCH  20  21
ENDBRANCH  19  20
BRANCH  19  27
HETATM   27  C           1     -22.025  -7.755  -1.140  0.00  0.00     0.197 C 
HETATM   28  O           1     -21.840  -8.709  -0.352  0.00  0.00    -0.646 OA
HETATM   29  O           1     -22.748  -6.795  -0.799  0.00  0.00    -0.646 OA
ENDBRANCH  19  27
ENDBRANCH   1  19
TORSDOF 9
ENDMDL
MODEL 8
REMARK VINA RESULT:      -7.3      4.434      7.417
REMARK  9 active torsions:
REMARK  status: ('A' for Active; 'I' for Inactive)
REMARK    1  A    between atoms: C_1  and  C_13 
REMARK    2  A    between atoms: C_1  and  C_25 
REMARK    3  A    between atoms: C_1  and  N_28 
REMARK    4  A    between atoms: N_7  and  C_29 
REMARK       I    between atoms: N_7  and  C_13 
REMARK    5  A    between atoms: C_14  and  C_29 
REMARK    6  A    between atoms: C_14  and  C_21 
REMARK    7  A    between atoms: C_17  and  C_29 
REMARK    8  A    between atoms: C_18  and  O_19 
REMARK    9  A    between atoms: C_25  and  C_27 
ROOT
HETATM    1  N           1     -20.744  -7.778  -3.116  0.00  0.00    -0.344 N 
HETATM    2  O           1     -21.605  -7.875  -5.174  0.00  0.00    -0.271 OA
HETATM    3  C           1     -20.905  -8.385  -4.332  0.00  0.00     0.249 C 
HETATM    4  H           1     -19.992  -7.115  -2.977  0.00  0.00     0.163 HD
ENDROOT
BRANCH   3   5
HETATM    5  C           1     -20.207  -9.692  -4.621  0.00  0.00     0.278 C 
BRANCH   5   6
HETATM    6  C           1     -18.721  -9.437  -4.836  0.00  0.00     0.081 C 
BRANCH   6   7
HETATM    7  C           1     -17.943 -10.029  -3.701  0.00  0.00    -0.056 A 
HETATM    8  C           1     -18.561 -10.915  -2.820  0.00  0.00     0.010 A 
HETATM    9  C           1     -17.838 -11.466  -1.762  0.00  0.00     0.037 A 
HETATM   10  C           1     -16.496 -11.129  -1.586  0.00  0.00     0.065 A 
HETATM   11  C           1     -15.877 -10.242  -2.467  0.00  0.00     0.037 A 
HETATM   12  C           1     -16.602  -9.692  -3.525  0.00  0.00     0.010 A 
BRANCH  10  13
HETATM   13  O           1     -15.792 -11.664  -0.559  0.00  0.00    -0.361 OA
HETATM   14  H           1     -16.425 -12.010   0.091  0.00  0.00     0.217 HD
ENDBRANCH  10  13
ENDBRANCH   6   7
ENDBRANCH   5   6
BRANCH   5  15
HETATM   15  N           1     -20.792 -10.309  -5.856  0.00  0.00    -0.066 N 
HETATM   16  H           1     -20.152 -10.143  -6.665  0.00  0.00     0.275 HD
HETATM   17  H           1     -21.722  -9.875  -6.055  0.00  0.00     0.275 HD
HETATM   18  H           1     -20.911 -11.336  -5.710  0.00  0.00     0.275 HD
ENDBRANCH   5  15
ENDBRANCH   3   5
BRANCH   1  19
HETATM   19  C           1     -21.651  -8.085  -2.027  0.00  0.00     0.189 C 
BRANCH  19  20
HETATM   20  C           1     -20.881  -8.756  -0.899  0.00  0.00     0.074 C 
BRANCH  20  21
HETATM   21  C           1     -21.622  -9.974  -0.442  0.00  0.00    -0.056 A 
HETATM   22  C           1     -20.964 -10.952   0.304  0.00  0.00     0.007 A 
HETATM   23  C           1     -21.654 -12.087   0.728  0.00  0.00     0.001 A 
HETATM   24  C           1     -23.002 -12.245   0.406  0.00  0.00     0.000 A 
HETATM   25  C           1     -23.659 -11.268  -0.341  0.00  0.00     0.001 A 
HETATM   26  C           1     -22.969 -10.132  -0.765  0.00  0.00     0.007 A 
ENDBRANCH  20  21
ENDBRANCH  19  20
BRANCH  19  27
HETATM   27  C           1     -22.278  -6.809  -1.521  0.00  0.00     0.197 C 
HETATM   28  O           1     -22.368  -5.815  -2.274  0.00  0.00    -0.646 OA
HETATM   29  O           1     -22.707  -6.746  -0.349  0.00  0.00    -0.646 OA
ENDBRANCH  19  27
ENDBRANCH   1  19
TORSDOF 9
ENDMDL
MODEL 9
REMARK VINA RESULT:      -7.3      2.765      8.297
REMARK  9 active torsions:
REMARK  status: ('A' for Active; 'I' for Inactive)
REMARK    1  A    between atoms: C_1  and  C_13 
REMARK    2  A    between atoms: C_1  and  C_25 
REMARK    3  A    between atoms: C_1  and  N_28 
REMARK    4  A    between atoms: N_7  and  C_29 
REMARK       I    between atoms: N_7  and  C_13 
REMARK    5  A    between atoms: C_14  and  C_29 
REMARK    6  A    between atoms: C_14  and  C_21 
REMARK    7  A    between atoms: C_17  and  C_29 
REMARK    8  A    between atoms: C_18  and  O_19 
REMARK    9  A    between atoms: C_25  and  C_27 
ROOT
HETATM    1  N           1     -22.577  -6.782  -3.938  0.00  0.00    -0.344 N 
HETATM    2  O           1     -21.847  -5.629  -2.169  0.00  0.00    -0.271 OA
HETATM    3  C           1     -21.994  -6.704  -2.701  0.00  0.00     0.249 C 
HETATM    4  H           1     -23.580  -6.889  -4.019  0.00  0.00     0.163 HD
ENDROOT
BRANCH   3   5
HETATM    5  C           1     -21.536  -7.962  -2.003  0.00  0.00     0.278 C 
BRANCH   5   6
HETATM    6  C           1     -22.198  -8.051  -0.634  0.00  0.00     0.081 C 
BRANCH   6   7
HETATM    7  C           1     -22.278  -9.486  -0.211  0.00  0.00    -0.056 A 
HETATM    8  C           1     -21.168 -10.107   0.360  0.00  0.00     0.010 A 
HETATM    9  C           1     -21.243 -11.444   0.753  0.00  0.00     0.037 A 
HETATM   10  C           1     -22.427 -12.158   0.575  0.00  0.00     0.065 A 
HETATM   11  C           1     -23.537 -11.536   0.003  0.00  0.00     0.037 A 
HETATM   12  C           1     -23.462 -10.199  -0.390  0.00  0.00     0.010 A 
BRANCH  10  13
HETATM   13  O           1     -22.500 -13.456   0.957  0.00  0.00    -0.361 OA
HETATM   14  H           1     -22.307 -13.500   1.908  0.00  0.00     0.217 HD
ENDBRANCH  10  13
ENDBRANCH   6   7
ENDBRANCH   5   6
BRANCH   5  15
HETATM   15  N           1     -20.047  -7.926  -1.837  0.00  0.00    -0.066 N 
HETATM   16  H           1     -19.615  -7.452  -2.662  0.00  0.00     0.275 HD
HETATM   17  H           1     -19.681  -8.903  -1.767  0.00  0.00     0.275 HD
HETATM   18  H           1     -19.806  -7.401  -0.967  0.00  0.00     0.275 HD
ENDBRANCH   5  15
ENDBRANCH   3   5
BRANCH   1  19
HETATM   19  C           1     -21.756  -6.711  -5.131  0.00  0.00     0.189 C 
BRANCH  19  20
HETATM   20  C           1     -20.885  -5.465  -5.074  0.00  0.00     0.074 C 
BRANCH  20  21
HETATM   21  C           1     -20.751  -4.885  -6.449  0.00  0.00    -0.056 A 
HETATM   22  C           1     -21.888  -4.480  -7.148  0.00  0.00     0.007 A 
HETATM   23  C           1     -21.763  -3.941  -8.428  0.00  0.00     0.001 A 
HETATM   24  C           1     -20.503  -3.806  -9.009  0.00  0.00     0.000 A 
HETATM   25  C           1     -19.366  -4.212  -8.310  0.00  0.00     0.001 A 
HETATM   26  C           1     -19.490  -4.752  -7.029  0.00  0.00     0.007 A 
ENDBRANCH  20  21
ENDBRANCH  19  20
BRANCH  19  27
HETATM   27  C           1     -20.879  -7.936  -5.211  0.00  0.00     0.197 C 
HETATM   28  O           1     -21.359  -9.026  -5.594  0.00  0.00    -0.646 OA
HETATM   29  O           1     -19.673  -7.863  -4.892  0.00  0.00    -0.646 OA
ENDBRANCH  19  27
ENDBRANCH   1  19
TORSDOF 9
ENDMDL
