MODEL 1
REMARK VINA RESULT:      -5.8      0.000      0.000
REMARK  11 active torsions:
REMARK  status: ('A' for Active; 'I' for Inactive)
REMARK    1  A    between atoms: N_3  and  C_21 
REMARK    2  A    between atoms: C_11  and  C_27 
REMARK    3  A    between atoms: C_11  and  C_12 
REMARK    4  A    between atoms: C_12  and  C_13 
REMARK    5  A    between atoms: C_13  and  C_14 
REMARK    6  A    between atoms: C_14  and  C_15 
REMARK    7  A    between atoms: C_14  and  N_23 
REMARK       I    between atoms: N_18  and  C_19 
REMARK    8  A    between atoms: C_19  and  C_20 
REMARK    9  A    between atoms: C_20  and  C_21 
REMARK   10  A    between atoms: C_21  and  C_22 
REMARK       I    between atoms: C_22  and  N_23 
REMARK   11  A    between atoms: N_25  and  C_27 
ROOT
HETATM    1  O           1     -20.212  -4.430  -6.388  0.00  0.00    -0.271 OA
HETATM    2  H           1     -22.134  -6.876  -6.796  0.00  0.00     0.163 HD
HETATM    3  C           1     -21.039  -5.124  -6.929  0.00  0.00     0.249 C 
HETATM    4  N           1     -21.442  -6.294  -6.342  0.00  0.00    -0.345 N 
ENDROOT
BRANCH   4   5
HETATM    5  C           1     -20.875  -6.699  -5.070  0.00  0.00     0.185 C 
BRANCH   5   6
HETATM    6  C           1     -21.937  -6.589  -3.984  0.00  0.00     0.036 C 
BRANCH   6   7
HETATM    7  C           1     -21.265  -6.543  -2.619  0.00  0.00     0.004 C 
BRANCH   7   8
HETATM    8  C           1     -22.328  -6.505  -1.529  0.00  0.00     0.027 C 
BRANCH   8   9
HETATM    9  C           1     -22.180  -7.726  -0.631  0.00  0.00     0.229 C 
BRANCH   9  10
HETATM   10  N           1     -23.341  -7.795   0.316  0.00  0.00    -0.079 N 
HETATM   11  H           1     -23.839  -6.876   0.325  0.00  0.00     0.274 HD
HETATM   12  H           1     -22.994  -8.012   1.278  0.00  0.00     0.274 HD
HETATM   13  H           1     -24.000  -8.545   0.007  0.00  0.00     0.274 HD
ENDBRANCH   9  10
ENDBRANCH   8   9
ENDBRANCH   7   8
ENDBRANCH   6   7
ENDBRANCH   5   6
BRANCH   5  14
HETATM   14  C           1     -20.399  -8.128  -5.165  0.00  0.00     0.196 C 
HETATM   15  O           1     -19.302  -8.455  -4.663  0.00  0.00    -0.646 OA
HETATM   16  O           1     -21.101  -8.984  -5.744  0.00  0.00    -0.646 OA
ENDBRANCH   5  14
ENDBRANCH   4   5
BRANCH   3  17
HETATM   17  C           1     -21.628  -4.703  -8.253  0.00  0.00     0.283 C 
BRANCH  17  18
HETATM   18  N           1     -22.548  -3.538  -8.042  0.00  0.00    -0.066 N 
HETATM   19  H           1     -23.366  -3.837  -7.464  0.00  0.00     0.275 HD
HETATM   20  H           1     -22.034  -2.773  -7.547  0.00  0.00     0.275 HD
HETATM   21  H           1     -22.885  -3.188  -8.968  0.00  0.00     0.275 HD
ENDBRANCH  17  18
BRANCH  17  22
HETATM   22  C           1     -20.509  -4.300  -9.203  0.00  0.00     0.145 C 
BRANCH  22  23
HETATM   23  C           1     -21.074  -4.095 -10.588  0.00  0.00     0.217 C 
HETATM   24  O           1     -22.120  -4.615 -10.896  0.00  0.00    -0.274 OA
HETATM   25  N           1     -20.401  -3.321 -11.494  0.00  0.00    -0.370 N 
HETATM   26  H           1     -19.525  -2.886 -11.235  0.00  0.00     0.159 HD
HETATM   27  H           1     -20.780  -3.184 -12.422  0.00  0.00     0.159 HD
ENDBRANCH  22  23
ENDBRANCH  17  22
ENDBRANCH   3  17
TORSDOF 11
ENDMDL
MODEL 2
REMARK VINA RESULT:      -5.7      1.436      1.814
REMARK  11 active torsions:
REMARK  status: ('A' for Active; 'I' for Inactive)
REMARK    1  A    between atoms: N_3  and  C_21 
REMARK    2  A    between atoms: C_11  and  C_27 
REMARK    3  A    between atoms: C_11  and  C_12 
REMARK    4  A    between atoms: C_12  and  C_13 
REMARK    5  A    between atoms: C_13  and  C_14 
REMARK    6  A    between atoms: C_14  and  C_15 
REMARK    7  A    between atoms: C_14  and  N_23 
REMARK       I    between atoms: N_18  and  C_19 
REMARK    8  A    between atoms: C_19  and  C_20 
REMARK    9  A    between atoms: C_20  and  C_21 
REMARK   10  A    between atoms: C_21  and  C_22 
REMARK       I    between atoms: C_22  and  N_23 
REMARK   11  A    between atoms: N_25  and  C_27 
ROOT
HETATM    1  O           1     -19.642  -4.504  -6.295  0.00  0.00    -0.271 OA
HETATM    2  H           1     -22.350  -6.070  -6.534  0.00  0.00     0.163 HD
HETATM    3  C           1     -20.705  -4.835  -6.764  0.00  0.00     0.249 C 
HETATM    4  N           1     -21.461  -5.792  -6.140  0.00  0.00    -0.345 N 
ENDROOT
BRANCH   4   5
HETATM    5  C           1     -20.986  -6.406  -4.915  0.00  0.00     0.185 C 
BRANCH   5   6
HETATM    6  C           1     -22.095  -6.381  -3.873  0.00  0.00     0.036 C 
BRANCH   6   7
HETATM    7  C           1     -21.505  -6.034  -2.512  0.00  0.00     0.004 C 
BRANCH   7   8
HETATM    8  C           1     -22.240  -6.811  -1.427  0.00  0.00     0.027 C 
BRANCH   8   9
HETATM    9  C           1     -21.385  -7.988  -0.975  0.00  0.00     0.229 C 
BRANCH   9  10
HETATM   10  N           1     -21.813  -9.226  -1.705  0.00  0.00    -0.079 N 
HETATM   11  H           1     -20.994  -9.633  -2.212  0.00  0.00     0.274 HD
HETATM   12  H           1     -22.562  -8.984  -2.392  0.00  0.00     0.274 HD
HETATM   13  H           1     -22.182  -9.925  -1.021  0.00  0.00     0.274 HD
ENDBRANCH   9  10
ENDBRANCH   8   9
ENDBRANCH   7   8
ENDBRANCH   6   7
ENDBRANCH   5   6
BRANCH   5  14
HETATM   14  C           1     -20.587  -7.835  -5.192  0.00  0.00     0.196 C 
HETATM   15  O           1     -19.583  -8.078  -5.896  0.00  0.00    -0.646 OA
HETATM   16  O           1     -21.258  -8.775  -4.716  0.00  0.00    -0.646 OA
ENDBRANCH   5  14
ENDBRANCH   4   5
BRANCH   3  17
HETATM   17  C           1     -21.199  -4.196  -8.038  0.00  0.00     0.283 C 
BRANCH  17  18
HETATM   18  N           1     -20.310  -4.599  -9.177  0.00  0.00    -0.066 N 
HETATM   19  H           1     -20.868  -4.638 -10.060  0.00  0.00     0.275 HD
HETATM   20  H           1     -19.541  -3.899  -9.282  0.00  0.00     0.275 HD
HETATM   21  H           1     -19.900  -5.541  -8.982  0.00  0.00     0.275 HD
ENDBRANCH  17  18
BRANCH  17  22
HETATM   22  C           1     -22.623  -4.657  -8.320  0.00  0.00     0.145 C 
BRANCH  22  23
HETATM   23  C           1     -23.277  -3.705  -9.292  0.00  0.00     0.217 C 
HETATM   24  O           1     -22.674  -3.332 -10.270  0.00  0.00    -0.274 OA
HETATM   25  N           1     -24.553  -3.265  -9.067  0.00  0.00    -0.370 N 
HETATM   26  H           1     -25.058  -3.578  -8.247  0.00  0.00     0.159 HD
HETATM   27  H           1     -24.991  -2.627  -9.719  0.00  0.00     0.159 HD
ENDBRANCH  22  23
ENDBRANCH  17  22
ENDBRANCH   3  17
TORSDOF 11
ENDMDL
MODEL 3
REMARK VINA RESULT:      -5.5      2.009      7.280
REMARK  11 active torsions:
REMARK  status: ('A' for Active; 'I' for Inactive)
REMARK    1  A    between atoms: N_3  and  C_21 
REMARK    2  A    between atoms: C_11  and  C_27 
REMARK    3  A    between atoms: C_11  and  C_12 
REMARK    4  A    between atoms: C_12  and  C_13 
REMARK    5  A    between atoms: C_13  and  C_14 
REMARK    6  A    between atoms: C_14  and  C_15 
REMARK    7  A    between atoms: C_14  and  N_23 
REMARK       I    between atoms: N_18  and  C_19 
REMARK    8  A    between atoms: C_19  and  C_20 
REMARK    9  A    between atoms: C_20  and  C_21 
REMARK   10  A    between atoms: C_21  and  C_22 
REMARK       I    between atoms: C_22  and  N_23 
REMARK   11  A    between atoms: N_25  and  C_27 
ROOT
HETATM    1  O           1     -21.268  -7.498  -6.475  0.00  0.00    -0.271 OA
HETATM    2  H           1     -21.194  -4.505  -5.539  0.00  0.00     0.163 HD
HETATM    3  C           1     -21.192  -6.567  -5.709  0.00  0.00     0.249 C 
HETATM    4  N           1     -21.259  -5.284  -6.181  0.00  0.00    -0.345 N 
ENDROOT
BRANCH   4   5
HETATM    5  C           1     -21.420  -5.042  -7.601  0.00  0.00     0.185 C 
BRANCH   5   6
HETATM    6  C           1     -22.323  -3.833  -7.810  0.00  0.00     0.036 C 
BRANCH   6   7
HETATM    7  C           1     -23.476  -4.213  -8.730  0.00  0.00     0.004 C 
BRANCH   7   8
HETATM    8  C           1     -23.261  -3.584 -10.100  0.00  0.00     0.027 C 
BRANCH   8   9
HETATM    9  C           1     -23.208  -4.677 -11.159  0.00  0.00     0.229 C 
BRANCH   9  10
HETATM   10  N           1     -21.928  -4.562 -11.932  0.00  0.00    -0.079 N 
HETATM   11  H           1     -21.989  -5.146 -12.797  0.00  0.00     0.274 HD
HETATM   12  H           1     -21.133  -4.897 -11.342  0.00  0.00     0.274 HD
HETATM   13  H           1     -21.768  -3.564 -12.197  0.00  0.00     0.274 HD
ENDBRANCH   9  10
ENDBRANCH   8   9
ENDBRANCH   7   8
ENDBRANCH   6   7
ENDBRANCH   5   6
BRANCH   5  14
HETATM   14  C           1     -20.071  -4.776  -8.222  0.00  0.00     0.196 C 
HETATM   15  O           1     -19.938  -4.804  -9.465  0.00  0.00    -0.646 OA
HETATM   16  O           1     -19.086  -4.526  -7.495  0.00  0.00    -0.646 OA
ENDBRANCH   5  14
ENDBRANCH   4   5
BRANCH   3  17
HETATM   17  C           1     -21.024  -6.819  -4.230  0.00  0.00     0.283 C 
BRANCH  17  18
HETATM   18  N           1     -22.107  -6.108  -3.475  0.00  0.00    -0.066 N 
HETATM   19  H           1     -23.029  -6.556  -3.681  0.00  0.00     0.275 HD
HETATM   20  H           1     -21.913  -6.168  -2.449  0.00  0.00     0.275 HD
HETATM   21  H           1     -22.134  -5.105  -3.767  0.00  0.00     0.275 HD
ENDBRANCH  17  18
BRANCH  17  22
HETATM   22  C           1     -21.112  -8.314  -3.955  0.00  0.00     0.145 C 
BRANCH  22  23
HETATM   23  C           1     -20.970  -8.562  -2.473  0.00  0.00     0.217 C 
HETATM   24  O           1     -20.346  -7.787  -1.788  0.00  0.00    -0.274 OA
HETATM   25  N           1     -21.548  -9.665  -1.905  0.00  0.00    -0.370 N 
HETATM   26  H           1     -22.071 -10.314  -2.479  0.00  0.00     0.159 HD
HETATM   27  H           1     -21.453  -9.831  -0.911  0.00  0.00     0.159 HD
ENDBRANCH  22  23
ENDBRANCH  17  22
ENDBRANCH   3  17
TORSDOF 11
ENDMDL
MODEL 4
REMARK VINA RESULT:      -5.4      3.091      7.211
REMARK  11 active torsions:
REMARK  status: ('A' for Active; 'I' for Inactive)
REMARK    1  A    between atoms: N_3  and  C_21 
REMARK    2  A    between atoms: C_11  and  C_27 
REMARK    3  A    between atoms: C_11  and  C_12 
REMARK    4  A    between atoms: C_12  and  C_13 
REMARK    5  A    between atoms: C_13  and  C_14 
REMARK    6  A    between atoms: C_14  and  C_15 
REMARK    7  A    between atoms: C_14  and  N_23 
REMARK       I    between atoms: N_18  and  C_19 
REMARK    8  A    between atoms: C_19  and  C_20 
REMARK    9  A    between atoms: C_20  and  C_21 
REMARK   10  A    between atoms: C_21  and  C_22 
REMARK       I    between atoms: C_22  and  N_23 
REMARK   11  A    between atoms: N_25  and  C_27 
ROOT
HETATM    1  O           1     -21.067  -3.757  -8.314  0.00  0.00    -0.271 OA
HETATM    2  H           1     -24.109  -4.323  -7.800  0.00  0.00     0.163 HD
HETATM    3  C           1     -22.060  -4.052  -7.694  0.00  0.00     0.249 C 
HETATM    4  N           1     -23.277  -4.076  -8.320  0.00  0.00    -0.345 N 
ENDROOT
BRANCH   4   5
HETATM    5  C           1     -23.373  -3.749  -9.729  0.00  0.00     0.185 C 
BRANCH   5   6
HETATM    6  C           1     -23.169  -5.011 -10.558  0.00  0.00     0.036 C 
BRANCH   6   7
HETATM    7  C           1     -22.281  -4.695 -11.754  0.00  0.00     0.004 C 
BRANCH   7   8
HETATM    8  C           1     -21.584  -3.360 -11.531  0.00  0.00     0.027 C 
BRANCH   8   9
HETATM    9  C           1     -20.082  -3.584 -11.409  0.00  0.00     0.229 C 
BRANCH   9  10
HETATM   10  N           1     -19.825  -4.823 -10.603  0.00  0.00    -0.079 N 
HETATM   11  H           1     -19.009  -5.338 -11.004  0.00  0.00     0.274 HD
HETATM   12  H           1     -20.671  -5.436 -10.628  0.00  0.00     0.274 HD
HETATM   13  H           1     -19.618  -4.558  -9.613  0.00  0.00     0.274 HD
ENDBRANCH   9  10
ENDBRANCH   8   9
ENDBRANCH   7   8
ENDBRANCH   6   7
ENDBRANCH   5   6
BRANCH   5  14
HETATM   14  C           1     -24.737  -3.172 -10.019  0.00  0.00     0.196 C 
HETATM   15  O           1     -25.384  -2.611  -9.109  0.00  0.00    -0.646 OA
HETATM   16  O           1     -25.219  -3.252 -11.169  0.00  0.00    -0.646 OA
ENDBRANCH   5  14
ENDBRANCH   4   5
BRANCH   3  17
HETATM   17  C           1     -21.960  -4.393  -6.227  0.00  0.00     0.283 C 
BRANCH  17  18
HETATM   18  N           1     -22.779  -5.616  -5.941  0.00  0.00    -0.066 N 
HETATM   19  H           1     -23.774  -5.341  -5.777  0.00  0.00     0.275 HD
HETATM   20  H           1     -22.728  -6.267  -6.758  0.00  0.00     0.275 HD
HETATM   21  H           1     -22.405  -6.095  -5.090  0.00  0.00     0.275 HD
ENDBRANCH  17  18
BRANCH  17  22
HETATM   22  C           1     -20.506  -4.660  -5.864  0.00  0.00     0.145 C 
BRANCH  22  23
HETATM   23  C           1     -20.190  -6.118  -6.091  0.00  0.00     0.217 C 
HETATM   24  O           1     -20.347  -6.916  -5.197  0.00  0.00    -0.274 OA
HETATM   25  N           1     -19.728  -6.538  -7.309  0.00  0.00    -0.370 N 
HETATM   26  H           1     -19.597  -5.870  -8.057  0.00  0.00     0.159 HD
HETATM   27  H           1     -19.517  -7.516  -7.460  0.00  0.00     0.159 HD
ENDBRANCH  22  23
ENDBRANCH  17  22
ENDBRANCH   3  17
TORSDOF 11
ENDMDL
MODEL 5
REMARK VINA RESULT:      -5.2      2.473      7.396
REMARK  11 active torsions:
REMARK  status: ('A' for Active; 'I' for Inactive)
REMARK    1  A    between atoms: N_3  and  C_21 
REMARK    2  A    between atoms: C_11  and  C_27 
REMARK    3  A    between atoms: C_11  and  C_12 
REMARK    4  A    between atoms: C_12  and  C_13 
REMARK    5  A    between atoms: C_13  and  C_14 
REMARK    6  A    between atoms: C_14  and  C_15 
REMARK    7  A    between atoms: C_14  and  N_23 
REMARK       I    between atoms: N_18  and  C_19 
REMARK    8  A    between atoms: C_19  and  C_20 
REMARK    9  A    between atoms: C_20  and  C_21 
REMARK   10  A    between atoms: C_21  and  C_22 
REMARK       I    between atoms: C_22  and  N_23 
REMARK   11  A    between atoms: N_25  and  C_27 
ROOT
HETATM    1  O           1     -21.315  -3.636  -6.482  0.00  0.00    -0.271 OA
HETATM    2  H           1     -22.766  -5.687  -8.360  0.00  0.00     0.163 HD
HETATM    3  C           1     -21.672  -4.712  -6.898  0.00  0.00     0.249 C 
HETATM    4  N           1     -22.466  -4.786  -8.012  0.00  0.00    -0.345 N 
ENDROOT
BRANCH   4   5
HETATM    5  C           1     -22.876  -3.573  -8.691  0.00  0.00     0.185 C 
BRANCH   5   6
HETATM    6  C           1     -21.834  -3.200  -9.737  0.00  0.00     0.036 C 
BRANCH   6   7
HETATM    7  C           1     -20.902  -4.382  -9.969  0.00  0.00     0.004 C 
BRANCH   7   8
HETATM    8  C           1     -20.676  -4.565 -11.464  0.00  0.00     0.027 C 
BRANCH   8   9
HETATM    9  C           1     -21.846  -3.965 -12.233  0.00  0.00     0.229 C 
BRANCH   9  10
HETATM   10  N           1     -22.954  -4.971 -12.323  0.00  0.00    -0.079 N 
HETATM   11  H           1     -23.661  -4.780 -11.577  0.00  0.00     0.274 HD
HETATM   12  H           1     -22.564  -5.932 -12.195  0.00  0.00     0.274 HD
HETATM   13  H           1     -23.411  -4.904 -13.260  0.00  0.00     0.274 HD
ENDBRANCH   9  10
ENDBRANCH   8   9
ENDBRANCH   7   8
ENDBRANCH   6   7
ENDBRANCH   5   6
BRANCH   5  14
HETATM   14  C           1     -24.207  -3.800  -9.365  0.00  0.00     0.196 C 
HETATM   15  O           1     -25.010  -2.852  -9.498  0.00  0.00    -0.646 OA
HETATM   16  O           1     -24.506  -4.936  -9.792  0.00  0.00    -0.646 OA
ENDBRANCH   5  14
ENDBRANCH   4   5
BRANCH   3  17
HETATM   17  C           1     -21.245  -5.975  -6.192  0.00  0.00     0.283 C 
BRANCH  17  18
HETATM   18  N           1     -20.055  -6.561  -6.890  0.00  0.00    -0.066 N 
HETATM   19  H           1     -19.188  -6.068  -6.578  0.00  0.00     0.275 HD
HETATM   20  H           1     -19.980  -7.578  -6.657  0.00  0.00     0.275 HD
HETATM   21  H           1     -20.167  -6.448  -7.923  0.00  0.00     0.275 HD
ENDBRANCH  17  18
BRANCH  17  22
HETATM   22  C           1     -20.878  -5.652  -4.750  0.00  0.00     0.145 C 
BRANCH  22  23
HETATM   23  C           1     -21.671  -6.536  -3.818  0.00  0.00     0.217 C 
HETATM   24  O           1     -22.306  -6.045  -2.915  0.00  0.00    -0.274 OA
HETATM   25  N           1     -21.671  -7.892  -3.996  0.00  0.00    -0.370 N 
HETATM   26  H           1     -21.139  -8.303  -4.753  0.00  0.00     0.159 HD
HETATM   27  H           1     -22.203  -8.485  -3.371  0.00  0.00     0.159 HD
ENDBRANCH  22  23
ENDBRANCH  17  22
ENDBRANCH   3  17
TORSDOF 11
ENDMDL
MODEL 6
REMARK VINA RESULT:      -5.1      2.267      7.065
REMARK  11 active torsions:
REMARK  status: ('A' for Active; 'I' for Inactive)
REMARK    1  A    between atoms: N_3  and  C_21 
REMARK    2  A    between atoms: C_11  and  C_27 
REMARK    3  A    between atoms: C_11  and  C_12 
REMARK    4  A    between atoms: C_12  and  C_13 
REMARK    5  A    between atoms: C_13  and  C_14 
REMARK    6  A    between atoms: C_14  and  C_15 
REMARK    7  A    between atoms: C_14  and  N_23 
REMARK       I    between atoms: N_18  and  C_19 
REMARK    8  A    between atoms: C_19  and  C_20 
REMARK    9  A    between atoms: C_20  and  C_21 
REMARK   10  A    between atoms: C_21  and  C_22 
REMARK       I    between atoms: C_22  and  N_23 
REMARK   11  A    between atoms: N_25  and  C_27 
ROOT
HETATM    1  O           1     -19.602  -7.177  -6.529  0.00  0.00    -0.271 OA
HETATM    2  H           1     -22.284  -5.624  -6.039  0.00  0.00     0.163 HD
HETATM    3  C           1     -20.613  -6.843  -5.958  0.00  0.00     0.249 C 
HETATM    4  N           1     -21.437  -5.904  -6.518  0.00  0.00    -0.345 N 
ENDROOT
BRANCH   4   5
HETATM    5  C           1     -21.098  -5.312  -7.797  0.00  0.00     0.185 C 
BRANCH   5   6
HETATM    6  C           1     -22.359  -5.158  -8.636  0.00  0.00     0.036 C 
BRANCH   6   7
HETATM    7  C           1     -22.030  -4.398  -9.914  0.00  0.00     0.004 C 
BRANCH   7   8
HETATM    8  C           1     -23.266  -3.648 -10.393  0.00  0.00     0.027 C 
BRANCH   8   9
HETATM    9  C           1     -24.517  -4.393  -9.945  0.00  0.00     0.229 C 
BRANCH   9  10
HETATM   10  N           1     -25.637  -3.414  -9.746  0.00  0.00    -0.079 N 
HETATM   11  H           1     -25.486  -2.582 -10.360  0.00  0.00     0.274 HD
HETATM   12  H           1     -25.661  -3.111  -8.746  0.00  0.00     0.274 HD
HETATM   13  H           1     -26.545  -3.868  -9.993  0.00  0.00     0.274 HD
ENDBRANCH   9  10
ENDBRANCH   8   9
ENDBRANCH   7   8
ENDBRANCH   6   7
ENDBRANCH   5   6
BRANCH   5  14
HETATM   14  C           1     -20.474  -3.956  -7.572  0.00  0.00     0.196 C 
HETATM   15  O           1     -21.128  -3.054  -7.006  0.00  0.00    -0.646 OA
HETATM   16  O           1     -19.304  -3.736  -7.950  0.00  0.00    -0.646 OA
ENDBRANCH   5  14
ENDBRANCH   4   5
BRANCH   3  17
HETATM   17  C           1     -20.967  -7.460  -4.627  0.00  0.00     0.283 C 
BRANCH  17  18
HETATM   18  N           1     -19.872  -8.393  -4.202  0.00  0.00    -0.066 N 
HETATM   19  H           1     -18.957  -8.049  -4.570  0.00  0.00     0.275 HD
HETATM   20  H           1     -19.835  -8.431  -3.157  0.00  0.00     0.275 HD
HETATM   21  H           1     -20.063  -9.349  -4.578  0.00  0.00     0.275 HD
ENDBRANCH  17  18
BRANCH  17  22
HETATM   22  C           1     -21.131  -6.362  -3.585  0.00  0.00     0.145 C 
BRANCH  22  23
HETATM   23  C           1     -21.772  -6.937  -2.345  0.00  0.00     0.217 C 
HETATM   24  O           1     -21.773  -8.131  -2.165  0.00  0.00    -0.274 OA
HETATM   25  N           1     -22.351  -6.105  -1.426  0.00  0.00    -0.370 N 
HETATM   26  H           1     -22.349  -5.105  -1.577  0.00  0.00     0.159 HD
HETATM   27  H           1     -22.780  -6.491  -0.594  0.00  0.00     0.159 HD
ENDBRANCH  22  23
ENDBRANCH  17  22
ENDBRANCH   3  17
TORSDOF 11
ENDMDL
MODEL 7
REMARK VINA RESULT:      -5.1      2.393      3.168
REMARK  11 active torsions:
REMARK  status: ('A' for Active; 'I' for Inactive)
REMARK    1  A    between atoms: N_3  and  C_21 
REMARK    2  A    between atoms: C_11  and  C_27 
REMARK    3  A    between atoms: C_11  and  C_12 
REMARK    4  A    between atoms: C_12  and  C_13 
REMARK    5  A    between atoms: C_13  and  C_14 
REMARK    6  A    between atoms: C_14  and  C_15 
REMARK    7  A    between atoms: C_14  and  N_23 
REMARK       I    between atoms: N_18  and  C_19 
REMARK    8  A    between atoms: C_19  and  C_20 
REMARK    9  A    between atoms: C_20  and  C_21 
REMARK   10  A    between atoms: C_21  and  C_22 
REMARK       I    between atoms: C_22  and  N_23 
REMARK   11  A    between atoms: N_25  and  C_27 
ROOT
HETATM    1  O           1     -22.637  -5.744  -5.565  0.00  0.00    -0.271 OA
HETATM    2  H           1     -19.803  -6.893  -4.865  0.00  0.00     0.163 HD
HETATM    3  C           1     -21.438  -5.883  -5.631  0.00  0.00     0.249 C 
HETATM    4  N           1     -20.806  -6.778  -4.810  0.00  0.00    -0.345 N 
ENDROOT
BRANCH   4   5
HETATM    5  C           1     -21.576  -7.559  -3.862  0.00  0.00     0.185 C 
BRANCH   5   6
HETATM    6  C           1     -20.983  -8.958  -3.758  0.00  0.00     0.036 C 
BRANCH   6   7
HETATM    7  C           1     -22.105  -9.977  -3.616  0.00  0.00     0.004 C 
BRANCH   7   8
HETATM    8  C           1     -21.872 -10.820  -2.369  0.00  0.00     0.027 C 
BRANCH   8   9
HETATM    9  C           1     -22.651 -10.229  -1.202  0.00  0.00     0.229 C 
BRANCH   9  10
HETATM   10  N           1     -22.712 -11.228  -0.084  0.00  0.00    -0.079 N 
HETATM   11  H           1     -23.700 -11.542   0.050  0.00  0.00     0.274 HD
HETATM   12  H           1     -22.365 -10.786   0.797  0.00  0.00     0.274 HD
HETATM   13  H           1     -22.114 -12.052  -0.319  0.00  0.00     0.274 HD
ENDBRANCH   9  10
ENDBRANCH   8   9
ENDBRANCH   7   8
ENDBRANCH   6   7
ENDBRANCH   5   6
BRANCH   5  14
HETATM   14  C           1     -21.532  -6.893  -2.509  0.00  0.00     0.196 C 
HETATM   15  O           1     -22.298  -5.937  -2.258  0.00  0.00    -0.646 OA
HETATM   16  O           1     -20.732  -7.296  -1.638  0.00  0.00    -0.646 OA
ENDBRANCH   5  14
ENDBRANCH   4   5
BRANCH   3  17
HETATM   17  C           1     -20.638  -5.069  -6.618  0.00  0.00     0.283 C 
BRANCH  17  18
HETATM   18  N           1     -20.504  -5.831  -7.902  0.00  0.00    -0.066 N 
HETATM   19  H           1     -20.376  -5.162  -8.695  0.00  0.00     0.275 HD
HETATM   20  H           1     -19.674  -6.466  -7.845  0.00  0.00     0.275 HD
HETATM   21  H           1     -21.367  -6.399  -8.062  0.00  0.00     0.275 HD
ENDBRANCH  17  18
BRANCH  17  22
HETATM   22  C           1     -21.348  -3.749  -6.884  0.00  0.00     0.145 C 
BRANCH  22  23
HETATM   23  C           1     -22.252  -3.896  -8.084  0.00  0.00     0.217 C 
HETATM   24  O           1     -21.802  -3.767  -9.198  0.00  0.00    -0.274 OA
HETATM   25  N           1     -23.580  -4.177  -7.910  0.00  0.00    -0.370 N 
HETATM   26  H           1     -23.956  -4.286  -6.977  0.00  0.00     0.159 HD
HETATM   27  H           1     -24.185  -4.276  -8.715  0.00  0.00     0.159 HD
ENDBRANCH  22  23
ENDBRANCH  17  22
ENDBRANCH   3  17
TORSDOF 11
ENDMDL
MODEL 8
REMARK VINA RESULT:      -5.1      2.146      3.065
REMARK  11 active torsions:
REMARK  status: ('A' for Active; 'I' for Inactive)
REMARK    1  A    between atoms: N_3  and  C_21 
REMARK    2  A    between atoms: C_11  and  C_27 
REMARK    3  A    between atoms: C_11  and  C_12 
REMARK    4  A    between atoms: C_12  and  C_13 
REMARK    5  A    between atoms: C_13  and  C_14 
REMARK    6  A    between atoms: C_14  and  C_15 
REMARK    7  A    between atoms: C_14  and  N_23 
REMARK       I    between atoms: N_18  and  C_19 
REMARK    8  A    between atoms: C_19  and  C_20 
REMARK    9  A    between atoms: C_20  and  C_21 
REMARK   10  A    between atoms: C_21  and  C_22 
REMARK       I    between atoms: C_22  and  N_23 
REMARK   11  A    between atoms: N_25  and  C_27 
ROOT
HETATM    1  O           1     -19.612  -7.901  -5.653  0.00  0.00    -0.271 OA
HETATM    2  H           1     -21.826  -7.145  -3.563  0.00  0.00     0.163 HD
HETATM    3  C           1     -20.565  -7.317  -5.195  0.00  0.00     0.249 C 
HETATM    4  N           1     -21.027  -7.634  -3.946  0.00  0.00    -0.345 N 
ENDROOT
BRANCH   4   5
HETATM    5  C           1     -20.371  -8.670  -3.172  0.00  0.00     0.185 C 
BRANCH   5   6
HETATM    6  C           1     -20.246  -8.218  -1.723  0.00  0.00     0.036 C 
BRANCH   6   7
HETATM    7  C           1     -21.574  -7.637  -1.256  0.00  0.00     0.004 C 
BRANCH   7   8
HETATM    8  C           1     -21.942  -8.234   0.096  0.00  0.00     0.027 C 
BRANCH   8   9
HETATM    9  C           1     -22.963  -9.347  -0.100  0.00  0.00     0.229 C 
BRANCH   9  10
HETATM   10  N           1     -22.308 -10.675   0.142  0.00  0.00    -0.079 N 
HETATM   11  H           1     -23.042 -11.409   0.266  0.00  0.00     0.274 HD
HETATM   12  H           1     -21.720 -10.621   1.004  0.00  0.00     0.274 HD
HETATM   13  H           1     -21.705 -10.920  -0.676  0.00  0.00     0.274 HD
ENDBRANCH   9  10
ENDBRANCH   8   9
ENDBRANCH   7   8
ENDBRANCH   6   7
ENDBRANCH   5   6
BRANCH   5  14
HETATM   14  C           1     -21.188  -9.937  -3.235  0.00  0.00     0.196 C 
HETATM   15  O           1     -22.191  -9.997  -3.978  0.00  0.00    -0.646 OA
HETATM   16  O           1     -20.860 -10.927  -2.546  0.00  0.00    -0.646 OA
ENDBRANCH   5  14
ENDBRANCH   4   5
BRANCH   3  17
HETATM   17  C           1     -21.248  -6.239  -6.000  0.00  0.00     0.283 C 
BRANCH  17  18
HETATM   18  N           1     -22.564  -5.899  -5.366  0.00  0.00    -0.066 N 
HETATM   19  H           1     -23.332  -6.408  -5.858  0.00  0.00     0.275 HD
HETATM   20  H           1     -22.548  -6.182  -4.359  0.00  0.00     0.275 HD
HETATM   21  H           1     -22.728  -4.869  -5.435  0.00  0.00     0.275 HD
ENDBRANCH  17  18
BRANCH  17  22
HETATM   22  C           1     -20.368  -4.997  -6.039  0.00  0.00     0.145 C 
BRANCH  22  23
HETATM   23  C           1     -20.744  -4.150  -7.230  0.00  0.00     0.217 C 
HETATM   24  O           1     -21.871  -3.730  -7.341  0.00  0.00    -0.274 OA
HETATM   25  N           1     -19.808  -3.857  -8.185  0.00  0.00    -0.370 N 
HETATM   26  H           1     -18.864  -4.209  -8.092  0.00  0.00     0.159 HD
HETATM   27  H           1     -20.060  -3.289  -8.983  0.00  0.00     0.159 HD
ENDBRANCH  22  23
ENDBRANCH  17  22
ENDBRANCH   3  17
TORSDOF 11
ENDMDL
MODEL 9
REMARK VINA RESULT:      -5.0      2.679      3.839
REMARK  11 active torsions:
REMARK  status: ('A' for Active; 'I' for Inactive)
REMARK    1  A    between atoms: N_3  and  C_21 
REMARK    2  A    between atoms: C_11  and  C_27 
REMARK    3  A    between atoms: C_11  and  C_12 
REMARK    4  A    between atoms: C_12  and  C_13 
REMARK    5  A    between atoms: C_13  and  C_14 
REMARK    6  A    between atoms: C_14  and  C_15 
REMARK    7  A    between atoms: C_14  and  N_23 
REMARK       I    between atoms: N_18  and  C_19 
REMARK    8  A    between atoms: C_19  and  C_20 
REMARK    9  A    between atoms: C_20  and  C_21 
REMARK   10  A    between atoms: C_21  and  C_22 
REMARK       I    between atoms: C_22  and  N_23 
REMARK   11  A    between atoms: N_25  and  C_27 
ROOT
HETATM    1  O           1     -21.944  -7.564  -5.223  0.00  0.00    -0.271 OA
HETATM    2  H           1     -19.948  -6.251  -3.191  0.00  0.00     0.163 HD
HETATM    3  C           1     -21.046  -6.854  -4.838  0.00  0.00     0.249 C 
HETATM    4  N           1     -20.699  -6.847  -3.514  0.00  0.00    -0.345 N 
ENDROOT
BRANCH   4   5
HETATM    5  C           1     -21.409  -7.692  -2.574  0.00  0.00     0.185 C 
BRANCH   5   6
HETATM    6  C           1     -20.415  -8.583  -1.841  0.00  0.00     0.036 C 
BRANCH   6   7
HETATM    7  C           1     -20.642 -10.035  -2.242  0.00  0.00     0.004 C 
BRANCH   7   8
HETATM    8  C           1     -22.080 -10.213  -2.710  0.00  0.00     0.027 C 
BRANCH   8   9
HETATM    9  C           1     -22.837 -11.078  -1.710  0.00  0.00     0.229 C 
BRANCH   9  10
HETATM   10  N           1     -23.345 -10.220  -0.590  0.00  0.00    -0.079 N 
HETATM   11  H           1     -24.375 -10.361  -0.481  0.00  0.00     0.274 HD
HETATM   12  H           1     -23.152  -9.216  -0.806  0.00  0.00     0.274 HD
HETATM   13  H           1     -22.862 -10.484   0.299  0.00  0.00     0.274 HD
ENDBRANCH   9  10
ENDBRANCH   8   9
ENDBRANCH   7   8
ENDBRANCH   6   7
ENDBRANCH   5   6
BRANCH   5  14
HETATM   14  C           1     -22.142  -6.829  -1.576  0.00  0.00     0.196 C 
HETATM   15  O           1     -22.445  -5.653  -1.871  0.00  0.00    -0.646 OA
HETATM   16  O           1     -22.447  -7.290  -0.455  0.00  0.00    -0.646 OA
ENDBRANCH   5  14
ENDBRANCH   4   5
BRANCH   3  17
HETATM   17  C           1     -20.307  -5.974  -5.816  0.00  0.00     0.283 C 
BRANCH  17  18
HETATM   18  N           1     -20.363  -6.589  -7.183  0.00  0.00    -0.066 N 
HETATM   19  H           1     -20.708  -5.882  -7.871  0.00  0.00     0.275 HD
HETATM   20  H           1     -19.406  -6.906  -7.461  0.00  0.00     0.275 HD
HETATM   21  H           1     -21.011  -7.409  -7.170  0.00  0.00     0.275 HD
ENDBRANCH  17  18
BRANCH  17  22
HETATM   22  C           1     -20.956  -4.597  -5.853  0.00  0.00     0.145 C 
BRANCH  22  23
HETATM   23  C           1     -22.023  -4.572  -6.921  0.00  0.00     0.217 C 
HETATM   24  O           1     -21.729  -4.308  -8.063  0.00  0.00    -0.274 OA
HETATM   25  N           1     -23.323  -4.849  -6.597  0.00  0.00    -0.370 N 
HETATM   26  H           1     -23.570  -5.071  -5.640  0.00  0.00     0.159 HD
HETATM   27  H           1     -24.038  -4.833  -7.313  0.00  0.00     0.159 HD
ENDBRANCH  22  23
ENDBRANCH  17  22
ENDBRANCH   3  17
TORSDOF 11
ENDMDL
