MODEL 1
REMARK VINA RESULT:      -7.8      0.000      0.000
REMARK  9 active torsions:
REMARK  status: ('A' for Active; 'I' for Inactive)
REMARK    1  A    between atoms: C_3  and  C_13 
REMARK    2  A    between atoms: C_3  and  C_4 
REMARK    3  A    between atoms: C_3  and  N_21 
REMARK    4  A    between atoms: C_4  and  C_26 
REMARK    5  A    between atoms: O_5  and  C_10 
REMARK    6  A    between atoms: N_12  and  C_22 
REMARK    7  A    between atoms: C_14  and  C_22 
REMARK    8  A    between atoms: C_14  and  C_30 
REMARK       I    between atoms: C_20  and  N_21 
REMARK    9  A    between atoms: C_20  and  C_22 
ROOT
HETATM    1  C           1     -33.808  -4.465 -15.418  0.00  0.00     0.249 C 
HETATM    2  N           1     -33.214  -4.034 -14.263  0.00  0.00    -0.344 N 
HETATM    3  H           1     -32.257  -3.705 -14.278  0.00  0.00     0.163 HD
HETATM    4  O           1     -34.950  -4.858 -15.401  0.00  0.00    -0.271 OA
ENDROOT
BRANCH   1   5
HETATM    5  C           1     -33.036  -4.450 -16.715  0.00  0.00     0.278 C 
BRANCH   5   6
HETATM    6  N           1     -33.347  -3.190 -17.467  0.00  0.00    -0.066 N 
HETATM    7  H           1     -34.138  -2.692 -17.001  0.00  0.00     0.275 HD
HETATM    8  H           1     -32.505  -2.573 -17.476  0.00  0.00     0.275 HD
HETATM    9  H           1     -33.616  -3.428 -18.448  0.00  0.00     0.275 HD
ENDBRANCH   5   6
BRANCH   5  10
HETATM   10  C           1     -31.544  -4.510 -16.419  0.00  0.00     0.081 C 
BRANCH  10  11
HETATM   11  C           1     -30.926  -5.639 -17.186  0.00  0.00    -0.056 A 
HETATM   12  C           1     -31.711  -6.720 -17.587  0.00  0.00     0.010 A 
HETATM   13  C           1     -31.137  -7.771 -18.301  0.00  0.00     0.037 A 
HETATM   14  C           1     -29.777  -7.742 -18.614  0.00  0.00     0.065 A 
HETATM   15  C           1     -28.993  -6.661 -18.213  0.00  0.00     0.037 A 
HETATM   16  C           1     -29.568  -5.608 -17.498  0.00  0.00     0.010 A 
BRANCH  14  17
HETATM   17  O           1     -29.219  -8.763 -19.308  0.00  0.00    -0.361 OA
HETATM   18  H           1     -29.740  -8.895 -20.118  0.00  0.00     0.217 HD
ENDBRANCH  14  17
ENDBRANCH  10  11
ENDBRANCH   5  10
ENDBRANCH   1   5
BRANCH   2  19
HETATM   19  C           1     -33.957  -4.048 -13.018  0.00  0.00     0.191 C 
BRANCH  19  20
HETATM   20  C           1     -34.475  -2.661 -12.724  0.00  0.00     0.197 C 
HETATM   21  O           1     -34.305  -2.157 -11.594  0.00  0.00    -0.646 OA
HETATM   22  O           1     -35.075  -2.018 -13.613  0.00  0.00    -0.646 OA
ENDBRANCH  19  20
BRANCH  19  23
HETATM   23  C           1     -33.043  -4.498 -11.886  0.00  0.00     0.094 C 
BRANCH  23  24
HETATM   24  C           1     -33.703  -5.600 -11.119  0.00  0.00     0.028 A 
HETATM   25  C           1     -34.856  -5.460 -10.384  0.00  0.00     0.114 A 
HETATM   26  N           1     -35.096  -6.700  -9.859  0.00  0.00    -0.360 N 
HETATM   27  C           1     -34.098  -7.527 -10.290  0.00  0.00     0.180 A 
HETATM   28  H           1     -35.900  -6.967  -9.240  0.00  0.00     0.166 HD
HETATM   29  N           1     -33.241  -6.890 -11.053  0.00  0.00    -0.354 N 
ATOM     30  HN          1     -32.408  -7.272 -11.502  1.00  0.00     0.166 HD
ENDBRANCH  23  24
ENDBRANCH  19  23
ENDBRANCH   2  19
TORSDOF 9
ENDMDL
MODEL 2
REMARK VINA RESULT:      -7.6     13.750     15.061
REMARK  9 active torsions:
REMARK  status: ('A' for Active; 'I' for Inactive)
REMARK    1  A    between atoms: C_3  and  C_13 
REMARK    2  A    between atoms: C_3  and  C_4 
REMARK    3  A    between atoms: C_3  and  N_21 
REMARK    4  A    between atoms: C_4  and  C_26 
REMARK    5  A    between atoms: O_5  and  C_10 
REMARK    6  A    between atoms: N_12  and  C_22 
REMARK    7  A    between atoms: C_14  and  C_22 
REMARK    8  A    between atoms: C_14  and  C_30 
REMARK       I    between atoms: C_20  and  N_21 
REMARK    9  A    between atoms: C_20  and  C_22 
ROOT
HETATM    1  C           1     -21.339  -6.060  -5.477  0.00  0.00     0.249 C 
HETATM    2  N           1     -21.113  -7.409  -5.442  0.00  0.00    -0.344 N 
HETATM    3  H           1     -21.430  -7.996  -6.203  0.00  0.00     0.163 HD
HETATM    4  O           1     -20.961  -5.359  -4.568  0.00  0.00    -0.271 OA
ENDROOT
BRANCH   1   5
HETATM    5  C           1     -22.063  -5.446  -6.650  0.00  0.00     0.278 C 
BRANCH   5   6
HETATM    6  N           1     -23.452  -5.062  -6.234  0.00  0.00    -0.066 N 
HETATM    7  H           1     -24.058  -5.912  -6.217  0.00  0.00     0.275 HD
HETATM    8  H           1     -23.425  -4.634  -5.282  0.00  0.00     0.275 HD
HETATM    9  H           1     -23.840  -4.372  -6.916  0.00  0.00     0.275 HD
ENDBRANCH   5   6
BRANCH   5  10
HETATM   10  C           1     -21.312  -4.207  -7.119  0.00  0.00     0.081 C 
BRANCH  10  11
HETATM   11  C           1     -21.407  -4.100  -8.610  0.00  0.00    -0.056 A 
HETATM   12  C           1     -22.597  -3.681  -9.205  0.00  0.00     0.010 A 
HETATM   13  C           1     -22.684  -3.582 -10.593  0.00  0.00     0.037 A 
HETATM   14  C           1     -21.582  -3.900 -11.387  0.00  0.00     0.065 A 
HETATM   15  C           1     -20.392  -4.318 -10.792  0.00  0.00     0.037 A 
HETATM   16  C           1     -20.304  -4.418  -9.402  0.00  0.00     0.010 A 
BRANCH  14  17
HETATM   17  O           1     -21.667  -3.803 -12.736  0.00  0.00    -0.361 OA
HETATM   18  H           1     -22.301  -4.470 -13.046  0.00  0.00     0.217 HD
ENDBRANCH  14  17
ENDBRANCH  10  11
ENDBRANCH   5  10
ENDBRANCH   1   5
BRANCH   2  19
HETATM   19  C           1     -20.418  -7.998  -4.314  0.00  0.00     0.191 C 
BRANCH  19  20
HETATM   20  C           1     -19.218  -8.769  -4.808  0.00  0.00     0.197 C 
HETATM   21  O           1     -18.352  -9.164  -3.998  0.00  0.00    -0.646 OA
HETATM   22  O           1     -19.090  -9.010  -6.028  0.00  0.00    -0.646 OA
ENDBRANCH  19  20
BRANCH  19  23
HETATM   23  C           1     -21.357  -8.942  -3.575  0.00  0.00     0.094 C 
BRANCH  23  24
HETATM   24  C           1     -21.758  -8.327  -2.271  0.00  0.00     0.028 A 
HETATM   25  C           1     -21.982  -9.030  -1.111  0.00  0.00     0.114 A 
HETATM   26  N           1     -22.322  -8.086  -0.183  0.00  0.00    -0.360 N 
HETATM   27  C           1     -22.290  -6.870  -0.805  0.00  0.00     0.180 A 
HETATM   28  H           1     -22.561  -8.261   0.824  0.00  0.00     0.166 HD
HETATM   29  N           1     -21.953  -6.985  -2.068  0.00  0.00    -0.354 N 
ATOM     30  HN          1     -21.857  -6.236  -2.754  1.00  0.00     0.166 HD
ENDBRANCH  23  24
ENDBRANCH  19  23
ENDBRANCH   2  19
TORSDOF 9
ENDMDL
MODEL 3
REMARK VINA RESULT:      -7.2     13.619     14.948
REMARK  9 active torsions:
REMARK  status: ('A' for Active; 'I' for Inactive)
REMARK    1  A    between atoms: C_3  and  C_13 
REMARK    2  A    between atoms: C_3  and  C_4 
REMARK    3  A    between atoms: C_3  and  N_21 
REMARK    4  A    between atoms: C_4  and  C_26 
REMARK    5  A    between atoms: O_5  and  C_10 
REMARK    6  A    between atoms: N_12  and  C_22 
REMARK    7  A    between atoms: C_14  and  C_22 
REMARK    8  A    between atoms: C_14  and  C_30 
REMARK       I    between atoms: C_20  and  N_21 
REMARK    9  A    between atoms: C_20  and  C_22 
ROOT
HETATM    1  C           1     -21.896  -5.952  -5.104  0.00  0.00     0.249 C 
HETATM    2  N           1     -21.194  -6.431  -4.031  0.00  0.00    -0.344 N 
HETATM    3  H           1     -20.211  -6.214  -3.932  0.00  0.00     0.163 HD
HETATM    4  O           1     -23.070  -6.212  -5.223  0.00  0.00    -0.271 OA
ENDROOT
BRANCH   1   5
HETATM    5  C           1     -21.204  -5.100  -6.140  0.00  0.00     0.278 C 
BRANCH   5   6
HETATM    6  N           1     -19.895  -4.614  -5.592  0.00  0.00    -0.066 N 
HETATM    7  H           1     -20.066  -4.046  -4.732  0.00  0.00     0.275 HD
HETATM    8  H           1     -19.291  -5.432  -5.354  0.00  0.00     0.275 HD
HETATM    9  H           1     -19.416  -4.023  -6.309  0.00  0.00     0.275 HD
ENDBRANCH   5   6
BRANCH   5  10
HETATM   10  C           1     -20.954  -5.926  -7.394  0.00  0.00     0.081 C 
BRANCH  10  11
HETATM   11  C           1     -21.151  -5.068  -8.606  0.00  0.00    -0.056 A 
HETATM   12  C           1     -20.086  -4.838  -9.477  0.00  0.00     0.010 A 
HETATM   13  C           1     -20.270  -4.039 -10.605  0.00  0.00     0.037 A 
HETATM   14  C           1     -21.517  -3.470 -10.862  0.00  0.00     0.065 A 
HETATM   15  C           1     -22.582  -3.701  -9.991  0.00  0.00     0.037 A 
HETATM   16  C           1     -22.398  -4.500  -8.862  0.00  0.00     0.010 A 
BRANCH  14  17
HETATM   17  O           1     -21.695  -2.694 -11.959  0.00  0.00    -0.361 OA
HETATM   18  H           1     -22.367  -2.025 -11.747  0.00  0.00     0.217 HD
ENDBRANCH  14  17
ENDBRANCH  10  11
ENDBRANCH   5  10
ENDBRANCH   1   5
BRANCH   2  19
HETATM   19  C           1     -21.860  -7.250  -3.037  0.00  0.00     0.191 C 
BRANCH  19  20
HETATM   20  C           1     -22.168  -6.412  -1.819  0.00  0.00     0.197 C 
HETATM   21  O           1     -21.863  -5.201  -1.801  0.00  0.00    -0.646 OA
HETATM   22  O           1     -22.727  -6.932  -0.830  0.00  0.00    -0.646 OA
ENDBRANCH  19  20
BRANCH  19  23
HETATM   23  C           1     -20.953  -8.406  -2.641  0.00  0.00     0.094 C 
BRANCH  23  24
HETATM   24  C           1     -21.757  -9.665  -2.552  0.00  0.00     0.028 A 
HETATM   25  C           1     -21.896 -10.578  -3.570  0.00  0.00     0.114 A 
HETATM   26  N           1     -22.702 -11.558  -3.061  0.00  0.00    -0.360 N 
HETATM   27  C           1     -23.014 -11.207  -1.778  0.00  0.00     0.180 A 
HETATM   28  H           1     -23.022 -12.422  -3.563  0.00  0.00     0.166 HD
HETATM   29  N           1     -22.457 -10.067  -1.443  0.00  0.00    -0.354 N 
ATOM     30  HN          1     -22.529  -9.582  -0.548  1.00  0.00     0.166 HD
ENDBRANCH  23  24
ENDBRANCH  19  23
ENDBRANCH   2  19
TORSDOF 9
ENDMDL
MODEL 4
REMARK VINA RESULT:      -7.2      5.394      8.288
REMARK  9 active torsions:
REMARK  status: ('A' for Active; 'I' for Inactive)
REMARK    1  A    between atoms: C_3  and  C_13 
REMARK    2  A    between atoms: C_3  and  C_4 
REMARK    3  A    between atoms: C_3  and  N_21 
REMARK    4  A    between atoms: C_4  and  C_26 
REMARK    5  A    between atoms: O_5  and  C_10 
REMARK    6  A    between atoms: N_12  and  C_22 
REMARK    7  A    between atoms: C_14  and  C_22 
REMARK    8  A    between atoms: C_14  and  C_30 
REMARK       I    between atoms: C_20  and  N_21 
REMARK    9  A    between atoms: C_20  and  C_22 
ROOT
HETATM    1  C           1     -27.127  -6.550 -19.653  0.00  0.00     0.249 C 
HETATM    2  N           1     -27.398  -6.726 -18.323  0.00  0.00    -0.344 N 
HETATM    3  H           1     -27.078  -7.560 -17.848  0.00  0.00     0.163 HD
HETATM    4  O           1     -27.510  -5.555 -20.222  0.00  0.00    -0.271 OA
ENDROOT
BRANCH   1   5
HETATM    5  C           1     -26.349  -7.599 -20.411  0.00  0.00     0.278 C 
BRANCH   5   6
HETATM    6  N           1     -27.304  -8.562 -21.051  0.00  0.00    -0.066 N 
HETATM    7  H           1     -26.895  -9.523 -21.031  0.00  0.00     0.275 HD
HETATM    8  H           1     -28.207  -8.558 -20.528  0.00  0.00     0.275 HD
HETATM    9  H           1     -27.473  -8.277 -22.042  0.00  0.00     0.275 HD
ENDBRANCH   5   6
BRANCH   5  10
HETATM   10  C           1     -25.506  -6.929 -21.487  0.00  0.00     0.081 C 
BRANCH  10  11
HETATM   11  C           1     -24.176  -7.611 -21.577  0.00  0.00    -0.056 A 
HETATM   12  C           1     -23.693  -8.036 -22.815  0.00  0.00     0.010 A 
HETATM   13  C           1     -22.455  -8.671 -22.899  0.00  0.00     0.037 A 
HETATM   14  C           1     -21.699  -8.883 -21.746  0.00  0.00     0.065 A 
HETATM   15  C           1     -22.181  -8.457 -20.508  0.00  0.00     0.037 A 
HETATM   16  C           1     -23.421  -7.821 -20.424  0.00  0.00     0.010 A 
BRANCH  14  17
HETATM   17  O           1     -20.495  -9.499 -21.827  0.00  0.00    -0.361 OA
HETATM   18  H           1     -19.888  -9.054 -21.213  0.00  0.00     0.217 HD
ENDBRANCH  14  17
ENDBRANCH  10  11
ENDBRANCH   5  10
ENDBRANCH   1   5
BRANCH   2  19
HETATM   19  C           1     -28.145  -5.718 -17.597  0.00  0.00     0.191 C 
BRANCH  19  20
HETATM   20  C           1     -27.370  -5.304 -16.370  0.00  0.00     0.197 C 
HETATM   21  O           1     -27.971  -4.832 -15.381  0.00  0.00    -0.646 OA
HETATM   22  O           1     -26.127  -5.433 -16.343  0.00  0.00    -0.646 OA
ENDBRANCH  19  20
BRANCH  19  23
HETATM   23  C           1     -29.492  -6.289 -17.177  0.00  0.00     0.094 C 
BRANCH  23  24
HETATM   24  C           1     -30.528  -5.210 -17.218  0.00  0.00     0.028 A 
HETATM   25  C           1     -30.368  -3.997 -17.846  0.00  0.00     0.114 A 
HETATM   26  N           1     -31.544  -3.332 -17.636  0.00  0.00    -0.360 N 
HETATM   27  C           1     -32.355  -4.152 -16.905  0.00  0.00     0.180 A 
HETATM   28  H           1     -31.781  -2.367 -17.976  0.00  0.00     0.166 HD
HETATM   29  N           1     -31.767  -5.295 -16.637  0.00  0.00    -0.354 N 
ATOM     30  HN          1     -32.149  -6.079 -16.108  1.00  0.00     0.166 HD
ENDBRANCH  23  24
ENDBRANCH  19  23
ENDBRANCH   2  19
TORSDOF 9
ENDMDL
MODEL 5
REMARK VINA RESULT:      -7.0     14.143     16.533
REMARK  9 active torsions:
REMARK  status: ('A' for Active; 'I' for Inactive)
REMARK    1  A    between atoms: C_3  and  C_13 
REMARK    2  A    between atoms: C_3  and  C_4 
REMARK    3  A    between atoms: C_3  and  N_21 
REMARK    4  A    between atoms: C_4  and  C_26 
REMARK    5  A    between atoms: O_5  and  C_10 
REMARK    6  A    between atoms: N_12  and  C_22 
REMARK    7  A    between atoms: C_14  and  C_22 
REMARK    8  A    between atoms: C_14  and  C_30 
REMARK       I    between atoms: C_20  and  N_21 
REMARK    9  A    between atoms: C_20  and  C_22 
ROOT
HETATM    1  C           1     -20.660  -7.649  -5.714  0.00  0.00     0.249 C 
HETATM    2  N           1     -21.498  -6.598  -5.972  0.00  0.00    -0.344 N 
HETATM    3  H           1     -22.407  -6.556  -5.528  0.00  0.00     0.163 HD
HETATM    4  O           1     -19.575  -7.701  -6.244  0.00  0.00    -0.271 OA
ENDROOT
BRANCH   1   5
HETATM    5  C           1     -21.090  -8.745  -4.770  0.00  0.00     0.278 C 
BRANCH   5   6
HETATM    6  N           1     -20.897 -10.078  -5.431  0.00  0.00    -0.066 N 
HETATM    7  H           1     -20.464 -10.744  -4.752  0.00  0.00     0.275 HD
HETATM    8  H           1     -21.821 -10.450  -5.741  0.00  0.00     0.275 HD
HETATM    9  H           1     -20.268  -9.967  -6.258  0.00  0.00     0.275 HD
ENDBRANCH   5   6
BRANCH   5  10
HETATM   10  C           1     -20.251  -8.681  -3.501  0.00  0.00     0.081 C 
BRANCH  10  11
HETATM   11  C           1     -21.145  -8.445  -2.322  0.00  0.00    -0.056 A 
HETATM   12  C           1     -21.583  -9.523  -1.553  0.00  0.00     0.010 A 
HETATM   13  C           1     -22.415  -9.303  -0.456  0.00  0.00     0.037 A 
HETATM   14  C           1     -22.809  -8.006  -0.127  0.00  0.00     0.065 A 
HETATM   15  C           1     -22.369  -6.928  -0.896  0.00  0.00     0.037 A 
HETATM   16  C           1     -21.537  -7.148  -1.994  0.00  0.00     0.010 A 
BRANCH  14  17
HETATM   17  O           1     -23.616  -7.792   0.940  0.00  0.00    -0.361 OA
HETATM   18  H           1     -23.856  -6.850   0.951  0.00  0.00     0.217 HD
ENDBRANCH  14  17
ENDBRANCH  10  11
ENDBRANCH   5  10
ENDBRANCH   1   5
BRANCH   2  19
HETATM   19  C           1     -21.084  -5.546  -6.879  0.00  0.00     0.191 C 
BRANCH  19  20
HETATM   20  C           1     -19.979  -4.739  -6.244  0.00  0.00     0.197 C 
HETATM   21  O           1     -18.982  -4.404  -6.919  0.00  0.00    -0.646 OA
HETATM   22  O           1     -20.061  -4.406  -5.042  0.00  0.00    -0.646 OA
ENDBRANCH  19  20
BRANCH  19  23
HETATM   23  C           1     -22.269  -4.638  -7.178  0.00  0.00     0.094 C 
BRANCH  23  24
HETATM   24  C           1     -22.234  -4.227  -8.616  0.00  0.00     0.028 A 
HETATM   25  C           1     -23.294  -3.679  -9.299  0.00  0.00     0.114 A 
HETATM   26  N           1     -22.827  -3.461 -10.565  0.00  0.00    -0.360 N 
HETATM   27  C           1     -21.526  -3.876 -10.599  0.00  0.00     0.180 A 
HETATM   28  H           1     -23.367  -3.048 -11.364  0.00  0.00     0.166 HD
HETATM   29  N           1     -21.140  -4.345  -9.435  0.00  0.00    -0.354 N 
ATOM     30  HN          1     -20.223  -4.718  -9.191  1.00  0.00     0.166 HD
ENDBRANCH  23  24
ENDBRANCH  19  23
ENDBRANCH   2  19
TORSDOF 9
ENDMDL
MODEL 6
REMARK VINA RESULT:      -6.7     15.001     16.441
REMARK  9 active torsions:
REMARK  status: ('A' for Active; 'I' for Inactive)
REMARK    1  A    between atoms: C_3  and  C_13 
REMARK    2  A    between atoms: C_3  and  C_4 
REMARK    3  A    between atoms: C_3  and  N_21 
REMARK    4  A    between atoms: C_4  and  C_26 
REMARK    5  A    between atoms: O_5  and  C_10 
REMARK    6  A    between atoms: N_12  and  C_22 
REMARK    7  A    between atoms: C_14  and  C_22 
REMARK    8  A    between atoms: C_14  and  C_30 
REMARK       I    between atoms: C_20  and  N_21 
REMARK    9  A    between atoms: C_20  and  C_22 
ROOT
HETATM    1  C           1     -20.766  -7.838  -5.373  0.00  0.00     0.249 C 
HETATM    2  N           1     -19.829  -8.095  -4.409  0.00  0.00    -0.344 N 
HETATM    3  H           1     -19.482  -7.344  -3.827  0.00  0.00     0.163 HD
HETATM    4  O           1     -21.181  -8.734  -6.069  0.00  0.00    -0.271 OA
ENDROOT
BRANCH   1   5
HETATM    5  C           1     -21.281  -6.432  -5.569  0.00  0.00     0.278 C 
BRANCH   5   6
HETATM    6  N           1     -21.538  -5.804  -4.231  0.00  0.00    -0.066 N 
HETATM    7  H           1     -22.200  -6.402  -3.687  0.00  0.00     0.275 HD
HETATM    8  H           1     -20.639  -5.716  -3.708  0.00  0.00     0.275 HD
HETATM    9  H           1     -21.957  -4.856  -4.368  0.00  0.00     0.275 HD
ENDBRANCH   5   6
BRANCH   5  10
HETATM   10  C           1     -20.244  -5.612  -6.324  0.00  0.00     0.081 C 
BRANCH  10  11
HETATM   11  C           1     -20.877  -5.000  -7.536  0.00  0.00    -0.056 A 
HETATM   12  C           1     -20.123  -4.806  -8.693  0.00  0.00     0.010 A 
HETATM   13  C           1     -20.713  -4.237  -9.822  0.00  0.00     0.037 A 
HETATM   14  C           1     -22.056  -3.862  -9.794  0.00  0.00     0.065 A 
HETATM   15  C           1     -22.810  -4.057  -8.637  0.00  0.00     0.037 A 
HETATM   16  C           1     -22.220  -4.627  -7.507  0.00  0.00     0.010 A 
BRANCH  14  17
HETATM   17  O           1     -22.629  -3.309 -10.891  0.00  0.00    -0.361 OA
HETATM   18  H           1     -21.988  -3.355 -11.619  0.00  0.00     0.217 HD
ENDBRANCH  14  17
ENDBRANCH  10  11
ENDBRANCH   5  10
ENDBRANCH   1   5
BRANCH   2  19
HETATM   19  C           1     -19.336  -9.446  -4.221  0.00  0.00     0.191 C 
BRANCH  19  20
HETATM   20  C           1     -19.090  -9.693  -2.753  0.00  0.00     0.197 C 
HETATM   21  O           1     -18.091 -10.349  -2.389  0.00  0.00    -0.646 OA
HETATM   22  O           1     -19.887  -9.242  -1.902  0.00  0.00    -0.646 OA
ENDBRANCH  19  20
BRANCH  19  23
HETATM   23  C           1     -18.034  -9.622  -4.990  0.00  0.00     0.094 C 
BRANCH  23  24
HETATM   24  C           1     -18.161 -10.779  -5.931  0.00  0.00     0.028 A 
HETATM   25  C           1     -17.156 -11.675  -6.209  0.00  0.00     0.114 A 
HETATM   26  N           1     -17.700 -12.553  -7.104  0.00  0.00    -0.360 N 
HETATM   27  C           1     -18.990 -12.163  -7.328  0.00  0.00     0.180 A 
HETATM   28  H           1     -17.217 -13.377  -7.539  0.00  0.00     0.166 HD
HETATM   29  N           1     -19.297 -11.093  -6.632  0.00  0.00    -0.354 N 
ATOM     30  HN          1     -20.189 -10.600  -6.616  1.00  0.00     0.166 HD
ENDBRANCH  23  24
ENDBRANCH  19  23
ENDBRANCH   2  19
TORSDOF 9
ENDMDL
MODEL 7
REMARK VINA RESULT:      -6.4     15.180     16.610
REMARK  9 active torsions:
REMARK  status: ('A' for Active; 'I' for Inactive)
REMARK    1  A    between atoms: C_3  and  C_13 
REMARK    2  A    between atoms: C_3  and  C_4 
REMARK    3  A    between atoms: C_3  and  N_21 
REMARK    4  A    between atoms: C_4  and  C_26 
REMARK    5  A    between atoms: O_5  and  C_10 
REMARK    6  A    between atoms: N_12  and  C_22 
REMARK    7  A    between atoms: C_14  and  C_22 
REMARK    8  A    between atoms: C_14  and  C_30 
REMARK       I    between atoms: C_20  and  N_21 
REMARK    9  A    between atoms: C_20  and  C_22 
ROOT
HETATM    1  C           1     -20.618  -7.631  -5.358  0.00  0.00     0.249 C 
HETATM    2  N           1     -20.924  -8.493  -4.340  0.00  0.00    -0.344 N 
HETATM    3  H           1     -21.758  -8.347  -3.787  0.00  0.00     0.163 HD
HETATM    4  O           1     -19.621  -7.803  -6.019  0.00  0.00    -0.271 OA
ENDROOT
BRANCH   1   5
HETATM    5  C           1     -21.525  -6.461  -5.656  0.00  0.00     0.278 C 
BRANCH   5   6
HETATM    6  N           1     -22.354  -6.152  -4.443  0.00  0.00    -0.066 N 
HETATM    7  H           1     -22.881  -7.006  -4.154  0.00  0.00     0.275 HD
HETATM    8  H           1     -21.730  -5.847  -3.664  0.00  0.00     0.275 HD
HETATM    9  H           1     -23.028  -5.387  -4.670  0.00  0.00     0.275 HD
ENDBRANCH   5   6
BRANCH   5  10
HETATM   10  C           1     -20.686  -5.246  -6.021  0.00  0.00     0.081 C 
BRANCH  10  11
HETATM   11  C           1     -21.083  -4.753  -7.378  0.00  0.00    -0.056 A 
HETATM   12  C           1     -22.382  -4.298  -7.602  0.00  0.00     0.010 A 
HETATM   13  C           1     -22.752  -3.840  -8.866  0.00  0.00     0.037 A 
HETATM   14  C           1     -21.823  -3.836  -9.907  0.00  0.00     0.065 A 
HETATM   15  C           1     -20.523  -4.290  -9.683  0.00  0.00     0.037 A 
HETATM   16  C           1     -20.153  -4.749  -8.417  0.00  0.00     0.010 A 
BRANCH  14  17
HETATM   17  O           1     -22.182  -3.389 -11.135  0.00  0.00    -0.361 OA
HETATM   18  H           1     -23.077  -3.018 -11.069  0.00  0.00     0.217 HD
ENDBRANCH  14  17
ENDBRANCH  10  11
ENDBRANCH   5  10
ENDBRANCH   1   5
BRANCH   2  19
HETATM   19  C           1     -20.052  -9.615  -4.055  0.00  0.00     0.191 C 
BRANCH  19  20
HETATM   20  C           1     -20.807 -10.905  -4.264  0.00  0.00     0.197 C 
HETATM   21  O           1     -22.051 -10.926  -4.151  0.00  0.00    -0.646 OA
HETATM   22  O           1     -20.186 -11.953  -4.548  0.00  0.00    -0.646 OA
ENDBRANCH  19  20
BRANCH  19  23
HETATM   23  C           1     -19.575  -9.535  -2.612  0.00  0.00     0.094 C 
BRANCH  23  24
HETATM   24  C           1     -18.151  -9.989  -2.529  0.00  0.00     0.028 A 
HETATM   25  C           1     -17.738 -11.165  -1.949  0.00  0.00     0.114 A 
HETATM   26  N           1     -16.379 -11.174  -2.096  0.00  0.00    -0.360 N 
HETATM   27  C           1     -16.029 -10.026  -2.748  0.00  0.00     0.180 A 
HETATM   28  H           1     -15.724 -11.927  -1.770  0.00  0.00     0.166 HD
HETATM   29  N           1     -17.080  -9.289  -3.022  0.00  0.00    -0.354 N 
ATOM     30  HN          1     -17.097  -8.388  -3.500  1.00  0.00     0.166 HD
ENDBRANCH  23  24
ENDBRANCH  19  23
ENDBRANCH   2  19
TORSDOF 9
ENDMDL
MODEL 8
REMARK VINA RESULT:      -6.4     14.410     15.796
REMARK  9 active torsions:
REMARK  status: ('A' for Active; 'I' for Inactive)
REMARK    1  A    between atoms: C_3  and  C_13 
REMARK    2  A    between atoms: C_3  and  C_4 
REMARK    3  A    between atoms: C_3  and  N_21 
REMARK    4  A    between atoms: C_4  and  C_26 
REMARK    5  A    between atoms: O_5  and  C_10 
REMARK    6  A    between atoms: N_12  and  C_22 
REMARK    7  A    between atoms: C_14  and  C_22 
REMARK    8  A    between atoms: C_14  and  C_30 
REMARK       I    between atoms: C_20  and  N_21 
REMARK    9  A    between atoms: C_20  and  C_22 
ROOT
HETATM    1  C           1     -21.159  -7.037  -4.417  0.00  0.00     0.249 C 
HETATM    2  N           1     -20.729  -7.196  -3.127  0.00  0.00    -0.344 N 
HETATM    3  H           1     -19.809  -6.873  -2.857  0.00  0.00     0.163 HD
HETATM    4  O           1     -22.257  -7.424  -4.740  0.00  0.00    -0.271 OA
ENDROOT
BRANCH   1   5
HETATM    5  C           1     -20.261  -6.382  -5.437  0.00  0.00     0.278 C 
BRANCH   5   6
HETATM    6  N           1     -20.488  -7.011  -6.780  0.00  0.00    -0.066 N 
HETATM    7  H           1     -21.513  -7.128  -6.941  0.00  0.00     0.275 HD
HETATM    8  H           1     -20.086  -6.400  -7.524  0.00  0.00     0.275 HD
HETATM    9  H           1     -20.023  -7.947  -6.807  0.00  0.00     0.275 HD
ENDBRANCH   5   6
BRANCH   5  10
HETATM   10  C           1     -20.578  -4.895  -5.514  0.00  0.00     0.081 C 
BRANCH  10  11
HETATM   11  C           1     -20.942  -4.533  -6.921  0.00  0.00    -0.056 A 
HETATM   12  C           1     -22.281  -4.372  -7.275  0.00  0.00     0.010 A 
HETATM   13  C           1     -22.620  -4.035  -8.585  0.00  0.00     0.037 A 
HETATM   14  C           1     -21.619  -3.859  -9.542  0.00  0.00     0.065 A 
HETATM   15  C           1     -20.280  -4.019  -9.187  0.00  0.00     0.037 A 
HETATM   16  C           1     -19.941  -4.357  -7.875  0.00  0.00     0.010 A 
BRANCH  14  17
HETATM   17  O           1     -21.948  -3.531 -10.815  0.00  0.00    -0.361 OA
HETATM   18  H           1     -21.503  -4.156 -11.410  0.00  0.00     0.217 HD
ENDBRANCH  14  17
ENDBRANCH  10  11
ENDBRANCH   5  10
ENDBRANCH   1   5
BRANCH   2  19
HETATM   19  C           1     -21.593  -7.826  -2.148  0.00  0.00     0.191 C 
BRANCH  19  20
HETATM   20  C           1     -22.324  -6.764  -1.364  0.00  0.00     0.197 C 
HETATM   21  O           1     -22.959  -7.074  -0.333  0.00  0.00    -0.646 OA
HETATM   22  O           1     -22.296  -5.574  -1.747  0.00  0.00    -0.646 OA
ENDBRANCH  19  20
BRANCH  19  23
HETATM   23  C           1     -20.753  -8.669  -1.198  0.00  0.00     0.094 C 
BRANCH  23  24
HETATM   24  C           1     -21.472  -9.945  -0.893  0.00  0.00     0.028 A 
HETATM   25  C           1     -21.156 -10.793   0.142  0.00  0.00     0.114 A 
HETATM   26  N           1     -22.056 -11.818   0.049  0.00  0.00    -0.360 N 
HETATM   27  C           1     -22.868 -11.555  -1.017  0.00  0.00     0.180 A 
HETATM   28  H           1     -22.115 -12.653   0.682  0.00  0.00     0.166 HD
HETATM   29  N           1     -22.538 -10.429  -1.607  0.00  0.00    -0.354 N 
ATOM     30  HN          1     -22.980 -10.005  -2.422  1.00  0.00     0.166 HD
ENDBRANCH  23  24
ENDBRANCH  19  23
ENDBRANCH   2  19
TORSDOF 9
ENDMDL
MODEL 9
REMARK VINA RESULT:      -6.4      5.167      7.873
REMARK  9 active torsions:
REMARK  status: ('A' for Active; 'I' for Inactive)
REMARK    1  A    between atoms: C_3  and  C_13 
REMARK    2  A    between atoms: C_3  and  C_4 
REMARK    3  A    between atoms: C_3  and  N_21 
REMARK    4  A    between atoms: C_4  and  C_26 
REMARK    5  A    between atoms: O_5  and  C_10 
REMARK    6  A    between atoms: N_12  and  C_22 
REMARK    7  A    between atoms: C_14  and  C_22 
REMARK    8  A    between atoms: C_14  and  C_30 
REMARK       I    between atoms: C_20  and  N_21 
REMARK    9  A    between atoms: C_20  and  C_22 
ROOT
HETATM    1  C           1     -26.258  -6.092 -17.328  0.00  0.00     0.249 C 
HETATM    2  N           1     -27.536  -6.544 -17.517  0.00  0.00    -0.344 N 
HETATM    3  H           1     -27.726  -7.243 -18.224  0.00  0.00     0.163 HD
HETATM    4  O           1     -26.030  -5.257 -16.485  0.00  0.00    -0.271 OA
ENDROOT
BRANCH   1   5
HETATM    5  C           1     -25.132  -6.634 -18.175  0.00  0.00     0.278 C 
BRANCH   5   6
HETATM    6  N           1     -24.524  -7.825 -17.495  0.00  0.00    -0.066 N 
HETATM    7  H           1     -23.551  -7.595 -17.194  0.00  0.00     0.275 HD
HETATM    8  H           1     -25.096  -8.078 -16.658  0.00  0.00     0.275 HD
HETATM    9  H           1     -24.502  -8.631 -18.159  0.00  0.00     0.275 HD
ENDBRANCH   5   6
BRANCH   5  10
HETATM   10  C           1     -25.673  -7.048 -19.536  0.00  0.00     0.081 C 
BRANCH  10  11
HETATM   11  C           1     -24.550  -7.556 -20.387  0.00  0.00    -0.056 A 
HETATM   12  C           1     -24.744  -7.749 -21.755  0.00  0.00     0.010 A 
HETATM   13  C           1     -23.698  -8.222 -22.547  0.00  0.00     0.037 A 
HETATM   14  C           1     -22.458  -8.500 -21.973  0.00  0.00     0.065 A 
HETATM   15  C           1     -22.264  -8.306 -20.605  0.00  0.00     0.037 A 
HETATM   16  C           1     -23.311  -7.833 -19.812  0.00  0.00     0.010 A 
BRANCH  14  17
HETATM   17  O           1     -21.442  -8.959 -22.743  0.00  0.00    -0.361 OA
HETATM   18  H           1     -20.623  -8.526 -22.448  0.00  0.00     0.217 HD
ENDBRANCH  14  17
ENDBRANCH  10  11
ENDBRANCH   5  10
ENDBRANCH   1   5
BRANCH   2  19
HETATM   19  C           1     -28.616  -6.023 -16.703  0.00  0.00     0.191 C 
BRANCH  19  20
HETATM   20  C           1     -28.530  -6.610 -15.315  0.00  0.00     0.197 C 
HETATM   21  O           1     -29.093  -6.037 -14.358  0.00  0.00    -0.646 OA
HETATM   22  O           1     -27.894  -7.669 -15.124  0.00  0.00    -0.646 OA
ENDBRANCH  19  20
BRANCH  19  23
HETATM   23  C           1     -29.951  -6.399 -17.330  0.00  0.00     0.094 C 
BRANCH  23  24
HETATM   24  C           1     -30.884  -5.231 -17.260  0.00  0.00     0.028 A 
HETATM   25  C           1     -30.567  -3.953 -17.655  0.00  0.00     0.114 A 
HETATM   26  N           1     -31.696  -3.218 -17.419  0.00  0.00    -0.360 N 
HETATM   27  C           1     -32.635  -4.064 -16.902  0.00  0.00     0.180 A 
HETATM   28  H           1     -31.819  -2.192 -17.604  0.00  0.00     0.166 HD
HETATM   29  N           1     -32.172  -5.288 -16.794  0.00  0.00    -0.354 N 
ATOM     30  HN          1     -32.665  -6.107 -16.438  1.00  0.00     0.166 HD
ENDBRANCH  23  24
ENDBRANCH  19  23
ENDBRANCH   2  19
TORSDOF 9
ENDMDL
