MODEL 1
REMARK VINA RESULT:      -6.6      0.000      0.000
REMARK  8 active torsions:
REMARK  status: ('A' for Active; 'I' for Inactive)
REMARK    1  A    between atoms: C_1  and  C_7 
REMARK    2  A    between atoms: C_1  and  C_9 
REMARK    3  A    between atoms: C_6  and  C_9 
REMARK    4  A    between atoms: C_6  and  N_12 
REMARK    5  A    between atoms: C_7  and  C_20 
REMARK       I    between atoms: N_11  and  C_21 
REMARK    6  A    between atoms: N_18  and  C_20 
REMARK    7  A    between atoms: C_19  and  C_22 
REMARK    8  A    between atoms: C_20  and  C_21 
ROOT
HETATM    1  C           1     -34.519  -2.200 -11.479  0.00  0.00     0.275 C 
ENDROOT
BRANCH   1   2
HETATM    2  C           1     -33.408  -3.238 -11.393  0.00  0.00     0.042 C 
BRANCH   2   3
HETATM    3  C           1     -33.824  -4.351 -10.441  0.00  0.00     0.004 C 
BRANCH   3   4
HETATM    4  C           1     -33.753  -5.691 -11.161  0.00  0.00     0.027 C 
BRANCH   4   5
HETATM    5  C           1     -34.586  -6.719 -10.406  0.00  0.00     0.229 C 
BRANCH   5   6
HETATM    6  N           1     -33.928  -8.063 -10.501  0.00  0.00    -0.079 N 
HETATM    7  H           1     -34.520  -8.701 -11.079  0.00  0.00     0.274 HD
HETATM    8  H           1     -33.816  -8.465  -9.543  0.00  0.00     0.274 HD
HETATM    9  H           1     -32.989  -7.960 -10.948  0.00  0.00     0.274 HD
ENDBRANCH   5   6
ENDBRANCH   4   5
ENDBRANCH   3   4
ENDBRANCH   2   3
ENDBRANCH   1   2
BRANCH   1  10
HETATM   10  N           1     -35.709  -2.677 -10.700  0.00  0.00    -0.067 N 
HETATM   11  H           1     -35.409  -3.416 -10.025  0.00  0.00     0.275 HD
HETATM   12  H           1     -36.128  -1.875 -10.177  0.00  0.00     0.275 HD
HETATM   13  H           1     -36.420  -3.073 -11.356  0.00  0.00     0.275 HD
ENDBRANCH   1  10
BRANCH   1  14
HETATM   14  C           1     -34.912  -2.001 -12.923  0.00  0.00     0.251 C 
HETATM   15  N           1     -35.775  -0.995 -13.266  0.00  0.00    -0.336 N 
HETATM   16  C           1     -36.261  -0.657 -14.599  0.00  0.00     0.188 C 
HETATM   17  C           1     -36.409  -0.027 -12.376  0.00  0.00     0.127 C 
HETATM   18  C           1     -37.728  -0.330 -14.377  0.00  0.00     0.038 C 
HETATM   19  C           1     -37.824   0.089 -12.915  0.00  0.00     0.022 C 
HETATM   20  O           1     -34.463  -2.729 -13.776  0.00  0.00    -0.271 OA
BRANCH  16  21
HETATM   21  C           1     -35.523   0.537 -15.154  0.00  0.00     0.196 C 
HETATM   22  O           1     -36.112   1.341 -15.908  0.00  0.00    -0.646 OA
HETATM   23  O           1     -34.322   0.721 -14.859  0.00  0.00    -0.646 OA
ENDBRANCH  16  21
ENDBRANCH   1  14
TORSDOF 8
ENDMDL
MODEL 2
REMARK VINA RESULT:      -6.4     13.073     15.012
REMARK  8 active torsions:
REMARK  status: ('A' for Active; 'I' for Inactive)
REMARK    1  A    between atoms: C_1  and  C_7 
REMARK    2  A    between atoms: C_1  and  C_9 
REMARK    3  A    between atoms: C_6  and  C_9 
REMARK    4  A    between atoms: C_6  and  N_12 
REMARK    5  A    between atoms: C_7  and  C_20 
REMARK       I    between atoms: N_11  and  C_21 
REMARK    6  A    between atoms: N_18  and  C_20 
REMARK    7  A    between atoms: C_19  and  C_22 
REMARK    8  A    between atoms: C_20  and  C_21 
ROOT
HETATM    1  C           1     -20.307  -5.143  -7.351  0.00  0.00     0.275 C 
ENDROOT
BRANCH   1   2
HETATM    2  C           1     -20.663  -5.317  -5.880  0.00  0.00     0.042 C 
BRANCH   2   3
HETATM    3  C           1     -21.064  -6.763  -5.622  0.00  0.00     0.004 C 
BRANCH   3   4
HETATM    4  C           1     -22.095  -6.814  -4.503  0.00  0.00     0.027 C 
BRANCH   4   5
HETATM    5  C           1     -21.417  -6.517  -3.172  0.00  0.00     0.229 C 
BRANCH   5   6
HETATM    6  N           1     -22.400  -5.869  -2.242  0.00  0.00    -0.079 N 
HETATM    7  H           1     -21.892  -5.238  -1.583  0.00  0.00     0.274 HD
HETATM    8  H           1     -22.904  -6.607  -1.700  0.00  0.00     0.274 HD
HETATM    9  H           1     -23.088  -5.312  -2.797  0.00  0.00     0.274 HD
ENDBRANCH   5   6
ENDBRANCH   4   5
ENDBRANCH   3   4
ENDBRANCH   2   3
ENDBRANCH   1   2
BRANCH   1  10
HETATM   10  N           1     -19.024  -4.374  -7.466  0.00  0.00    -0.067 N 
HETATM   11  H           1     -18.343  -4.726  -6.755  0.00  0.00     0.275 HD
HETATM   12  H           1     -18.626  -4.501  -8.424  0.00  0.00     0.275 HD
HETATM   13  H           1     -19.209  -3.359  -7.299  0.00  0.00     0.275 HD
ENDBRANCH   1  10
BRANCH   1  14
HETATM   14  C           1     -21.410  -4.386  -8.049  0.00  0.00     0.251 C 
HETATM   15  N           1     -21.416  -4.288  -9.415  0.00  0.00    -0.336 N 
HETATM   16  C           1     -22.394  -3.602 -10.253  0.00  0.00     0.188 C 
HETATM   17  C           1     -20.444  -4.848 -10.350  0.00  0.00     0.127 C 
HETATM   18  C           1     -21.547  -2.931 -11.321  0.00  0.00     0.038 C 
HETATM   19  C           1     -20.266  -3.754 -11.387  0.00  0.00     0.022 C 
HETATM   20  O           1     -22.289  -3.866  -7.403  0.00  0.00    -0.271 OA
BRANCH  16  21
HETATM   21  C           1     -23.356  -4.587 -10.872  0.00  0.00     0.196 C 
HETATM   22  O           1     -24.000  -5.374 -10.144  0.00  0.00    -0.646 OA
HETATM   23  O           1     -23.509  -4.615 -12.112  0.00  0.00    -0.646 OA
ENDBRANCH  16  21
ENDBRANCH   1  14
TORSDOF 8
ENDMDL
MODEL 3
REMARK VINA RESULT:      -5.8     14.935     17.875
REMARK  8 active torsions:
REMARK  status: ('A' for Active; 'I' for Inactive)
REMARK    1  A    between atoms: C_1  and  C_7 
REMARK    2  A    between atoms: C_1  and  C_9 
REMARK    3  A    between atoms: C_6  and  C_9 
REMARK    4  A    between atoms: C_6  and  N_12 
REMARK    5  A    between atoms: C_7  and  C_20 
REMARK       I    between atoms: N_11  and  C_21 
REMARK    6  A    between atoms: N_18  and  C_20 
REMARK    7  A    between atoms: C_19  and  C_22 
REMARK    8  A    between atoms: C_20  and  C_21 
ROOT
HETATM    1  C           1     -20.338  -6.310  -5.388  0.00  0.00     0.275 C 
ENDROOT
BRANCH   1   2
HETATM    2  C           1     -20.344  -4.792  -5.514  0.00  0.00     0.042 C 
BRANCH   2   3
HETATM    3  C           1     -20.287  -4.404  -6.985  0.00  0.00     0.004 C 
BRANCH   3   4
HETATM    4  C           1     -21.449  -3.474  -7.311  0.00  0.00     0.027 C 
BRANCH   4   5
HETATM    5  C           1     -22.600  -4.284  -7.892  0.00  0.00     0.229 C 
BRANCH   5   6
HETATM    6  N           1     -23.645  -4.496  -6.838  0.00  0.00    -0.079 N 
HETATM    7  H           1     -23.569  -3.746  -6.115  0.00  0.00     0.274 HD
HETATM    8  H           1     -23.501  -5.429  -6.388  0.00  0.00     0.274 HD
HETATM    9  H           1     -24.593  -4.463  -7.276  0.00  0.00     0.274 HD
ENDBRANCH   5   6
ENDBRANCH   4   5
ENDBRANCH   3   4
ENDBRANCH   2   3
ENDBRANCH   1   2
BRANCH   1  10
HETATM   10  N           1     -20.542  -6.924  -6.741  0.00  0.00    -0.067 N 
HETATM   11  H           1     -19.613  -7.131  -7.173  0.00  0.00     0.275 HD
HETATM   12  H           1     -21.087  -7.810  -6.644  0.00  0.00     0.275 HD
HETATM   13  H           1     -21.068  -6.258  -7.351  0.00  0.00     0.275 HD
ENDBRANCH   1  10
BRANCH   1  14
HETATM   14  C           1     -21.453  -6.744  -4.467  0.00  0.00     0.251 C 
HETATM   15  N           1     -21.189  -7.586  -3.421  0.00  0.00    -0.336 N 
HETATM   16  C           1     -22.134  -8.105  -2.437  0.00  0.00     0.188 C 
HETATM   17  C           1     -19.900  -8.161  -3.047  0.00  0.00     0.127 C 
HETATM   18  C           1     -21.711  -9.553  -2.258  0.00  0.00     0.038 C 
HETATM   19  C           1     -20.240  -9.588  -2.655  0.00  0.00     0.022 C 
HETATM   20  O           1     -22.579  -6.346  -4.654  0.00  0.00    -0.271 OA
BRANCH  16  21
HETATM   21  C           1     -22.024  -7.349  -1.136  0.00  0.00     0.196 C 
HETATM   22  O           1     -22.330  -6.138  -1.088  0.00  0.00    -0.646 OA
HETATM   23  O           1     -21.626  -7.935  -0.106  0.00  0.00    -0.646 OA
ENDBRANCH  16  21
ENDBRANCH   1  14
TORSDOF 8
ENDMDL
MODEL 4
REMARK VINA RESULT:      -5.8     13.834     16.650
REMARK  8 active torsions:
REMARK  status: ('A' for Active; 'I' for Inactive)
REMARK    1  A    between atoms: C_1  and  C_7 
REMARK    2  A    between atoms: C_1  and  C_9 
REMARK    3  A    between atoms: C_6  and  C_9 
REMARK    4  A    between atoms: C_6  and  N_12 
REMARK    5  A    between atoms: C_7  and  C_20 
REMARK       I    between atoms: N_11  and  C_21 
REMARK    6  A    between atoms: N_18  and  C_20 
REMARK    7  A    between atoms: C_19  and  C_22 
REMARK    8  A    between atoms: C_20  and  C_21 
ROOT
HETATM    1  C           1     -21.496  -5.127  -7.268  0.00  0.00     0.275 C 
ENDROOT
BRANCH   1   2
HETATM    2  C           1     -21.243  -5.175  -8.769  0.00  0.00     0.042 C 
BRANCH   2   3
HETATM    3  C           1     -21.954  -4.009  -9.442  0.00  0.00     0.004 C 
BRANCH   3   4
HETATM    4  C           1     -22.974  -4.543 -10.440  0.00  0.00     0.027 C 
BRANCH   4   5
HETATM    5  C           1     -24.285  -3.784 -10.282  0.00  0.00     0.229 C 
BRANCH   5   6
HETATM    6  N           1     -24.482  -3.420  -8.840  0.00  0.00    -0.079 N 
HETATM    7  H           1     -25.502  -3.306  -8.645  0.00  0.00     0.274 HD
HETATM    8  H           1     -23.986  -2.522  -8.636  0.00  0.00     0.274 HD
HETATM    9  H           1     -24.094  -4.178  -8.233  0.00  0.00     0.274 HD
ENDBRANCH   5   6
ENDBRANCH   4   5
ENDBRANCH   3   4
ENDBRANCH   2   3
ENDBRANCH   1   2
BRANCH   1  10
HETATM   10  N           1     -21.102  -3.781  -6.738  0.00  0.00    -0.067 N 
HETATM   11  H           1     -20.085  -3.619  -6.922  0.00  0.00     0.275 HD
HETATM   12  H           1     -21.665  -3.040  -7.213  0.00  0.00     0.275 HD
HETATM   13  H           1     -21.279  -3.746  -5.708  0.00  0.00     0.275 HD
ENDBRANCH   1  10
BRANCH   1  14
HETATM   14  C           1     -20.676  -6.195  -6.585  0.00  0.00     0.251 C 
HETATM   15  N           1     -21.136  -6.784  -5.438  0.00  0.00    -0.336 N 
HETATM   16  C           1     -20.484  -7.824  -4.649  0.00  0.00     0.188 C 
HETATM   17  C           1     -22.387  -6.506  -4.737  0.00  0.00     0.127 C 
HETATM   18  C           1     -20.741  -7.402  -3.212  0.00  0.00     0.038 C 
HETATM   19  C           1     -21.996  -6.540  -3.270  0.00  0.00     0.022 C 
HETATM   20  O           1     -19.613  -6.531  -7.052  0.00  0.00    -0.271 OA
BRANCH  16  21
HETATM   21  C           1     -21.096  -9.175  -4.930  0.00  0.00     0.196 C 
HETATM   22  O           1     -21.604  -9.836  -3.999  0.00  0.00    -0.646 OA
HETATM   23  O           1     -21.094  -9.631  -6.093  0.00  0.00    -0.646 OA
ENDBRANCH  16  21
ENDBRANCH   1  14
TORSDOF 8
ENDMDL
MODEL 5
REMARK VINA RESULT:      -5.5     14.766     17.002
REMARK  8 active torsions:
REMARK  status: ('A' for Active; 'I' for Inactive)
REMARK    1  A    between atoms: C_1  and  C_7 
REMARK    2  A    between atoms: C_1  and  C_9 
REMARK    3  A    between atoms: C_6  and  C_9 
REMARK    4  A    between atoms: C_6  and  N_12 
REMARK    5  A    between atoms: C_7  and  C_20 
REMARK       I    between atoms: N_11  and  C_21 
REMARK    6  A    between atoms: N_18  and  C_20 
REMARK    7  A    between atoms: C_19  and  C_22 
REMARK    8  A    between atoms: C_20  and  C_21 
ROOT
HETATM    1  C           1     -21.509  -5.090  -7.093  0.00  0.00     0.275 C 
ENDROOT
BRANCH   1   2
HETATM    2  C           1     -21.490  -5.213  -8.611  0.00  0.00     0.042 C 
BRANCH   2   3
HETATM    3  C           1     -22.681  -4.465  -9.196  0.00  0.00     0.004 C 
BRANCH   3   4
HETATM    4  C           1     -22.387  -4.095 -10.644  0.00  0.00     0.027 C 
BRANCH   4   5
HETATM    5  C           1     -20.890  -4.197 -10.901  0.00  0.00     0.229 C 
BRANCH   5   6
HETATM    6  N           1     -20.409  -2.940 -11.563  0.00  0.00    -0.079 N 
HETATM    7  H           1     -20.125  -3.150 -12.546  0.00  0.00     0.274 HD
HETATM    8  H           1     -19.588  -2.561 -11.037  0.00  0.00     0.274 HD
HETATM    9  H           1     -21.178  -2.232 -11.567  0.00  0.00     0.274 HD
ENDBRANCH   5   6
ENDBRANCH   4   5
ENDBRANCH   3   4
ENDBRANCH   2   3
ENDBRANCH   1   2
BRANCH   1  10
HETATM   10  N           1     -20.931  -3.766  -6.691  0.00  0.00    -0.067 N 
HETATM   11  H           1     -21.373  -3.450  -5.798  0.00  0.00     0.275 HD
HETATM   12  H           1     -19.900  -3.862  -6.555  0.00  0.00     0.275 HD
HETATM   13  H           1     -21.118  -3.062  -7.441  0.00  0.00     0.275 HD
ENDBRANCH   1  10
BRANCH   1  14
HETATM   14  C           1     -20.686  -6.201  -6.487  0.00  0.00     0.251 C 
HETATM   15  N           1     -21.105  -6.816  -5.338  0.00  0.00    -0.336 N 
HETATM   16  C           1     -20.442  -7.899  -4.618  0.00  0.00     0.188 C 
HETATM   17  C           1     -22.311  -6.531  -4.567  0.00  0.00     0.127 C 
HETATM   18  C           1     -20.616  -7.521  -3.157  0.00  0.00     0.038 C 
HETATM   19  C           1     -21.848  -6.625  -3.123  0.00  0.00     0.022 C 
HETATM   20  O           1     -19.657  -6.548  -7.018  0.00  0.00    -0.271 OA
BRANCH  16  21
HETATM   21  C           1     -21.104  -9.224  -4.911  0.00  0.00     0.196 C 
HETATM   22  O           1     -21.140  -9.659  -6.083  0.00  0.00    -0.646 OA
HETATM   23  O           1     -21.617  -9.884  -3.983  0.00  0.00    -0.646 OA
ENDBRANCH  16  21
ENDBRANCH   1  14
TORSDOF 8
ENDMDL
MODEL 6
REMARK VINA RESULT:      -5.4     15.912     18.963
REMARK  8 active torsions:
REMARK  status: ('A' for Active; 'I' for Inactive)
REMARK    1  A    between atoms: C_1  and  C_7 
REMARK    2  A    between atoms: C_1  and  C_9 
REMARK    3  A    between atoms: C_6  and  C_9 
REMARK    4  A    between atoms: C_6  and  N_12 
REMARK    5  A    between atoms: C_7  and  C_20 
REMARK       I    between atoms: N_11  and  C_21 
REMARK    6  A    between atoms: N_18  and  C_20 
REMARK    7  A    between atoms: C_19  and  C_22 
REMARK    8  A    between atoms: C_20  and  C_21 
ROOT
HETATM    1  C           1     -21.933  -6.733  -2.929  0.00  0.00     0.275 C 
ENDROOT
BRANCH   1   2
HETATM    2  C           1     -21.195  -6.275  -4.181  0.00  0.00     0.042 C 
BRANCH   2   3
HETATM    3  C           1     -22.176  -6.172  -5.340  0.00  0.00     0.004 C 
BRANCH   3   4
HETATM    4  C           1     -21.437  -5.726  -6.595  0.00  0.00     0.027 C 
BRANCH   4   5
HETATM    5  C           1     -22.075  -4.454  -7.136  0.00  0.00     0.229 C 
BRANCH   5   6
HETATM    6  N           1     -23.556  -4.499  -6.905  0.00  0.00    -0.079 N 
HETATM    7  H           1     -23.828  -3.743  -6.238  0.00  0.00     0.274 HD
HETATM    8  H           1     -23.818  -5.428  -6.503  0.00  0.00     0.274 HD
HETATM    9  H           1     -24.054  -4.358  -7.813  0.00  0.00     0.274 HD
ENDBRANCH   5   6
ENDBRANCH   4   5
ENDBRANCH   3   4
ENDBRANCH   2   3
ENDBRANCH   1   2
BRANCH   1  10
HETATM   10  N           1     -22.076  -5.577  -1.984  0.00  0.00    -0.067 N 
HETATM   11  H           1     -21.705  -5.848  -1.045  0.00  0.00     0.275 HD
HETATM   12  H           1     -21.539  -4.758  -2.349  0.00  0.00     0.275 HD
HETATM   13  H           1     -23.086  -5.320  -1.898  0.00  0.00     0.275 HD
ENDBRANCH   1  10
BRANCH   1  14
HETATM   14  C           1     -21.150  -7.836  -2.258  0.00  0.00     0.251 C 
HETATM   15  N           1     -21.571  -8.342  -1.058  0.00  0.00    -0.336 N 
HETATM   16  C           1     -20.946  -9.400  -0.272  0.00  0.00     0.188 C 
HETATM   17  C           1     -22.744  -7.941  -0.287  0.00  0.00     0.127 C 
HETATM   18  C           1     -21.067  -8.906   1.160  0.00  0.00     0.038 C 
HETATM   19  C           1     -22.254  -7.950   1.150  0.00  0.00     0.022 C 
HETATM   20  O           1     -20.152  -8.271  -2.781  0.00  0.00    -0.271 OA
BRANCH  16  21
HETATM   21  C           1     -21.677 -10.708  -0.452  0.00  0.00     0.196 C 
HETATM   22  O           1     -22.025 -11.078  -1.594  0.00  0.00    -0.646 OA
HETATM   23  O           1     -21.936 -11.421   0.542  0.00  0.00    -0.646 OA
ENDBRANCH  16  21
ENDBRANCH   1  14
TORSDOF 8
ENDMDL
MODEL 7
REMARK VINA RESULT:      -5.4     14.688     16.486
REMARK  8 active torsions:
REMARK  status: ('A' for Active; 'I' for Inactive)
REMARK    1  A    between atoms: C_1  and  C_7 
REMARK    2  A    between atoms: C_1  and  C_9 
REMARK    3  A    between atoms: C_6  and  C_9 
REMARK    4  A    between atoms: C_6  and  N_12 
REMARK    5  A    between atoms: C_7  and  C_20 
REMARK       I    between atoms: N_11  and  C_21 
REMARK    6  A    between atoms: N_18  and  C_20 
REMARK    7  A    between atoms: C_19  and  C_22 
REMARK    8  A    between atoms: C_20  and  C_21 
ROOT
HETATM    1  C           1     -21.892  -6.863  -4.802  0.00  0.00     0.275 C 
ENDROOT
BRANCH   1   2
HETATM    2  C           1     -21.254  -6.080  -3.661  0.00  0.00     0.042 C 
BRANCH   2   3
HETATM    3  C           1     -21.209  -6.947  -2.411  0.00  0.00     0.004 C 
BRANCH   3   4
HETATM    4  C           1     -22.267  -6.472  -1.424  0.00  0.00     0.027 C 
BRANCH   4   5
HETATM    5  C           1     -22.397  -7.483  -0.292  0.00  0.00     0.229 C 
BRANCH   5   6
HETATM    6  N           1     -22.327  -8.873  -0.851  0.00  0.00    -0.079 N 
HETATM    7  H           1     -23.139  -9.430  -0.504  0.00  0.00     0.274 HD
HETATM    8  H           1     -21.436  -9.327  -0.545  0.00  0.00     0.274 HD
HETATM    9  H           1     -22.355  -8.830  -1.895  0.00  0.00     0.274 HD
ENDBRANCH   5   6
ENDBRANCH   4   5
ENDBRANCH   3   4
ENDBRANCH   2   3
ENDBRANCH   1   2
BRANCH   1  10
HETATM   10  N           1     -21.978  -8.312  -4.425  0.00  0.00    -0.067 N 
HETATM   11  H           1     -22.141  -8.394  -3.396  0.00  0.00     0.275 HD
HETATM   12  H           1     -22.769  -8.760  -4.941  0.00  0.00     0.275 HD
HETATM   13  H           1     -21.084  -8.791  -4.676  0.00  0.00     0.275 HD
ENDBRANCH   1  10
BRANCH   1  14
HETATM   14  C           1     -21.049  -6.717  -6.046  0.00  0.00     0.251 C 
HETATM   15  N           1     -21.254  -5.660  -6.892  0.00  0.00    -0.336 N 
HETATM   16  C           1     -20.540  -5.361  -8.129  0.00  0.00     0.188 C 
HETATM   17  C           1     -22.234  -4.587  -6.752  0.00  0.00     0.127 C 
HETATM   18  C           1     -21.634  -4.891  -9.073  0.00  0.00     0.038 C 
HETATM   19  C           1     -22.746  -4.378  -8.167  0.00  0.00     0.022 C 
HETATM   20  O           1     -20.193  -7.533  -6.294  0.00  0.00    -0.271 OA
BRANCH  16  21
HETATM   21  C           1     -19.517  -4.274  -7.910  0.00  0.00     0.196 C 
HETATM   22  O           1     -18.608  -4.430  -7.066  0.00  0.00    -0.646 OA
HETATM   23  O           1     -19.578  -3.216  -8.573  0.00  0.00    -0.646 OA
ENDBRANCH  16  21
ENDBRANCH   1  14
TORSDOF 8
ENDMDL
MODEL 8
REMARK VINA RESULT:      -5.3     17.975     20.578
REMARK  8 active torsions:
REMARK  status: ('A' for Active; 'I' for Inactive)
REMARK    1  A    between atoms: C_1  and  C_7 
REMARK    2  A    between atoms: C_1  and  C_9 
REMARK    3  A    between atoms: C_6  and  C_9 
REMARK    4  A    between atoms: C_6  and  N_12 
REMARK    5  A    between atoms: C_7  and  C_20 
REMARK       I    between atoms: N_11  and  C_21 
REMARK    6  A    between atoms: N_18  and  C_20 
REMARK    7  A    between atoms: C_19  and  C_22 
REMARK    8  A    between atoms: C_20  and  C_21 
ROOT
HETATM    1  C           1     -22.521  -8.732  -0.392  0.00  0.00     0.275 C 
ENDROOT
BRANCH   1   2
HETATM    2  C           1     -21.515  -7.786  -1.034  0.00  0.00     0.042 C 
BRANCH   2   3
HETATM    3  C           1     -22.229  -6.523  -1.496  0.00  0.00     0.004 C 
BRANCH   3   4
HETATM    4  C           1     -21.527  -5.964  -2.727  0.00  0.00     0.027 C 
BRANCH   4   5
HETATM    5  C           1     -21.723  -6.915  -3.900  0.00  0.00     0.229 C 
BRANCH   5   6
HETATM    6  N           1     -22.493  -6.221  -4.984  0.00  0.00    -0.079 N 
HETATM    7  H           1     -21.859  -5.573  -5.503  0.00  0.00     0.274 HD
HETATM    8  H           1     -23.277  -5.676  -4.560  0.00  0.00     0.274 HD
HETATM    9  H           1     -22.880  -6.932  -5.645  0.00  0.00     0.274 HD
ENDBRANCH   5   6
ENDBRANCH   4   5
ENDBRANCH   3   4
ENDBRANCH   2   3
ENDBRANCH   1   2
BRANCH   1  10
HETATM   10  N           1     -23.417  -7.959   0.529  0.00  0.00    -0.067 N 
HETATM   11  H           1     -22.914  -7.769   1.426  0.00  0.00     0.275 HD
HETATM   12  H           1     -23.682  -7.053   0.080  0.00  0.00     0.275 HD
HETATM   13  H           1     -24.280  -8.515   0.725  0.00  0.00     0.275 HD
ENDBRANCH   1  10
BRANCH   1  14
HETATM   14  C           1     -21.786  -9.790   0.395  0.00  0.00     0.251 C 
HETATM   15  N           1     -22.078 -11.114   0.203  0.00  0.00    -0.336 N 
HETATM   16  C           1     -21.473 -12.263   0.869  0.00  0.00     0.188 C 
HETATM   17  C           1     -23.062 -11.682  -0.714  0.00  0.00     0.127 C 
HETATM   18  C           1     -22.649 -13.189   1.129  0.00  0.00     0.038 C 
HETATM   19  C           1     -23.692 -12.810   0.085  0.00  0.00     0.022 C 
HETATM   20  O           1     -20.938  -9.468   1.194  0.00  0.00    -0.271 OA
BRANCH  16  21
HETATM   21  C           1     -20.455 -12.928  -0.025  0.00  0.00     0.196 C 
HETATM   22  O           1     -20.508 -14.161  -0.224  0.00  0.00    -0.646 OA
HETATM   23  O           1     -19.558 -12.245  -0.566  0.00  0.00    -0.646 OA
ENDBRANCH  16  21
ENDBRANCH   1  14
TORSDOF 8
ENDMDL
MODEL 9
REMARK VINA RESULT:      -5.3     17.188     19.468
REMARK  8 active torsions:
REMARK  status: ('A' for Active; 'I' for Inactive)
REMARK    1  A    between atoms: C_1  and  C_7 
REMARK    2  A    between atoms: C_1  and  C_9 
REMARK    3  A    between atoms: C_6  and  C_9 
REMARK    4  A    between atoms: C_6  and  N_12 
REMARK    5  A    between atoms: C_7  and  C_20 
REMARK       I    between atoms: N_11  and  C_21 
REMARK    6  A    between atoms: N_18  and  C_20 
REMARK    7  A    between atoms: C_19  and  C_22 
REMARK    8  A    between atoms: C_20  and  C_21 
ROOT
HETATM    1  C           1     -21.922  -7.409  -2.137  0.00  0.00     0.275 C 
ENDROOT
BRANCH   1   2
HETATM    2  C           1     -20.449  -7.469  -2.520  0.00  0.00     0.042 C 
BRANCH   2   3
HETATM    3  C           1     -20.300  -8.187  -3.854  0.00  0.00     0.004 C 
BRANCH   3   4
HETATM    4  C           1     -21.575  -8.017  -4.670  0.00  0.00     0.027 C 
BRANCH   4   5
HETATM    5  C           1     -21.342  -6.988  -5.768  0.00  0.00     0.229 C 
BRANCH   5   6
HETATM    6  N           1     -22.194  -5.780  -5.511  0.00  0.00    -0.079 N 
HETATM    7  H           1     -23.163  -6.083  -5.268  0.00  0.00     0.274 HD
HETATM    8  H           1     -22.221  -5.184  -6.370  0.00  0.00     0.274 HD
HETATM    9  H           1     -21.791  -5.232  -4.718  0.00  0.00     0.274 HD
ENDBRANCH   5   6
ENDBRANCH   4   5
ENDBRANCH   3   4
ENDBRANCH   2   3
ENDBRANCH   1   2
BRANCH   1  10
HETATM   10  N           1     -22.337  -5.978  -1.971  0.00  0.00    -0.067 N 
HETATM   11  H           1     -22.719  -5.836  -1.008  0.00  0.00     0.275 HD
HETATM   12  H           1     -21.510  -5.355  -2.113  0.00  0.00     0.275 HD
HETATM   13  H           1     -23.073  -5.743  -2.675  0.00  0.00     0.275 HD
ENDBRANCH   1  10
BRANCH   1  14
HETATM   14  C           1     -22.135  -8.147  -0.837  0.00  0.00     0.251 C 
HETATM   15  N           1     -22.412  -9.488  -0.848  0.00  0.00    -0.336 N 
HETATM   16  C           1     -22.644 -10.357   0.301  0.00  0.00     0.188 C 
HETATM   17  C           1     -22.538 -10.360  -2.013  0.00  0.00     0.127 C 
HETATM   18  C           1     -23.789 -11.250  -0.147  0.00  0.00     0.038 C 
HETATM   19  C           1     -23.716 -11.255  -1.669  0.00  0.00     0.022 C 
HETATM   20  O           1     -22.060  -7.554   0.213  0.00  0.00    -0.271 OA
BRANCH  16  21
HETATM   21  C           1     -21.415 -11.176   0.613  0.00  0.00     0.196 C 
HETATM   22  O           1     -20.301 -10.618   0.714  0.00  0.00    -0.646 OA
HETATM   23  O           1     -21.512 -12.412   0.769  0.00  0.00    -0.646 OA
ENDBRANCH  16  21
ENDBRANCH   1  14
TORSDOF 8
ENDMDL
