MODEL 1
REMARK VINA RESULT:      -6.1      0.000      0.000
REMARK  6 active torsions:
REMARK  status: ('A' for Active; 'I' for Inactive)
REMARK    1  A    between atoms: N_2  and  C_8 
REMARK       I    between atoms: N_2  and  C_3 
REMARK    2  A    between atoms: C_3  and  C_4 
REMARK    3  A    between atoms: C_4  and  N_6 
REMARK    4  A    between atoms: C_8  and  C_12 
REMARK    5  A    between atoms: C_8  and  C_9 
REMARK    6  A    between atoms: C_11  and  C_12 
ROOT
HETATM    1  N           1     -35.677  -0.574 -12.393  0.00  0.00    -0.344 N 
HETATM    2  C           1     -36.389  -0.409 -13.552  0.00  0.00     0.248 C 
HETATM    3  O           1     -37.523  -0.818 -13.626  0.00  0.00    -0.271 OA
HETATM    4  H           1     -34.727  -0.232 -12.330  0.00  0.00     0.163 HD
ENDROOT
BRANCH   1   5
HETATM    5  C           1     -36.285  -1.239 -11.257  0.00  0.00     0.189 C 
BRANCH   5   6
HETATM    6  C           1     -35.271  -2.180 -10.619  0.00  0.00     0.014 C 
HETATM    7  C           1     -35.679  -3.622 -10.890  0.00  0.00     0.012 C 
BRANCH   6   8
HETATM    8  C           1     -33.894  -1.921 -11.216  0.00  0.00     0.002 C 
HETATM    9  C           1     -33.132  -3.235 -11.327  0.00  0.00     0.005 C 
ENDBRANCH   6   8
ENDBRANCH   5   6
BRANCH   5  10
HETATM   10  C           1     -36.720  -0.208 -10.245  0.00  0.00     0.197 C 
HETATM   11  O           1     -37.621   0.609 -10.533  0.00  0.00    -0.646 OA
HETATM   12  O           1     -36.178  -0.170  -9.119  0.00  0.00    -0.646 OA
ENDBRANCH   5  10
ENDBRANCH   1   5
BRANCH   2  13
HETATM   13  C           1     -35.756   0.283 -14.733  0.00  0.00     0.270 C 
HETATM   14  C           1     -34.737   1.302 -14.240  0.00  0.00     0.050 C 
BRANCH  13  15
HETATM   15  N           1     -36.818   0.983 -15.529  0.00  0.00    -0.067 N 
HETATM   16  H           1     -36.817   0.618 -16.509  0.00  0.00     0.275 HD
HETATM   17  H           1     -37.751   0.809 -15.094  0.00  0.00     0.275 HD
HETATM   18  H           1     -36.623   2.010 -15.541  0.00  0.00     0.275 HD
ENDBRANCH  13  15
ENDBRANCH   2  13
TORSDOF 6
ENDMDL
MODEL 2
REMARK VINA RESULT:      -5.9     11.055     12.416
REMARK  6 active torsions:
REMARK  status: ('A' for Active; 'I' for Inactive)
REMARK    1  A    between atoms: N_2  and  C_8 
REMARK       I    between atoms: N_2  and  C_3 
REMARK    2  A    between atoms: C_3  and  C_4 
REMARK    3  A    between atoms: C_4  and  N_6 
REMARK    4  A    between atoms: C_8  and  C_12 
REMARK    5  A    between atoms: C_8  and  C_9 
REMARK    6  A    between atoms: C_11  and  C_12 
ROOT
HETATM    1  N           1     -26.933  -6.624 -18.192  0.00  0.00    -0.344 N 
HETATM    2  C           1     -25.719  -6.780 -18.806  0.00  0.00     0.248 C 
HETATM    3  O           1     -24.714  -6.393 -18.260  0.00  0.00    -0.271 OA
HETATM    4  H           1     -27.777  -6.948 -18.649  0.00  0.00     0.163 HD
ENDROOT
BRANCH   1   5
HETATM    5  C           1     -27.012  -5.993 -16.889  0.00  0.00     0.189 C 
BRANCH   5   6
HETATM    6  C           1     -28.368  -5.317 -16.734  0.00  0.00     0.014 C 
HETATM    7  C           1     -28.191  -3.806 -16.798  0.00  0.00     0.012 C 
BRANCH   6   8
HETATM    8  C           1     -29.291  -5.769 -17.858  0.00  0.00     0.002 C 
HETATM    9  C           1     -30.548  -6.392 -17.265  0.00  0.00     0.005 C 
ENDBRANCH   6   8
ENDBRANCH   5   6
BRANCH   5  10
HETATM   10  C           1     -26.845  -7.040 -15.815  0.00  0.00     0.197 C 
HETATM   11  O           1     -27.850  -7.502 -15.232  0.00  0.00    -0.646 OA
HETATM   12  O           1     -25.703  -7.443 -15.507  0.00  0.00    -0.646 OA
ENDBRANCH   5  10
ENDBRANCH   1   5
BRANCH   2  13
HETATM   13  C           1     -25.638  -7.436 -20.162  0.00  0.00     0.270 C 
HETATM   14  C           1     -25.110  -6.434 -21.180  0.00  0.00     0.050 C 
BRANCH  13  15
HETATM   15  N           1     -27.004  -7.897 -20.576  0.00  0.00    -0.067 N 
HETATM   16  H           1     -27.288  -7.403 -21.453  0.00  0.00     0.275 HD
HETATM   17  H           1     -26.987  -8.927 -20.747  0.00  0.00     0.275 HD
HETATM   18  H           1     -27.690  -7.679 -19.818  0.00  0.00     0.275 HD
ENDBRANCH  13  15
ENDBRANCH   2  13
TORSDOF 6
ENDMDL
MODEL 3
REMARK VINA RESULT:      -5.6     10.496     12.092
REMARK  6 active torsions:
REMARK  status: ('A' for Active; 'I' for Inactive)
REMARK    1  A    between atoms: N_2  and  C_8 
REMARK       I    between atoms: N_2  and  C_3 
REMARK    2  A    between atoms: C_3  and  C_4 
REMARK    3  A    between atoms: C_4  and  N_6 
REMARK    4  A    between atoms: C_8  and  C_12 
REMARK    5  A    between atoms: C_8  and  C_9 
REMARK    6  A    between atoms: C_11  and  C_12 
ROOT
HETATM    1  N           1     -26.744  -6.448 -17.153  0.00  0.00    -0.344 N 
HETATM    2  C           1     -25.463  -6.279 -16.700  0.00  0.00     0.248 C 
HETATM    3  O           1     -25.253  -5.597 -15.725  0.00  0.00    -0.271 OA
HETATM    4  H           1     -26.920  -7.020 -17.969  0.00  0.00     0.163 HD
ENDROOT
BRANCH   1   5
HETATM    5  C           1     -27.847  -5.808 -16.464  0.00  0.00     0.189 C 
BRANCH   5   6
HETATM    6  C           1     -29.024  -5.660 -17.419  0.00  0.00     0.014 C 
HETATM    7  C           1     -29.045  -4.244 -17.980  0.00  0.00     0.012 C 
BRANCH   6   8
HETATM    8  C           1     -28.878  -6.657 -18.561  0.00  0.00     0.002 C 
HETATM    9  C           1     -29.929  -7.751 -18.418  0.00  0.00     0.005 C 
ENDBRANCH   6   8
ENDBRANCH   5   6
BRANCH   5  10
HETATM   10  C           1     -28.261  -6.654 -15.284  0.00  0.00     0.197 C 
HETATM   11  O           1     -29.132  -6.238 -14.491  0.00  0.00    -0.646 OA
HETATM   12  O           1     -27.731  -7.771 -15.101  0.00  0.00    -0.646 OA
ENDBRANCH   5  10
ENDBRANCH   1   5
BRANCH   2  13
HETATM   13  C           1     -24.315  -6.945 -17.417  0.00  0.00     0.270 C 
HETATM   14  C           1     -24.725  -7.261 -18.850  0.00  0.00     0.050 C 
BRANCH  13  15
HETATM   15  N           1     -23.953  -8.217 -16.709  0.00  0.00    -0.067 N 
HETATM   16  H           1     -24.576  -8.989 -17.038  0.00  0.00     0.275 HD
HETATM   17  H           1     -22.958  -8.460 -16.916  0.00  0.00     0.275 HD
HETATM   18  H           1     -24.075  -8.088 -15.678  0.00  0.00     0.275 HD
ENDBRANCH  13  15
ENDBRANCH   2  13
TORSDOF 6
ENDMDL
MODEL 4
REMARK VINA RESULT:      -5.4      9.918     11.688
REMARK  6 active torsions:
REMARK  status: ('A' for Active; 'I' for Inactive)
REMARK    1  A    between atoms: N_2  and  C_8 
REMARK       I    between atoms: N_2  and  C_3 
REMARK    2  A    between atoms: C_3  and  C_4 
REMARK    3  A    between atoms: C_4  and  N_6 
REMARK    4  A    between atoms: C_8  and  C_12 
REMARK    5  A    between atoms: C_8  and  C_9 
REMARK    6  A    between atoms: C_11  and  C_12 
ROOT
HETATM    1  N           1     -27.530  -6.702 -17.200  0.00  0.00    -0.344 N 
HETATM    2  C           1     -26.402  -7.001 -16.484  0.00  0.00     0.248 C 
HETATM    3  O           1     -26.498  -7.436 -15.361  0.00  0.00    -0.271 OA
HETATM    4  H           1     -27.451  -6.337 -18.141  0.00  0.00     0.163 HD
ENDROOT
BRANCH   1   5
HETATM    5  C           1     -28.839  -6.906 -16.610  0.00  0.00     0.189 C 
BRANCH   5   6
HETATM    6  C           1     -29.373  -5.578 -16.089  0.00  0.00     0.014 C 
HETATM    7  C           1     -29.372  -5.596 -14.566  0.00  0.00     0.012 C 
BRANCH   6   8
HETATM    8  C           1     -28.485  -4.445 -16.584  0.00  0.00     0.002 C 
HETATM    9  C           1     -29.285  -3.540 -17.511  0.00  0.00     0.005 C 
ENDBRANCH   6   8
ENDBRANCH   5   6
BRANCH   5  10
HETATM   10  C           1     -29.781  -7.451 -17.656  0.00  0.00     0.197 C 
HETATM   11  O           1     -30.922  -6.958 -17.788  0.00  0.00    -0.646 OA
HETATM   12  O           1     -29.419  -8.396 -18.390  0.00  0.00    -0.646 OA
ENDBRANCH   5  10
ENDBRANCH   1   5
BRANCH   2  13
HETATM   13  C           1     -25.041  -6.787 -17.098  0.00  0.00     0.270 C 
HETATM   14  C           1     -25.157  -6.818 -18.616  0.00  0.00     0.050 C 
BRANCH  13  15
HETATM   15  N           1     -24.113  -7.876 -16.645  0.00  0.00    -0.067 N 
HETATM   16  H           1     -24.233  -8.714 -17.258  0.00  0.00     0.275 HD
HETATM   17  H           1     -23.126  -7.539 -16.704  0.00  0.00     0.275 HD
HETATM   18  H           1     -24.336  -8.135 -15.657  0.00  0.00     0.275 HD
ENDBRANCH  13  15
ENDBRANCH   2  13
TORSDOF 6
ENDMDL
MODEL 5
REMARK VINA RESULT:      -5.4      1.888      2.521
REMARK  6 active torsions:
REMARK  status: ('A' for Active; 'I' for Inactive)
REMARK    1  A    between atoms: N_2  and  C_8 
REMARK       I    between atoms: N_2  and  C_3 
REMARK    2  A    between atoms: C_3  and  C_4 
REMARK    3  A    between atoms: C_4  and  N_6 
REMARK    4  A    between atoms: C_8  and  C_12 
REMARK    5  A    between atoms: C_8  and  C_9 
REMARK    6  A    between atoms: C_11  and  C_12 
ROOT
HETATM    1  N           1     -34.718  -1.976 -13.147  0.00  0.00    -0.344 N 
HETATM    2  C           1     -35.629  -1.131 -13.723  0.00  0.00     0.248 C 
HETATM    3  O           1     -36.705  -0.959 -13.202  0.00  0.00    -0.271 OA
HETATM    4  H           1     -33.816  -2.121 -13.583  0.00  0.00     0.163 HD
ENDROOT
BRANCH   1   5
HETATM    5  C           1     -35.045  -2.664 -11.914  0.00  0.00     0.189 C 
BRANCH   5   6
HETATM    6  C           1     -34.403  -4.045 -11.918  0.00  0.00     0.014 C 
HETATM    7  C           1     -32.961  -3.931 -12.395  0.00  0.00     0.012 C 
BRANCH   6   8
HETATM    8  C           1     -34.428  -4.619 -10.508  0.00  0.00     0.002 C 
HETATM    9  C           1     -34.344  -6.139 -10.575  0.00  0.00     0.005 C 
ENDBRANCH   6   8
ENDBRANCH   5   6
BRANCH   5  10
HETATM   10  C           1     -34.522  -1.870 -10.742  0.00  0.00     0.197 C 
HETATM   11  O           1     -35.319  -1.390  -9.907  0.00  0.00    -0.646 OA
HETATM   12  O           1     -33.293  -1.691 -10.608  0.00  0.00    -0.646 OA
ENDBRANCH   5  10
ENDBRANCH   1   5
BRANCH   2  13
HETATM   13  C           1     -35.288  -0.416 -15.007  0.00  0.00     0.270 C 
HETATM   14  C           1     -36.443   0.495 -15.403  0.00  0.00     0.050 C 
BRANCH  13  15
HETATM   15  N           1     -35.051  -1.424 -16.092  0.00  0.00    -0.067 N 
HETATM   16  H           1     -34.025  -1.601 -16.187  0.00  0.00     0.275 HD
HETATM   17  H           1     -35.537  -2.317 -15.851  0.00  0.00     0.275 HD
HETATM   18  H           1     -35.424  -1.055 -16.997  0.00  0.00     0.275 HD
ENDBRANCH  13  15
ENDBRANCH   2  13
TORSDOF 6
ENDMDL
MODEL 6
REMARK VINA RESULT:      -5.4      1.501      1.937
REMARK  6 active torsions:
REMARK  status: ('A' for Active; 'I' for Inactive)
REMARK    1  A    between atoms: N_2  and  C_8 
REMARK       I    between atoms: N_2  and  C_3 
REMARK    2  A    between atoms: C_3  and  C_4 
REMARK    3  A    between atoms: C_4  and  N_6 
REMARK    4  A    between atoms: C_8  and  C_12 
REMARK    5  A    between atoms: C_8  and  C_9 
REMARK    6  A    between atoms: C_11  and  C_12 
ROOT
HETATM    1  N           1     -35.152  -0.858 -12.793  0.00  0.00    -0.344 N 
HETATM    2  C           1     -35.239  -0.810 -14.158  0.00  0.00     0.248 C 
HETATM    3  O           1     -35.292  -1.835 -14.795  0.00  0.00    -0.271 OA
HETATM    4  H           1     -35.108   0.001 -12.258  0.00  0.00     0.163 HD
ENDROOT
BRANCH   1   5
HETATM    5  C           1     -35.124  -2.137 -12.112  0.00  0.00     0.189 C 
BRANCH   5   6
HETATM    6  C           1     -33.688  -2.479 -11.735  0.00  0.00     0.014 C 
HETATM    7  C           1     -33.523  -2.374 -10.225  0.00  0.00     0.012 C 
BRANCH   6   8
HETATM    8  C           1     -33.371  -3.900 -12.183  0.00  0.00     0.002 C 
HETATM    9  C           1     -33.610  -4.863 -11.027  0.00  0.00     0.005 C 
ENDBRANCH   6   8
ENDBRANCH   5   6
BRANCH   5  10
HETATM   10  C           1     -35.967  -2.060 -10.863  0.00  0.00     0.197 C 
HETATM   11  O           1     -36.618  -3.058 -10.485  0.00  0.00    -0.646 OA
HETATM   12  O           1     -36.015  -0.997 -10.207  0.00  0.00    -0.646 OA
ENDBRANCH   5  10
ENDBRANCH   1   5
BRANCH   2  13
HETATM   13  C           1     -35.268   0.522 -14.866  0.00  0.00     0.270 C 
HETATM   14  C           1     -34.675   1.592 -13.961  0.00  0.00     0.050 C 
BRANCH  13  15
HETATM   15  N           1     -36.686   0.879 -15.200  0.00  0.00    -0.067 N 
HETATM   16  H           1     -37.142   0.076 -15.692  0.00  0.00     0.275 HD
HETATM   17  H           1     -37.209   1.090 -14.320  0.00  0.00     0.275 HD
HETATM   18  H           1     -36.696   1.718 -15.823  0.00  0.00     0.275 HD
ENDBRANCH  13  15
ENDBRANCH   2  13
TORSDOF 6
ENDMDL
MODEL 7
REMARK VINA RESULT:      -5.2     12.532     14.842
REMARK  6 active torsions:
REMARK  status: ('A' for Active; 'I' for Inactive)
REMARK    1  A    between atoms: N_2  and  C_8 
REMARK       I    between atoms: N_2  and  C_3 
REMARK    2  A    between atoms: C_3  and  C_4 
REMARK    3  A    between atoms: C_4  and  N_6 
REMARK    4  A    between atoms: C_8  and  C_12 
REMARK    5  A    between atoms: C_8  and  C_9 
REMARK    6  A    between atoms: C_11  and  C_12 
ROOT
HETATM    1  N           1     -22.719  -4.812  -8.538  0.00  0.00    -0.344 N 
HETATM    2  C           1     -21.827  -4.389  -7.589  0.00  0.00     0.248 C 
HETATM    3  O           1     -21.296  -3.310  -7.699  0.00  0.00    -0.271 OA
HETATM    4  H           1     -23.164  -5.717  -8.446  0.00  0.00     0.163 HD
ENDROOT
BRANCH   1   5
HETATM    5  C           1     -23.025  -3.966  -9.674  0.00  0.00     0.189 C 
BRANCH   5   6
HETATM    6  C           1     -22.328  -4.510 -10.914  0.00  0.00     0.014 C 
HETATM    7  C           1     -23.372  -5.005 -11.906  0.00  0.00     0.012 C 
BRANCH   6   8
HETATM    8  C           1     -21.501  -3.404 -11.557  0.00  0.00     0.002 C 
HETATM    9  C           1     -20.072  -3.469 -11.035  0.00  0.00     0.005 C 
ENDBRANCH   6   8
ENDBRANCH   5   6
BRANCH   5  10
HETATM   10  C           1     -24.517  -3.952  -9.902  0.00  0.00     0.197 C 
HETATM   11  O           1     -25.044  -3.012 -10.535  0.00  0.00    -0.646 OA
HETATM   12  O           1     -25.225  -4.881  -9.456  0.00  0.00    -0.646 OA
ENDBRANCH   5  10
ENDBRANCH   1   5
BRANCH   2  13
HETATM   13  C           1     -21.508  -5.270  -6.407  0.00  0.00     0.270 C 
HETATM   14  C           1     -20.326  -4.688  -5.643  0.00  0.00     0.050 C 
BRANCH  13  15
HETATM   15  N           1     -21.161  -6.647  -6.890  0.00  0.00    -0.067 N 
HETATM   16  H           1     -20.302  -6.983  -6.398  0.00  0.00     0.275 HD
HETATM   17  H           1     -21.954  -7.297  -6.689  0.00  0.00     0.275 HD
HETATM   18  H           1     -20.983  -6.620  -7.920  0.00  0.00     0.275 HD
ENDBRANCH  13  15
ENDBRANCH   2  13
TORSDOF 6
ENDMDL
MODEL 8
REMARK VINA RESULT:      -5.2     11.319     12.643
REMARK  6 active torsions:
REMARK  status: ('A' for Active; 'I' for Inactive)
REMARK    1  A    between atoms: N_2  and  C_8 
REMARK       I    between atoms: N_2  and  C_3 
REMARK    2  A    between atoms: C_3  and  C_4 
REMARK    3  A    between atoms: C_4  and  N_6 
REMARK    4  A    between atoms: C_8  and  C_12 
REMARK    5  A    between atoms: C_8  and  C_9 
REMARK    6  A    between atoms: C_11  and  C_12 
ROOT
HETATM    1  N           1     -27.246  -6.888 -19.022  0.00  0.00    -0.344 N 
HETATM    2  C           1     -26.807  -6.676 -20.301  0.00  0.00     0.248 C 
HETATM    3  O           1     -26.557  -5.555 -20.675  0.00  0.00    -0.271 OA
HETATM    4  H           1     -27.456  -7.827 -18.708  0.00  0.00     0.163 HD
ENDROOT
BRANCH   1   5
HETATM    5  C           1     -27.413  -5.768 -18.117  0.00  0.00     0.189 C 
BRANCH   5   6
HETATM    6  C           1     -28.874  -5.665 -17.701  0.00  0.00     0.014 C 
HETATM    7  C           1     -29.534  -4.515 -18.451  0.00  0.00     0.012 C 
BRANCH   6   8
HETATM    8  C           1     -29.589  -6.967 -18.036  0.00  0.00     0.002 C 
HETATM    9  C           1     -31.010  -6.923 -17.489  0.00  0.00     0.005 C 
ENDBRANCH   6   8
ENDBRANCH   5   6
BRANCH   5  10
HETATM   10  C           1     -26.555  -5.979 -16.894  0.00  0.00     0.197 C 
HETATM   11  O           1     -25.419  -6.489 -17.007  0.00  0.00    -0.646 OA
HETATM   12  O           1     -26.981  -5.645 -15.767  0.00  0.00    -0.646 OA
ENDBRANCH   5  10
ENDBRANCH   1   5
BRANCH   2  13
HETATM   13  C           1     -26.634  -7.842 -21.243  0.00  0.00     0.270 C 
HETATM   14  C           1     -27.756  -8.848 -21.018  0.00  0.00     0.050 C 
BRANCH  13  15
HETATM   15  N           1     -25.312  -8.502 -20.983  0.00  0.00    -0.067 N 
HETATM   16  H           1     -25.460  -9.370 -20.419  0.00  0.00     0.275 HD
HETATM   17  H           1     -24.862  -8.751 -21.893  0.00  0.00     0.275 HD
HETATM   18  H           1     -24.693  -7.846 -20.454  0.00  0.00     0.275 HD
ENDBRANCH  13  15
ENDBRANCH   2  13
TORSDOF 6
ENDMDL
MODEL 9
REMARK VINA RESULT:      -5.2     10.644     12.074
REMARK  6 active torsions:
REMARK  status: ('A' for Active; 'I' for Inactive)
REMARK    1  A    between atoms: N_2  and  C_8 
REMARK       I    between atoms: N_2  and  C_3 
REMARK    2  A    between atoms: C_3  and  C_4 
REMARK    3  A    between atoms: C_4  and  N_6 
REMARK    4  A    between atoms: C_8  and  C_12 
REMARK    5  A    between atoms: C_8  and  C_9 
REMARK    6  A    between atoms: C_11  and  C_12 
ROOT
HETATM    1  N           1     -27.705  -5.772 -17.604  0.00  0.00    -0.344 N 
HETATM    2  C           1     -28.990  -6.215 -17.443  0.00  0.00     0.248 C 
HETATM    3  O           1     -29.206  -7.392 -17.282  0.00  0.00    -0.271 OA
HETATM    4  H           1     -27.522  -4.785 -17.739  0.00  0.00     0.163 HD
ENDROOT
BRANCH   1   5
HETATM    5  C           1     -26.604  -6.715 -17.584  0.00  0.00     0.189 C 
BRANCH   5   6
HETATM    6  C           1     -25.638  -6.392 -18.717  0.00  0.00     0.014 C 
HETATM    7  C           1     -24.380  -7.237 -18.566  0.00  0.00     0.012 C 
BRANCH   6   8
HETATM    8  C           1     -26.301  -6.704 -20.052  0.00  0.00     0.002 C 
HETATM    9  C           1     -25.344  -7.510 -20.920  0.00  0.00     0.005 C 
ENDBRANCH   6   8
ENDBRANCH   5   6
BRANCH   5  10
HETATM   10  C           1     -25.881  -6.614 -16.263  0.00  0.00     0.197 C 
HETATM   11  O           1     -25.224  -5.587 -15.987  0.00  0.00    -0.646 OA
HETATM   12  O           1     -25.939  -7.559 -15.446  0.00  0.00    -0.646 OA
ENDBRANCH   5  10
ENDBRANCH   1   5
BRANCH   2  13
HETATM   13  C           1     -30.135  -5.233 -17.464  0.00  0.00     0.270 C 
HETATM   14  C           1     -29.589  -3.818 -17.605  0.00  0.00     0.050 C 
BRANCH  13  15
HETATM   15  N           1     -30.912  -5.344 -16.186  0.00  0.00    -0.067 N 
HETATM   16  H           1     -31.295  -6.312 -16.094  0.00  0.00     0.275 HD
HETATM   17  H           1     -30.284  -5.139 -15.377  0.00  0.00     0.275 HD
HETATM   18  H           1     -31.702  -4.658 -16.198  0.00  0.00     0.275 HD
ENDBRANCH  13  15
ENDBRANCH   2  13
TORSDOF 6
ENDMDL
