MODEL 1
REMARK VINA RESULT:      -6.8      0.000      0.000
REMARK  10 active torsions:
REMARK  status: ('A' for Active; 'I' for Inactive)
REMARK    1  A    between atoms: S_5  and  C_6 
REMARK    2  A    between atoms: C_6  and  C_28 
REMARK    3  A    between atoms: C_7  and  C_8 
REMARK    4  A    between atoms: C_7  and  C_19 
REMARK    5  A    between atoms: C_7  and  N_15 
REMARK    6  A    between atoms: C_8  and  C_9 
REMARK    7  A    between atoms: C_9  and  C_10 
REMARK    8  A    between atoms: C_10  and  N_11 
REMARK       I    between atoms: N_11  and  C_13 
REMARK       I    between atoms: N_12  and  C_13 
REMARK       I    between atoms: C_14  and  N_15 
REMARK    9  A    between atoms: C_14  and  C_28 
REMARK   10  A    between atoms: N_21  and  C_28 
ROOT
HETATM    1  C           1     -34.977  -2.365 -11.976  0.00  0.00     0.185 C 
ENDROOT
BRANCH   1   2
HETATM    2  C           1     -33.987  -3.485 -12.268  0.00  0.00     0.038 C 
BRANCH   2   3
HETATM    3  C           1     -34.685  -4.831 -12.125  0.00  0.00     0.023 C 
BRANCH   3   4
HETATM    4  C           1     -34.413  -5.400 -10.739  0.00  0.00     0.138 C 
BRANCH   4   5
HETATM    5  N           1     -33.751  -6.706 -10.867  0.00  0.00    -0.227 N 
HETATM    6  C           1     -34.195  -7.706 -10.230  0.00  0.00     0.665 C 
HETATM    7  N           1     -35.210  -7.581  -9.483  0.00  0.00    -0.235 N 
HETATM    8  N           1     -33.609  -8.861 -10.342  0.00  0.00    -0.235 N 
HETATM    9  H           1     -35.683  -6.648  -9.392  0.00  0.00     0.174 HD
HETATM   10  H           1     -35.578  -8.410  -8.955  0.00  0.00     0.174 HD
HETATM   11  H           1     -32.771  -8.964 -10.959  0.00  0.00     0.174 HD
HETATM   12  H           1     -33.975  -9.687  -9.817  0.00  0.00     0.174 HD
HETATM   13  H           1     -32.909  -6.810 -11.486  0.00  0.00     0.177 HD
ENDBRANCH   4   5
ENDBRANCH   3   4
ENDBRANCH   2   3
ENDBRANCH   1   2
BRANCH   1  14
HETATM   14  C           1     -34.669  -1.758 -10.630  0.00  0.00     0.196 C 
HETATM   15  O           1     -35.567  -1.172  -9.988  0.00  0.00    -0.646 OA
HETATM   16  O           1     -33.515  -1.842 -10.156  0.00  0.00    -0.646 OA
ENDBRANCH   1  14
BRANCH   1  17
HETATM   17  N           1     -34.868  -1.346 -13.002  0.00  0.00    -0.345 N 
HETATM   18  H           1     -33.965  -1.122 -13.400  0.00  0.00     0.163 HD
HETATM   19  C           1     -35.988  -0.685 -13.432  0.00  0.00     0.249 C 
HETATM   20  O           1     -37.066  -0.951 -12.957  0.00  0.00    -0.271 OA
BRANCH  19  21
HETATM   21  C           1     -35.875   0.376 -14.499  0.00  0.00     0.283 C 
BRANCH  21  22
HETATM   22  C           1     -36.651  -0.061 -15.735  0.00  0.00     0.113 C 
BRANCH  22  23
HETATM   23  S           1     -35.662  -1.255 -16.680  0.00  0.00    -0.180 SA
HETATM   24  H           1     -36.569  -2.247 -16.646  0.00  0.00     0.101 HD
ENDBRANCH  22  23
ENDBRANCH  21  22
BRANCH  21  25
HETATM   25  N           1     -34.431   0.570 -14.859  0.00  0.00    -0.066 N 
HETATM   26  H           1     -34.365   1.066 -15.777  0.00  0.00     0.275 HD
HETATM   27  H           1     -33.962  -0.361 -14.933  0.00  0.00     0.275 HD
HETATM   28  H           1     -33.961   1.139 -14.120  0.00  0.00     0.275 HD
ENDBRANCH  21  25
ENDBRANCH  19  21
ENDBRANCH   1  17
TORSDOF 10
ENDMDL
MODEL 2
REMARK VINA RESULT:      -6.4      1.773      2.650
REMARK  10 active torsions:
REMARK  status: ('A' for Active; 'I' for Inactive)
REMARK    1  A    between atoms: S_5  and  C_6 
REMARK    2  A    between atoms: C_6  and  C_28 
REMARK    3  A    between atoms: C_7  and  C_8 
REMARK    4  A    between atoms: C_7  and  C_19 
REMARK    5  A    between atoms: C_7  and  N_15 
REMARK    6  A    between atoms: C_8  and  C_9 
REMARK    7  A    between atoms: C_9  and  C_10 
REMARK    8  A    between atoms: C_10  and  N_11 
REMARK       I    between atoms: N_11  and  C_13 
REMARK       I    between atoms: N_12  and  C_13 
REMARK       I    between atoms: C_14  and  N_15 
REMARK    9  A    between atoms: C_14  and  C_28 
REMARK   10  A    between atoms: N_21  and  C_28 
ROOT
HETATM    1  C           1     -36.645  -0.780 -11.074  0.00  0.00     0.185 C 
ENDROOT
BRANCH   1   2
HETATM    2  C           1     -35.676  -1.850 -10.589  0.00  0.00     0.038 C 
BRANCH   2   3
HETATM    3  C           1     -34.443  -1.863 -11.481  0.00  0.00     0.023 C 
BRANCH   3   4
HETATM    4  C           1     -33.336  -2.662 -10.807  0.00  0.00     0.138 C 
BRANCH   4   5
HETATM    5  N           1     -33.767  -4.058 -10.647  0.00  0.00    -0.227 N 
HETATM    6  C           1     -33.263  -4.963 -11.375  0.00  0.00     0.665 C 
HETATM    7  N           1     -32.387  -4.666 -12.240  0.00  0.00    -0.235 N 
HETATM    8  N           1     -33.644  -6.198 -11.234  0.00  0.00    -0.235 N 
HETATM    9  H           1     -32.079  -3.668 -12.354  0.00  0.00     0.174 HD
HETATM   10  H           1     -31.969  -5.416 -12.844  0.00  0.00     0.174 HD
HETATM   11  H           1     -34.366  -6.444 -10.520  0.00  0.00     0.174 HD
HETATM   12  H           1     -33.228  -6.946 -11.835  0.00  0.00     0.174 HD
HETATM   13  H           1     -34.493  -4.305  -9.930  0.00  0.00     0.177 HD
ENDBRANCH   4   5
ENDBRANCH   3   4
ENDBRANCH   2   3
ENDBRANCH   1   2
BRANCH   1  14
HETATM   14  C           1     -36.918   0.196  -9.957  0.00  0.00     0.196 C 
HETATM   15  O           1     -36.214   0.178  -8.924  0.00  0.00    -0.646 OA
HETATM   16  O           1     -37.848   1.025 -10.064  0.00  0.00    -0.646 OA
ENDBRANCH   1  14
BRANCH   1  17
HETATM   17  N           1     -36.062  -0.076 -12.199  0.00  0.00    -0.345 N 
HETATM   18  H           1     -35.205   0.450 -12.079  0.00  0.00     0.163 HD
HETATM   19  C           1     -36.671  -0.120 -13.425  0.00  0.00     0.249 C 
HETATM   20  O           1     -37.694  -0.746 -13.568  0.00  0.00    -0.271 OA
BRANCH  19  21
HETATM   21  C           1     -36.065   0.613 -14.596  0.00  0.00     0.283 C 
BRANCH  21  22
HETATM   22  C           1     -36.694   0.114 -15.890  0.00  0.00     0.113 C 
BRANCH  22  23
HETATM   23  S           1     -35.650  -1.185 -16.609  0.00  0.00    -0.180 SA
HETATM   24  H           1     -36.531  -2.186 -16.438  0.00  0.00     0.101 HD
ENDBRANCH  22  23
ENDBRANCH  21  22
BRANCH  21  25
HETATM   25  N           1     -34.586   0.362 -14.630  0.00  0.00    -0.066 N 
HETATM   26  H           1     -34.083   1.267 -14.772  0.00  0.00     0.275 HD
HETATM   27  H           1     -34.361  -0.287 -15.418  0.00  0.00     0.275 HD
HETATM   28  H           1     -34.285  -0.068 -13.728  0.00  0.00     0.275 HD
ENDBRANCH  21  25
ENDBRANCH  19  21
ENDBRANCH   1  17
TORSDOF 10
ENDMDL
MODEL 3
REMARK VINA RESULT:      -5.7     13.932     15.957
REMARK  10 active torsions:
REMARK  status: ('A' for Active; 'I' for Inactive)
REMARK    1  A    between atoms: S_5  and  C_6 
REMARK    2  A    between atoms: C_6  and  C_28 
REMARK    3  A    between atoms: C_7  and  C_8 
REMARK    4  A    between atoms: C_7  and  C_19 
REMARK    5  A    between atoms: C_7  and  N_15 
REMARK    6  A    between atoms: C_8  and  C_9 
REMARK    7  A    between atoms: C_9  and  C_10 
REMARK    8  A    between atoms: C_10  and  N_11 
REMARK       I    between atoms: N_11  and  C_13 
REMARK       I    between atoms: N_12  and  C_13 
REMARK       I    between atoms: C_14  and  N_15 
REMARK    9  A    between atoms: C_14  and  C_28 
REMARK   10  A    between atoms: N_21  and  C_28 
ROOT
HETATM    1  C           1     -21.314  -5.070  -7.524  0.00  0.00     0.185 C 
ENDROOT
BRANCH   1   2
HETATM    2  C           1     -22.222  -3.883  -7.820  0.00  0.00     0.038 C 
BRANCH   2   3
HETATM    3  C           1     -23.462  -4.363  -8.562  0.00  0.00     0.023 C 
BRANCH   3   4
HETATM    4  C           1     -23.622  -3.569  -9.851  0.00  0.00     0.138 C 
BRANCH   4   5
HETATM    5  N           1     -22.302  -3.353 -10.461  0.00  0.00    -0.227 N 
HETATM    6  C           1     -21.979  -3.987 -11.508  0.00  0.00     0.665 C 
HETATM    7  N           1     -22.792  -4.806 -12.030  0.00  0.00    -0.235 N 
HETATM    8  N           1     -20.811  -3.796 -12.048  0.00  0.00    -0.235 N 
HETATM    9  H           1     -23.734  -4.959 -11.594  0.00  0.00     0.174 HD
HETATM   10  H           1     -22.523  -5.331 -12.898  0.00  0.00     0.174 HD
HETATM   11  H           1     -20.140  -3.121 -11.618  0.00  0.00     0.174 HD
HETATM   12  H           1     -20.544  -4.319 -12.913  0.00  0.00     0.174 HD
HETATM   13  H           1     -21.628  -2.675 -10.029  0.00  0.00     0.177 HD
ENDBRANCH   4   5
ENDBRANCH   3   4
ENDBRANCH   2   3
ENDBRANCH   1   2
BRANCH   1  14
HETATM   14  C           1     -19.952  -4.823  -8.122  0.00  0.00     0.196 C 
HETATM   15  O           1     -19.789  -4.896  -9.359  0.00  0.00    -0.646 OA
HETATM   16  O           1     -18.985  -4.545  -7.381  0.00  0.00    -0.646 OA
ENDBRANCH   1  14
BRANCH   1  17
HETATM   17  N           1     -21.189  -5.236  -6.089  0.00  0.00    -0.345 N 
HETATM   18  H           1     -21.125  -4.423  -5.489  0.00  0.00     0.163 HD
HETATM   19  C           1     -21.156  -6.492  -5.545  0.00  0.00     0.249 C 
HETATM   20  O           1     -21.232  -7.462  -6.262  0.00  0.00    -0.271 OA
BRANCH  19  21
HETATM   21  C           1     -21.026  -6.665  -4.052  0.00  0.00     0.283 C 
BRANCH  21  22
HETATM   22  C           1     -20.866  -8.143  -3.723  0.00  0.00     0.113 C 
BRANCH  22  23
HETATM   23  S           1     -20.567  -8.339  -1.943  0.00  0.00    -0.180 SA
HETATM   24  H           1     -19.277  -7.964  -1.976  0.00  0.00     0.101 HD
ENDBRANCH  22  23
ENDBRANCH  21  22
BRANCH  21  25
HETATM   25  N           1     -22.257  -6.134  -3.379  0.00  0.00    -0.066 N 
HETATM   26  H           1     -22.682  -6.885  -2.789  0.00  0.00     0.275 HD
HETATM   27  H           1     -22.946  -5.828  -4.102  0.00  0.00     0.275 HD
HETATM   28  H           1     -22.001  -5.320  -2.776  0.00  0.00     0.275 HD
ENDBRANCH  21  25
ENDBRANCH  19  21
ENDBRANCH   1  17
TORSDOF 10
ENDMDL
MODEL 4
REMARK VINA RESULT:      -5.7     13.864     16.075
REMARK  10 active torsions:
REMARK  status: ('A' for Active; 'I' for Inactive)
REMARK    1  A    between atoms: S_5  and  C_6 
REMARK    2  A    between atoms: C_6  and  C_28 
REMARK    3  A    between atoms: C_7  and  C_8 
REMARK    4  A    between atoms: C_7  and  C_19 
REMARK    5  A    between atoms: C_7  and  N_15 
REMARK    6  A    between atoms: C_8  and  C_9 
REMARK    7  A    between atoms: C_9  and  C_10 
REMARK    8  A    between atoms: C_10  and  N_11 
REMARK       I    between atoms: N_11  and  C_13 
REMARK       I    between atoms: N_12  and  C_13 
REMARK       I    between atoms: C_14  and  N_15 
REMARK    9  A    between atoms: C_14  and  C_28 
REMARK   10  A    between atoms: N_21  and  C_28 
ROOT
HETATM    1  C           1     -21.564  -5.914  -6.020  0.00  0.00     0.185 C 
ENDROOT
BRANCH   1   2
HETATM    2  C           1     -22.577  -4.924  -6.581  0.00  0.00     0.038 C 
BRANCH   2   3
HETATM    3  C           1     -21.869  -3.935  -7.496  0.00  0.00     0.023 C 
BRANCH   3   4
HETATM    4  C           1     -22.516  -3.966  -8.875  0.00  0.00     0.138 C 
BRANCH   4   5
HETATM    5  N           1     -23.935  -3.601  -8.759  0.00  0.00    -0.227 N 
HETATM    6  C           1     -24.713  -3.765  -9.744  0.00  0.00     0.665 C 
HETATM    7  N           1     -24.269  -4.244 -10.829  0.00  0.00    -0.235 N 
HETATM    8  N           1     -25.968  -3.442  -9.641  0.00  0.00    -0.235 N 
HETATM    9  H           1     -23.255  -4.504 -10.912  0.00  0.00     0.174 HD
HETATM   10  H           1     -24.914  -4.380 -11.646  0.00  0.00     0.174 HD
HETATM   11  H           1     -26.335  -3.047  -8.746  0.00  0.00     0.174 HD
HETATM   12  H           1     -26.611  -3.578 -10.455  0.00  0.00     0.174 HD
HETATM   13  H           1     -24.304  -3.204  -7.860  0.00  0.00     0.177 HD
ENDBRANCH   4   5
ENDBRANCH   3   4
ENDBRANCH   2   3
ENDBRANCH   1   2
BRANCH   1  14
HETATM   14  C           1     -20.194  -5.597  -6.567  0.00  0.00     0.196 C 
HETATM   15  O           1     -19.503  -4.700  -6.039  0.00  0.00    -0.646 OA
HETATM   16  O           1     -19.750  -6.232  -7.547  0.00  0.00    -0.646 OA
ENDBRANCH   1  14
BRANCH   1  17
HETATM   17  N           1     -21.542  -5.815  -4.574  0.00  0.00    -0.345 N 
HETATM   18  H           1     -21.642  -4.912  -4.127  0.00  0.00     0.163 HD
HETATM   19  C           1     -21.385  -6.942  -3.813  0.00  0.00     0.249 C 
HETATM   20  O           1     -21.266  -8.019  -4.347  0.00  0.00    -0.271 OA
BRANCH  19  21
HETATM   21  C           1     -21.362  -6.839  -2.308  0.00  0.00     0.283 C 
BRANCH  21  22
HETATM   22  C           1     -21.761  -8.178  -1.700  0.00  0.00     0.113 C 
BRANCH  22  23
HETATM   23  S           1     -22.161  -7.950   0.056  0.00  0.00    -0.180 SA
HETATM   24  H           1     -23.343  -8.589   0.015  0.00  0.00     0.101 HD
ENDBRANCH  22  23
ENDBRANCH  21  22
BRANCH  21  25
HETATM   25  N           1     -22.329  -5.781  -1.865  0.00  0.00    -0.066 N 
HETATM   26  H           1     -21.803  -4.988  -1.432  0.00  0.00     0.275 HD
HETATM   27  H           1     -22.990  -6.185  -1.162  0.00  0.00     0.275 HD
HETATM   28  H           1     -22.868  -5.434  -2.690  0.00  0.00     0.275 HD
ENDBRANCH  21  25
ENDBRANCH  19  21
ENDBRANCH   1  17
TORSDOF 10
ENDMDL
MODEL 5
REMARK VINA RESULT:      -5.6     14.456     16.934
REMARK  10 active torsions:
REMARK  status: ('A' for Active; 'I' for Inactive)
REMARK    1  A    between atoms: S_5  and  C_6 
REMARK    2  A    between atoms: C_6  and  C_28 
REMARK    3  A    between atoms: C_7  and  C_8 
REMARK    4  A    between atoms: C_7  and  C_19 
REMARK    5  A    between atoms: C_7  and  N_15 
REMARK    6  A    between atoms: C_8  and  C_9 
REMARK    7  A    between atoms: C_9  and  C_10 
REMARK    8  A    between atoms: C_10  and  N_11 
REMARK       I    between atoms: N_11  and  C_13 
REMARK       I    between atoms: N_12  and  C_13 
REMARK       I    between atoms: C_14  and  N_15 
REMARK    9  A    between atoms: C_14  and  C_28 
REMARK   10  A    between atoms: N_21  and  C_28 
ROOT
HETATM    1  C           1     -20.728  -6.812  -5.388  0.00  0.00     0.185 C 
ENDROOT
BRANCH   1   2
HETATM    2  C           1     -20.561  -6.094  -6.721  0.00  0.00     0.038 C 
BRANCH   2   3
HETATM    3  C           1     -20.071  -4.674  -6.476  0.00  0.00     0.023 C 
BRANCH   3   4
HETATM    4  C           1     -20.702  -3.736  -7.497  0.00  0.00     0.138 C 
BRANCH   4   5
HETATM    5  N           1     -22.166  -3.833  -7.413  0.00  0.00    -0.227 N 
HETATM    6  C           1     -22.860  -3.875  -8.471  0.00  0.00     0.665 C 
HETATM    7  N           1     -22.292  -3.834  -9.602  0.00  0.00    -0.235 N 
HETATM    8  N           1     -24.155  -3.960  -8.396  0.00  0.00    -0.235 N 
HETATM    9  H           1     -21.246  -3.765  -9.662  0.00  0.00     0.174 HD
HETATM   10  H           1     -22.867  -3.869 -10.479  0.00  0.00     0.174 HD
HETATM   11  H           1     -24.624  -3.994  -7.462  0.00  0.00     0.174 HD
HETATM   12  H           1     -24.728  -3.995  -9.269  0.00  0.00     0.174 HD
HETATM   13  H           1     -22.637  -3.867  -6.475  0.00  0.00     0.177 HD
ENDBRANCH   4   5
ENDBRANCH   3   4
ENDBRANCH   2   3
ENDBRANCH   1   2
BRANCH   1  14
HETATM   14  C           1     -21.956  -6.290  -4.685  0.00  0.00     0.196 C 
HETATM   15  O           1     -22.984  -6.015  -5.341  0.00  0.00    -0.646 OA
HETATM   16  O           1     -21.946  -6.132  -3.445  0.00  0.00    -0.646 OA
ENDBRANCH   1  14
BRANCH   1  17
HETATM   17  N           1     -20.875  -8.235  -5.622  0.00  0.00    -0.345 N 
HETATM   18  H           1     -21.556  -8.572  -6.292  0.00  0.00     0.163 HD
HETATM   19  C           1     -20.093  -9.126  -4.936  0.00  0.00     0.249 C 
HETATM   20  O           1     -19.281  -8.725  -4.136  0.00  0.00    -0.271 OA
BRANCH  19  21
HETATM   21  C           1     -20.245 -10.607  -5.179  0.00  0.00     0.283 C 
BRANCH  21  22
HETATM   22  C           1     -18.880 -11.218  -5.468  0.00  0.00     0.113 C 
BRANCH  22  23
HETATM   23  S           1     -18.923 -12.063  -7.074  0.00  0.00    -0.180 SA
HETATM   24  H           1     -18.665 -13.292  -6.593  0.00  0.00     0.101 HD
ENDBRANCH  22  23
ENDBRANCH  21  22
BRANCH  21  25
HETATM   25  N           1     -21.151 -10.830  -6.354  0.00  0.00    -0.066 N 
HETATM   26  H           1     -21.349  -9.915  -6.818  0.00  0.00     0.275 HD
HETATM   27  H           1     -22.048 -11.256  -6.027  0.00  0.00     0.275 HD
HETATM   28  H           1     -20.688 -11.474  -7.034  0.00  0.00     0.275 HD
ENDBRANCH  21  25
ENDBRANCH  19  21
ENDBRANCH   1  17
TORSDOF 10
ENDMDL
MODEL 6
REMARK VINA RESULT:      -5.5     14.748     16.306
REMARK  10 active torsions:
REMARK  status: ('A' for Active; 'I' for Inactive)
REMARK    1  A    between atoms: S_5  and  C_6 
REMARK    2  A    between atoms: C_6  and  C_28 
REMARK    3  A    between atoms: C_7  and  C_8 
REMARK    4  A    between atoms: C_7  and  C_19 
REMARK    5  A    between atoms: C_7  and  N_15 
REMARK    6  A    between atoms: C_8  and  C_9 
REMARK    7  A    between atoms: C_9  and  C_10 
REMARK    8  A    between atoms: C_10  and  N_11 
REMARK       I    between atoms: N_11  and  C_13 
REMARK       I    between atoms: N_12  and  C_13 
REMARK       I    between atoms: C_14  and  N_15 
REMARK    9  A    between atoms: C_14  and  C_28 
REMARK   10  A    between atoms: N_21  and  C_28 
ROOT
HETATM    1  C           1     -20.826  -6.835  -4.789  0.00  0.00     0.185 C 
ENDROOT
BRANCH   1   2
HETATM    2  C           1     -21.981  -6.713  -3.804  0.00  0.00     0.038 C 
BRANCH   2   3
HETATM    3  C           1     -21.494  -6.038  -2.529  0.00  0.00     0.023 C 
BRANCH   3   4
HETATM    4  C           1     -22.278  -6.575  -1.339  0.00  0.00     0.138 C 
BRANCH   4   5
HETATM    5  N           1     -22.025  -8.016  -1.194  0.00  0.00    -0.227 N 
HETATM    6  C           1     -22.616  -8.674  -0.289  0.00  0.00     0.665 C 
HETATM    7  N           1     -23.425  -8.092   0.492  0.00  0.00    -0.235 N 
HETATM    8  N           1     -22.392  -9.948  -0.161  0.00  0.00    -0.235 N 
HETATM    9  H           1     -23.606  -7.063   0.389  0.00  0.00     0.174 HD
HETATM   10  H           1     -23.914  -8.638   1.243  0.00  0.00     0.174 HD
HETATM   11  H           1     -21.724 -10.429  -0.806  0.00  0.00     0.174 HD
HETATM   12  H           1     -22.879 -10.493   0.586  0.00  0.00     0.174 HD
HETATM   13  H           1     -21.355  -8.499  -1.842  0.00  0.00     0.177 HD
ENDBRANCH   4   5
ENDBRANCH   3   4
ENDBRANCH   2   3
ENDBRANCH   1   2
BRANCH   1  14
HETATM   14  C           1     -20.331  -8.260  -4.811  0.00  0.00     0.196 C 
HETATM   15  O           1     -19.493  -8.618  -5.667  0.00  0.00    -0.646 OA
HETATM   16  O           1     -20.757  -9.082  -3.972  0.00  0.00    -0.646 OA
ENDBRANCH   1  14
BRANCH   1  17
HETATM   17  N           1     -21.280  -6.461  -6.114  0.00  0.00    -0.345 N 
HETATM   18  H           1     -21.802  -7.121  -6.676  0.00  0.00     0.163 HD
HETATM   19  C           1     -21.000  -5.214  -6.607  0.00  0.00     0.249 C 
HETATM   20  O           1     -20.376  -4.426  -5.936  0.00  0.00    -0.271 OA
BRANCH  19  21
HETATM   21  C           1     -21.472  -4.824  -7.986  0.00  0.00     0.283 C 
BRANCH  21  22
HETATM   22  C           1     -20.269  -4.518  -8.868  0.00  0.00     0.113 C 
BRANCH  22  23
HETATM   23  S           1     -20.833  -4.134 -10.550  0.00  0.00    -0.180 SA
HETATM   24  H           1     -19.622  -4.222 -11.128  0.00  0.00     0.101 HD
ENDBRANCH  22  23
ENDBRANCH  21  22
BRANCH  21  25
HETATM   25  N           1     -22.343  -3.606  -7.889  0.00  0.00    -0.066 N 
HETATM   26  H           1     -22.378  -3.129  -8.819  0.00  0.00     0.275 HD
HETATM   27  H           1     -21.949  -2.950  -7.178  0.00  0.00     0.275 HD
HETATM   28  H           1     -23.308  -3.889  -7.605  0.00  0.00     0.275 HD
ENDBRANCH  21  25
ENDBRANCH  19  21
ENDBRANCH   1  17
TORSDOF 10
ENDMDL
MODEL 7
REMARK VINA RESULT:      -5.3      3.101      4.073
REMARK  10 active torsions:
REMARK  status: ('A' for Active; 'I' for Inactive)
REMARK    1  A    between atoms: S_5  and  C_6 
REMARK    2  A    between atoms: C_6  and  C_28 
REMARK    3  A    between atoms: C_7  and  C_8 
REMARK    4  A    between atoms: C_7  and  C_19 
REMARK    5  A    between atoms: C_7  and  N_15 
REMARK    6  A    between atoms: C_8  and  C_9 
REMARK    7  A    between atoms: C_9  and  C_10 
REMARK    8  A    between atoms: C_10  and  N_11 
REMARK       I    between atoms: N_11  and  C_13 
REMARK       I    between atoms: N_12  and  C_13 
REMARK       I    between atoms: C_14  and  N_15 
REMARK    9  A    between atoms: C_14  and  C_28 
REMARK   10  A    between atoms: N_21  and  C_28 
ROOT
HETATM    1  C           1     -34.981  -2.898 -12.021  0.00  0.00     0.185 C 
ENDROOT
BRANCH   1   2
HETATM    2  C           1     -34.783  -4.226 -12.741  0.00  0.00     0.038 C 
BRANCH   2   3
HETATM    3  C           1     -33.689  -4.079 -13.789  0.00  0.00     0.023 C 
BRANCH   3   4
HETATM    4  C           1     -34.212  -4.551 -15.139  0.00  0.00     0.138 C 
BRANCH   4   5
HETATM    5  N           1     -33.662  -3.700 -16.204  0.00  0.00    -0.227 N 
HETATM    6  C           1     -32.604  -4.045 -16.806  0.00  0.00     0.665 C 
HETATM    7  N           1     -32.018  -5.123 -16.492  0.00  0.00    -0.235 N 
HETATM    8  N           1     -32.117  -3.292 -17.748  0.00  0.00    -0.235 N 
HETATM    9  H           1     -32.411  -5.731 -15.731  0.00  0.00     0.174 HD
HETATM   10  H           1     -31.140  -5.409 -16.991  0.00  0.00     0.174 HD
HETATM   11  H           1     -32.599  -2.402 -18.008  0.00  0.00     0.174 HD
HETATM   12  H           1     -31.243  -3.576 -18.245  0.00  0.00     0.174 HD
HETATM   13  H           1     -34.147  -2.806 -16.465  0.00  0.00     0.177 HD
ENDBRANCH   4   5
ENDBRANCH   3   4
ENDBRANCH   2   3
ENDBRANCH   1   2
BRANCH   1  14
HETATM   14  C           1     -33.922  -2.739 -10.959  0.00  0.00     0.196 C 
HETATM   15  O           1     -33.531  -3.733 -10.310  0.00  0.00    -0.646 OA
HETATM   16  O           1     -33.434  -1.611 -10.727  0.00  0.00    -0.646 OA
ENDBRANCH   1  14
BRANCH   1  17
HETATM   17  N           1     -34.875  -1.812 -12.976  0.00  0.00    -0.345 N 
HETATM   18  H           1     -34.054  -1.732 -13.563  0.00  0.00     0.163 HD
HETATM   19  C           1     -35.884  -0.893 -13.082  0.00  0.00     0.249 C 
HETATM   20  O           1     -36.864  -0.988 -12.381  0.00  0.00    -0.271 OA
BRANCH  19  21
HETATM   21  C           1     -35.774   0.238 -14.075  0.00  0.00     0.283 C 
BRANCH  21  22
HETATM   22  C           1     -36.162  -0.263 -15.461  0.00  0.00     0.113 C 
BRANCH  22  23
HETATM   23  S           1     -37.955  -0.091 -15.687  0.00  0.00    -0.180 SA
HETATM   24  H           1     -38.215  -1.409 -15.754  0.00  0.00     0.101 HD
ENDBRANCH  22  23
ENDBRANCH  21  22
BRANCH  21  25
HETATM   25  N           1     -34.361   0.741 -14.103  0.00  0.00    -0.066 N 
HETATM   26  H           1     -34.310   1.662 -13.610  0.00  0.00     0.275 HD
HETATM   27  H           1     -34.054   0.862 -15.095  0.00  0.00     0.275 HD
HETATM   28  H           1     -33.737   0.054 -13.626  0.00  0.00     0.275 HD
ENDBRANCH  21  25
ENDBRANCH  19  21
ENDBRANCH   1  17
TORSDOF 10
ENDMDL
MODEL 8
REMARK VINA RESULT:      -5.1      4.140      6.855
REMARK  10 active torsions:
REMARK  status: ('A' for Active; 'I' for Inactive)
REMARK    1  A    between atoms: S_5  and  C_6 
REMARK    2  A    between atoms: C_6  and  C_28 
REMARK    3  A    between atoms: C_7  and  C_8 
REMARK    4  A    between atoms: C_7  and  C_19 
REMARK    5  A    between atoms: C_7  and  N_15 
REMARK    6  A    between atoms: C_8  and  C_9 
REMARK    7  A    between atoms: C_9  and  C_10 
REMARK    8  A    between atoms: C_10  and  N_11 
REMARK       I    between atoms: N_11  and  C_13 
REMARK       I    between atoms: N_12  and  C_13 
REMARK       I    between atoms: C_14  and  N_15 
REMARK    9  A    between atoms: C_14  and  C_28 
REMARK   10  A    between atoms: N_21  and  C_28 
ROOT
HETATM    1  C           1     -34.905  -1.906 -11.518  0.00  0.00     0.185 C 
ENDROOT
BRANCH   1   2
HETATM    2  C           1     -34.709  -1.191 -12.848  0.00  0.00     0.038 C 
BRANCH   2   3
HETATM    3  C           1     -35.850  -0.207 -13.070  0.00  0.00     0.023 C 
BRANCH   3   4
HETATM    4  C           1     -36.262  -0.229 -14.536  0.00  0.00     0.138 C 
BRANCH   4   5
HETATM    5  N           1     -35.841   1.022 -15.183  0.00  0.00    -0.227 N 
HETATM    6  C           1     -36.665   1.681 -15.882  0.00  0.00     0.665 C 
HETATM    7  N           1     -37.852   1.264 -16.024  0.00  0.00    -0.235 N 
HETATM    8  N           1     -36.293   2.788 -16.454  0.00  0.00    -0.235 N 
HETATM    9  H           1     -38.152   0.370 -15.562  0.00  0.00     0.174 HD
HETATM   10  H           1     -38.535   1.811 -16.603  0.00  0.00     0.174 HD
HETATM   11  H           1     -35.313   3.133 -16.337  0.00  0.00     0.174 HD
HETATM   12  H           1     -36.973   3.333 -17.031  0.00  0.00     0.174 HD
HETATM   13  H           1     -34.857   1.368 -15.066  0.00  0.00     0.177 HD
ENDBRANCH   4   5
ENDBRANCH   3   4
ENDBRANCH   2   3
ENDBRANCH   1   2
BRANCH   1  14
HETATM   14  C           1     -33.577  -2.423 -11.024  0.00  0.00     0.196 C 
HETATM   15  O           1     -33.234  -3.600 -11.268  0.00  0.00    -0.646 OA
HETATM   16  O           1     -32.819  -1.675 -10.370  0.00  0.00    -0.646 OA
ENDBRANCH   1  14
BRANCH   1  17
HETATM   17  N           1     -35.454  -0.978 -10.548  0.00  0.00    -0.345 N 
HETATM   18  H           1     -34.971  -0.111 -10.347  0.00  0.00     0.163 HD
HETATM   19  C           1     -36.623  -1.276  -9.901  0.00  0.00     0.249 C 
HETATM   20  O           1     -37.199  -2.311 -10.140  0.00  0.00    -0.271 OA
BRANCH  19  21
HETATM   21  C           1     -37.194  -0.311  -8.891  0.00  0.00     0.283 C 
BRANCH  21  22
HETATM   22  C           1     -37.821   0.873  -9.617  0.00  0.00     0.113 C 
BRANCH  22  23
HETATM   23  S           1     -38.075   2.236  -8.445  0.00  0.00    -0.180 SA
HETATM   24  H           1     -38.938   2.923  -9.214  0.00  0.00     0.101 HD
ENDBRANCH  22  23
ENDBRANCH  21  22
BRANCH  21  25
HETATM   25  N           1     -36.097   0.179  -7.993  0.00  0.00    -0.066 N 
HETATM   26  H           1     -35.201  -0.297  -8.247  0.00  0.00     0.275 HD
HETATM   27  H           1     -36.336  -0.040  -6.999  0.00  0.00     0.275 HD
HETATM   28  H           1     -35.989   1.211  -8.106  0.00  0.00     0.275 HD
ENDBRANCH  21  25
ENDBRANCH  19  21
ENDBRANCH   1  17
TORSDOF 10
ENDMDL
MODEL 9
REMARK VINA RESULT:      -5.1      2.598      3.227
REMARK  10 active torsions:
REMARK  status: ('A' for Active; 'I' for Inactive)
REMARK    1  A    between atoms: S_5  and  C_6 
REMARK    2  A    between atoms: C_6  and  C_28 
REMARK    3  A    between atoms: C_7  and  C_8 
REMARK    4  A    between atoms: C_7  and  C_19 
REMARK    5  A    between atoms: C_7  and  N_15 
REMARK    6  A    between atoms: C_8  and  C_9 
REMARK    7  A    between atoms: C_9  and  C_10 
REMARK    8  A    between atoms: C_10  and  N_11 
REMARK       I    between atoms: N_11  and  C_13 
REMARK       I    between atoms: N_12  and  C_13 
REMARK       I    between atoms: C_14  and  N_15 
REMARK    9  A    between atoms: C_14  and  C_28 
REMARK   10  A    between atoms: N_21  and  C_28 
ROOT
HETATM    1  C           1     -35.383  -1.776 -11.473  0.00  0.00     0.185 C 
ENDROOT
BRANCH   1   2
HETATM    2  C           1     -34.048  -2.357 -11.026  0.00  0.00     0.038 C 
BRANCH   2   3
HETATM    3  C           1     -33.853  -3.729 -11.657  0.00  0.00     0.023 C 
BRANCH   3   4
HETATM    4  C           1     -34.343  -3.700 -13.098  0.00  0.00     0.138 C 
BRANCH   4   5
HETATM    5  N           1     -33.282  -4.194 -13.987  0.00  0.00    -0.227 N 
HETATM    6  C           1     -33.455  -4.193 -15.241  0.00  0.00     0.665 C 
HETATM    7  N           1     -34.543  -3.766 -15.730  0.00  0.00    -0.235 N 
HETATM    8  N           1     -32.517  -4.629 -16.027  0.00  0.00    -0.235 N 
HETATM    9  H           1     -35.301  -3.414 -15.095  0.00  0.00     0.174 HD
HETATM   10  H           1     -34.687  -3.766 -16.770  0.00  0.00     0.174 HD
HETATM   11  H           1     -31.619  -4.981 -15.625  0.00  0.00     0.174 HD
HETATM   12  H           1     -32.660  -4.629 -17.063  0.00  0.00     0.174 HD
HETATM   13  H           1     -32.380  -4.547 -13.582  0.00  0.00     0.177 HD
ENDBRANCH   4   5
ENDBRANCH   3   4
ENDBRANCH   2   3
ENDBRANCH   1   2
BRANCH   1  14
HETATM   14  C           1     -36.115  -1.219 -10.277  0.00  0.00     0.196 C 
HETATM   15  O           1     -37.365  -1.194 -10.265  0.00  0.00    -0.646 OA
HETATM   16  O           1     -35.472  -0.783  -9.298  0.00  0.00    -0.646 OA
ENDBRANCH   1  14
BRANCH   1  17
HETATM   17  N           1     -35.151  -0.716 -12.434  0.00  0.00    -0.345 N 
HETATM   18  H           1     -34.299  -0.170 -12.390  0.00  0.00     0.163 HD
HETATM   19  C           1     -36.083  -0.452 -13.401  0.00  0.00     0.249 C 
HETATM   20  O           1     -37.100  -1.104 -13.453  0.00  0.00    -0.271 OA
BRANCH  19  21
HETATM   21  C           1     -35.842   0.651 -14.402  0.00  0.00     0.283 C 
BRANCH  21  22
HETATM   22  C           1     -36.810   0.501 -15.568  0.00  0.00     0.113 C 
BRANCH  22  23
HETATM   23  S           1     -36.192  -0.769 -16.709  0.00  0.00    -0.180 SA
HETATM   24  H           1     -37.131  -0.579 -17.652  0.00  0.00     0.101 HD
ENDBRANCH  22  23
ENDBRANCH  21  22
BRANCH  21  25
HETATM   25  N           1     -34.432   0.565 -14.909  0.00  0.00    -0.066 N 
HETATM   26  H           1     -33.778   0.462 -14.101  0.00  0.00     0.275 HD
HETATM   27  H           1     -34.198   1.436 -15.437  0.00  0.00     0.275 HD
HETATM   28  H           1     -34.339  -0.261 -15.541  0.00  0.00     0.275 HD
ENDBRANCH  21  25
ENDBRANCH  19  21
ENDBRANCH   1  17
TORSDOF 10
ENDMDL
