MODEL 1
REMARK VINA RESULT:      -6.6      0.000      0.000
REMARK  5 active torsions:
REMARK  status: ('A' for Active; 'I' for Inactive)
REMARK    1  A    between atoms: C_3  and  C_6 
REMARK    2  A    between atoms: C_3  and  C_17 
REMARK    3  A    between atoms: C_9  and  C_10 
REMARK       I    between atoms: C_10  and  N_15 
REMARK    4  A    between atoms: N_15  and  C_17 
REMARK    5  A    between atoms: C_16  and  C_17 
ROOT
HETATM    1  H           1     -35.308   0.231 -12.313  0.00  0.00     0.162 HD
HETATM    2  C           1     -35.027  -1.220 -13.763  0.00  0.00     0.133 C 
HETATM    3  N           1     -35.272  -0.764 -12.496  0.00  0.00    -0.359 N 
HETATM    4  O           1     -34.984  -2.408 -13.979  0.00  0.00    -0.397 OA
ENDROOT
BRANCH   3   5
HETATM    5  C           1     -35.482  -1.708 -11.414  0.00  0.00     0.184 C 
BRANCH   5   6
HETATM    6  C           1     -34.165  -1.946 -10.685  0.00  0.00     0.040 C 
BRANCH   6   7
HETATM    7  C           1     -33.872  -3.439 -10.643  0.00  0.00    -0.018 C 
HETATM    8  C           1     -32.793  -3.775 -11.664  0.00  0.00     0.289 C 
HETATM    9  C           1     -35.140  -4.215 -10.971  0.00  0.00     0.009 C 
ENDBRANCH   6   7
ENDBRANCH   5   6
BRANCH   5  10
HETATM   10  C           1     -36.496  -1.146 -10.447  0.00  0.00     0.196 C 
HETATM   11  O           1     -36.118  -0.642  -9.368  0.00  0.00    -0.646 OA
HETATM   12  O           1     -37.714  -1.186 -10.726  0.00  0.00    -0.646 OA
ENDBRANCH   5  10
ENDBRANCH   3   5
BRANCH   2  13
HETATM   13  C           1     -34.810  -0.239 -14.889  0.00  0.00     0.292 C 
HETATM   14  C           1     -35.718   0.968 -14.737  0.00  0.00     0.046 C 
HETATM   15  C           1     -36.942   0.653 -15.588  0.00  0.00     0.033 C 
HETATM   16  C           1     -36.667  -0.715 -16.187  0.00  0.00     0.270 C 
HETATM   17  N           1     -35.211  -0.817 -16.167  0.00  0.00     0.095 N 
HETATM   18  H           1     -34.822  -0.284 -16.945  0.00  0.00     0.316 HD
ENDBRANCH   2  13
TORSDOF 5
ENDMDL
MODEL 2
REMARK VINA RESULT:      -6.0      2.398      5.010
REMARK  5 active torsions:
REMARK  status: ('A' for Active; 'I' for Inactive)
REMARK    1  A    between atoms: C_3  and  C_6 
REMARK    2  A    between atoms: C_3  and  C_17 
REMARK    3  A    between atoms: C_9  and  C_10 
REMARK       I    between atoms: C_10  and  N_15 
REMARK    4  A    between atoms: N_15  and  C_17 
REMARK    5  A    between atoms: C_16  and  C_17 
ROOT
HETATM    1  H           1     -34.445  -0.877 -11.327  0.00  0.00     0.162 HD
HETATM    2  C           1     -34.173  -2.605 -12.432  0.00  0.00     0.133 C 
HETATM    3  N           1     -34.731  -1.387 -12.153  0.00  0.00    -0.359 N 
HETATM    4  O           1     -34.516  -3.214 -13.419  0.00  0.00    -0.397 OA
ENDROOT
BRANCH   3   5
HETATM    5  C           1     -35.732  -0.826 -13.041  0.00  0.00     0.184 C 
BRANCH   5   6
HETATM    6  C           1     -36.813  -0.139 -12.218  0.00  0.00     0.040 C 
BRANCH   6   7
HETATM    7  C           1     -36.486  -0.271 -10.737  0.00  0.00    -0.018 C 
HETATM    8  C           1     -37.052  -1.581 -10.206  0.00  0.00     0.289 C 
HETATM    9  C           1     -37.102   0.894  -9.975  0.00  0.00     0.009 C 
ENDBRANCH   6   7
ENDBRANCH   5   6
BRANCH   5  10
HETATM   10  C           1     -35.081   0.181 -13.958  0.00  0.00     0.196 C 
HETATM   11  O           1     -34.752   1.304 -13.519  0.00  0.00    -0.646 OA
HETATM   12  O           1     -34.874  -0.107 -15.156  0.00  0.00    -0.646 OA
ENDBRANCH   5  10
ENDBRANCH   3   5
BRANCH   2  13
HETATM   13  C           1     -33.132  -3.189 -11.509  0.00  0.00     0.292 C 
HETATM   14  C           1     -32.604  -4.504 -12.053  0.00  0.00     0.046 C 
HETATM   15  C           1     -33.442  -5.580 -11.373  0.00  0.00     0.033 C 
HETATM   16  C           1     -34.401  -4.824 -10.470  0.00  0.00     0.270 C 
HETATM   17  N           1     -33.722  -3.555 -10.225  0.00  0.00     0.095 N 
HETATM   18  H           1     -32.998  -3.688  -9.519  0.00  0.00     0.316 HD
ENDBRANCH   2  13
TORSDOF 5
ENDMDL
MODEL 3
REMARK VINA RESULT:      -5.8      2.808      4.971
REMARK  5 active torsions:
REMARK  status: ('A' for Active; 'I' for Inactive)
REMARK    1  A    between atoms: C_3  and  C_6 
REMARK    2  A    between atoms: C_3  and  C_17 
REMARK    3  A    between atoms: C_9  and  C_10 
REMARK       I    between atoms: C_10  and  N_15 
REMARK    4  A    between atoms: N_15  and  C_17 
REMARK    5  A    between atoms: C_16  and  C_17 
ROOT
HETATM    1  H           1     -34.935  -0.677 -10.329  0.00  0.00     0.162 HD
HETATM    2  C           1     -35.456  -2.668 -10.544  0.00  0.00     0.133 C 
HETATM    3  N           1     -35.688  -1.319 -10.540  0.00  0.00    -0.359 N 
HETATM    4  O           1     -36.355  -3.435 -10.797  0.00  0.00    -0.397 OA
ENDROOT
BRANCH   3   5
HETATM    5  C           1     -37.013  -0.810 -10.840  0.00  0.00     0.184 C 
BRANCH   5   6
HETATM    6  C           1     -37.392   0.254  -9.817  0.00  0.00     0.040 C 
BRANCH   6   7
HETATM    7  C           1     -36.885  -0.160  -8.443  0.00  0.00    -0.018 C 
HETATM    8  C           1     -38.069  -0.437  -7.527  0.00  0.00     0.289 C 
HETATM    9  C           1     -36.039   0.961  -7.855  0.00  0.00     0.009 C 
ENDBRANCH   6   7
ENDBRANCH   5   6
BRANCH   5  10
HETATM   10  C           1     -37.017  -0.203 -12.222  0.00  0.00     0.196 C 
HETATM   11  O           1     -35.969   0.289 -12.691  0.00  0.00    -0.646 OA
HETATM   12  O           1     -38.069  -0.193 -12.896  0.00  0.00    -0.646 OA
ENDBRANCH   5  10
ENDBRANCH   3   5
BRANCH   2  13
HETATM   13  C           1     -34.077  -3.198 -10.233  0.00  0.00     0.292 C 
HETATM   14  C           1     -33.076  -2.748 -11.283  0.00  0.00     0.046 C 
HETATM   15  C           1     -33.012  -3.894 -12.286  0.00  0.00     0.033 C 
HETATM   16  C           1     -33.975  -4.941 -11.755  0.00  0.00     0.270 C 
HETATM   17  N           1     -34.047  -4.654 -10.325  0.00  0.00     0.095 N 
HETATM   18  H           1     -33.220  -5.029  -9.861  0.00  0.00     0.316 HD
ENDBRANCH   2  13
TORSDOF 5
ENDMDL
MODEL 4
REMARK VINA RESULT:      -5.7     15.212     16.947
REMARK  5 active torsions:
REMARK  status: ('A' for Active; 'I' for Inactive)
REMARK    1  A    between atoms: C_3  and  C_6 
REMARK    2  A    between atoms: C_3  and  C_17 
REMARK    3  A    between atoms: C_9  and  C_10 
REMARK       I    between atoms: C_10  and  N_15 
REMARK    4  A    between atoms: N_15  and  C_17 
REMARK    5  A    between atoms: C_16  and  C_17 
ROOT
HETATM    1  H           1     -22.374  -5.663  -5.827  0.00  0.00     0.162 HD
HETATM    2  C           1     -20.564  -4.723  -6.178  0.00  0.00     0.133 C 
HETATM    3  N           1     -21.385  -5.661  -5.612  0.00  0.00    -0.359 N 
HETATM    4  O           1     -19.384  -4.721  -5.921  0.00  0.00    -0.397 OA
ENDROOT
BRANCH   3   5
HETATM    5  C           1     -20.837  -6.652  -4.706  0.00  0.00     0.184 C 
BRANCH   5   6
HETATM    6  C           1     -21.868  -6.986  -3.635  0.00  0.00     0.040 C 
BRANCH   6   7
HETATM    7  C           1     -21.231  -6.854  -2.259  0.00  0.00    -0.018 C 
HETATM    8  C           1     -20.445  -8.118  -1.940  0.00  0.00     0.289 C 
HETATM    9  C           1     -22.319  -6.656  -1.212  0.00  0.00     0.009 C 
ENDBRANCH   6   7
ENDBRANCH   5   6
BRANCH   5  10
HETATM   10  C           1     -20.492  -7.902  -5.478  0.00  0.00     0.196 C 
HETATM   11  O           1     -21.402  -8.613  -5.955  0.00  0.00    -0.646 OA
HETATM   12  O           1     -19.296  -8.227  -5.640  0.00  0.00    -0.646 OA
ENDBRANCH   5  10
ENDBRANCH   3   5
BRANCH   2  13
HETATM   13  C           1     -21.134  -3.692  -7.121  0.00  0.00     0.292 C 
HETATM   14  C           1     -22.445  -4.171  -7.718  0.00  0.00     0.046 C 
HETATM   15  C           1     -22.066  -4.808  -9.049  0.00  0.00     0.033 C 
HETATM   16  C           1     -20.559  -4.654  -9.148  0.00  0.00     0.270 C 
HETATM   17  N           1     -20.267  -3.514  -8.282  0.00  0.00     0.095 N 
HETATM   18  H           1     -20.492  -2.649  -8.773  0.00  0.00     0.316 HD
ENDBRANCH   2  13
TORSDOF 5
ENDMDL
MODEL 5
REMARK VINA RESULT:      -5.4     16.662     18.794
REMARK  5 active torsions:
REMARK  status: ('A' for Active; 'I' for Inactive)
REMARK    1  A    between atoms: C_3  and  C_6 
REMARK    2  A    between atoms: C_3  and  C_17 
REMARK    3  A    between atoms: C_9  and  C_10 
REMARK       I    between atoms: C_10  and  N_15 
REMARK    4  A    between atoms: N_15  and  C_17 
REMARK    5  A    between atoms: C_16  and  C_17 
ROOT
HETATM    1  H           1     -20.959  -8.777  -4.039  0.00  0.00     0.162 HD
HETATM    2  C           1     -21.582  -6.846  -3.629  0.00  0.00     0.133 C 
HETATM    3  N           1     -21.039  -8.065  -3.324  0.00  0.00    -0.359 N 
HETATM    4  O           1     -21.677  -5.997  -2.775  0.00  0.00    -0.397 OA
ENDROOT
BRANCH   3   5
HETATM    5  C           1     -20.575  -8.335  -1.977  0.00  0.00     0.184 C 
BRANCH   5   6
HETATM    6  C           1     -21.729  -8.878  -1.142  0.00  0.00     0.040 C 
BRANCH   6   7
HETATM    7  C           1     -21.860  -8.059   0.134  0.00  0.00    -0.018 C 
HETATM    8  C           1     -21.078  -8.732   1.254  0.00  0.00     0.289 C 
HETATM    9  C           1     -23.328  -7.965   0.528  0.00  0.00     0.009 C 
ENDBRANCH   6   7
ENDBRANCH   5   6
BRANCH   5  10
HETATM   10  C           1     -19.465  -9.357  -2.023  0.00  0.00     0.196 C 
HETATM   11  O           1     -19.591 -10.445  -1.421  0.00  0.00    -0.646 OA
HETATM   12  O           1     -18.419  -9.114  -2.663  0.00  0.00    -0.646 OA
ENDBRANCH   5  10
ENDBRANCH   3   5
BRANCH   2  13
HETATM   13  C           1     -22.064  -6.564  -5.031  0.00  0.00     0.292 C 
HETATM   14  C           1     -21.253  -7.346  -6.049  0.00  0.00     0.046 C 
HETATM   15  C           1     -20.159  -6.388  -6.505  0.00  0.00     0.033 C 
HETATM   16  C           1     -20.406  -5.106  -5.729  0.00  0.00     0.270 C 
HETATM   17  N           1     -21.825  -5.170  -5.392  0.00  0.00     0.095 N 
HETATM   18  H           1     -22.380  -4.906  -6.207  0.00  0.00     0.316 HD
ENDBRANCH   2  13
TORSDOF 5
ENDMDL
MODEL 6
REMARK VINA RESULT:      -5.3     15.556     17.084
REMARK  5 active torsions:
REMARK  status: ('A' for Active; 'I' for Inactive)
REMARK    1  A    between atoms: C_3  and  C_6 
REMARK    2  A    between atoms: C_3  and  C_17 
REMARK    3  A    between atoms: C_9  and  C_10 
REMARK       I    between atoms: C_10  and  N_15 
REMARK    4  A    between atoms: N_15  and  C_17 
REMARK    5  A    between atoms: C_16  and  C_17 
ROOT
HETATM    1  H           1     -19.697  -6.092  -4.630  0.00  0.00     0.162 HD
HETATM    2  C           1     -21.375  -5.397  -5.622  0.00  0.00     0.133 C 
HETATM    3  N           1     -20.692  -6.221  -4.769  0.00  0.00    -0.359 N 
HETATM    4  O           1     -22.562  -5.552  -5.787  0.00  0.00    -0.397 OA
ENDROOT
BRANCH   3   5
HETATM    5  C           1     -21.392  -7.277  -4.063  0.00  0.00     0.184 C 
BRANCH   5   6
HETATM    6  C           1     -20.565  -8.556  -4.112  0.00  0.00     0.040 C 
BRANCH   6   7
HETATM    7  C           1     -21.427  -9.699  -4.627  0.00  0.00    -0.018 C 
HETATM    8  C           1     -22.034 -10.449  -3.449  0.00  0.00     0.289 C 
HETATM    9  C           1     -20.570 -10.653  -5.447  0.00  0.00     0.009 C 
ENDBRANCH   6   7
ENDBRANCH   5   6
BRANCH   5  10
HETATM   10  C           1     -21.601  -6.868  -2.625  0.00  0.00     0.196 C 
HETATM   11  O           1     -20.953  -7.429  -1.716  0.00  0.00    -0.646 OA
HETATM   12  O           1     -22.422  -5.969  -2.344  0.00  0.00    -0.646 OA
ENDBRANCH   5  10
ENDBRANCH   3   5
BRANCH   2  13
HETATM   13  C           1     -20.648  -4.298  -6.356  0.00  0.00     0.292 C 
HETATM   14  C           1     -21.533  -3.684  -7.426  0.00  0.00     0.046 C 
HETATM   15  C           1     -21.178  -4.427  -8.708  0.00  0.00     0.033 C 
HETATM   16  C           1     -20.103  -5.422  -8.306  0.00  0.00     0.270 C 
HETATM   17  N           1     -19.516  -4.833  -7.105  0.00  0.00     0.095 N 
HETATM   18  H           1     -18.872  -4.088  -7.372  0.00  0.00     0.316 HD
ENDBRANCH   2  13
TORSDOF 5
ENDMDL
MODEL 7
REMARK VINA RESULT:      -5.3     16.965     18.223
REMARK  5 active torsions:
REMARK  status: ('A' for Active; 'I' for Inactive)
REMARK    1  A    between atoms: C_3  and  C_6 
REMARK    2  A    between atoms: C_3  and  C_17 
REMARK    3  A    between atoms: C_9  and  C_10 
REMARK       I    between atoms: C_10  and  N_15 
REMARK    4  A    between atoms: N_15  and  C_17 
REMARK    5  A    between atoms: C_16  and  C_17 
ROOT
HETATM    1  H           1     -21.967  -7.352  -3.915  0.00  0.00     0.162 HD
HETATM    2  C           1     -20.471  -7.586  -5.326  0.00  0.00     0.133 C 
HETATM    3  N           1     -21.092  -7.815  -4.128  0.00  0.00    -0.359 N 
HETATM    4  O           1     -19.427  -8.139  -5.580  0.00  0.00    -0.397 OA
ENDROOT
BRANCH   3   5
HETATM    5  C           1     -20.499  -8.722  -3.164  0.00  0.00     0.184 C 
BRANCH   5   6
HETATM    6  C           1     -20.459  -8.053  -1.796  0.00  0.00     0.040 C 
BRANCH   6   7
HETATM    7  C           1     -21.880  -7.775  -1.326  0.00  0.00    -0.018 C 
HETATM    8  C           1     -22.194  -6.296  -1.504  0.00  0.00     0.289 C 
HETATM    9  C           1     -22.010  -8.148   0.145  0.00  0.00     0.009 C 
ENDBRANCH   6   7
ENDBRANCH   5   6
BRANCH   5  10
HETATM   10  C           1     -21.326  -9.982  -3.084  0.00  0.00     0.196 C 
HETATM   11  O           1     -22.336 -10.113  -3.808  0.00  0.00    -0.646 OA
HETATM   12  O           1     -21.000 -10.894  -2.295  0.00  0.00    -0.646 OA
ENDBRANCH   5  10
ENDBRANCH   3   5
BRANCH   2  13
HETATM   13  C           1     -21.089  -6.644  -6.330  0.00  0.00     0.292 C 
HETATM   14  C           1     -20.046  -6.141  -7.312  0.00  0.00     0.046 C 
HETATM   15  C           1     -19.569  -4.812  -6.739  0.00  0.00     0.033 C 
HETATM   16  C           1     -20.369  -4.621  -5.463  0.00  0.00     0.270 C 
HETATM   17  N           1     -21.566  -5.429  -5.677  0.00  0.00     0.095 N 
HETATM   18  H           1     -22.213  -4.923  -6.281  0.00  0.00     0.316 HD
ENDBRANCH   2  13
TORSDOF 5
ENDMDL
MODEL 8
REMARK VINA RESULT:      -5.2     17.369     19.541
REMARK  5 active torsions:
REMARK  status: ('A' for Active; 'I' for Inactive)
REMARK    1  A    between atoms: C_3  and  C_6 
REMARK    2  A    between atoms: C_3  and  C_17 
REMARK    3  A    between atoms: C_9  and  C_10 
REMARK       I    between atoms: C_10  and  N_15 
REMARK    4  A    between atoms: N_15  and  C_17 
REMARK    5  A    between atoms: C_16  and  C_17 
ROOT
HETATM    1  H           1     -22.298  -9.343  -2.666  0.00  0.00     0.162 HD
HETATM    2  C           1     -21.275 -10.184  -1.075  0.00  0.00     0.133 C 
HETATM    3  N           1     -21.661  -9.162  -1.900  0.00  0.00    -0.359 N 
HETATM    4  O           1     -20.515  -9.967  -0.161  0.00  0.00    -0.397 OA
ENDROOT
BRANCH   3   5
HETATM    5  C           1     -21.159  -7.820  -1.677  0.00  0.00     0.184 C 
BRANCH   5   6
HETATM    6  C           1     -20.535  -7.290  -2.962  0.00  0.00     0.040 C 
BRANCH   6   7
HETATM    7  C           1     -20.946  -8.178  -4.128  0.00  0.00    -0.018 C 
HETATM    8  C           1     -19.704  -8.643  -4.876  0.00  0.00     0.289 C 
HETATM    9  C           1     -21.842  -7.391  -5.074  0.00  0.00     0.009 C 
ENDBRANCH   6   7
ENDBRANCH   5   6
BRANCH   5  10
HETATM   10  C           1     -22.298  -6.920  -1.263  0.00  0.00     0.196 C 
HETATM   11  O           1     -22.553  -5.891  -1.925  0.00  0.00    -0.646 OA
HETATM   12  O           1     -22.985  -7.203  -0.258  0.00  0.00    -0.646 OA
ENDBRANCH   5  10
ENDBRANCH   3   5
BRANCH   2  13
HETATM   13  C           1     -21.798 -11.580  -1.307  0.00  0.00     0.292 C 
HETATM   14  C           1     -23.072 -11.550  -2.133  0.00  0.00     0.046 C 
HETATM   15  C           1     -24.206 -11.569  -1.115  0.00  0.00     0.033 C 
HETATM   16  C           1     -23.522 -11.615   0.240  0.00  0.00     0.270 C 
HETATM   17  N           1     -22.213 -12.195  -0.050  0.00  0.00     0.095 N 
HETATM   18  H           1     -22.305 -13.206  -0.154  0.00  0.00     0.316 HD
ENDBRANCH   2  13
TORSDOF 5
ENDMDL
MODEL 9
REMARK VINA RESULT:      -5.2     19.141     20.639
REMARK  5 active torsions:
REMARK  status: ('A' for Active; 'I' for Inactive)
REMARK    1  A    between atoms: C_3  and  C_6 
REMARK    2  A    between atoms: C_3  and  C_17 
REMARK    3  A    between atoms: C_9  and  C_10 
REMARK       I    between atoms: C_10  and  N_15 
REMARK    4  A    between atoms: N_15  and  C_17 
REMARK    5  A    between atoms: C_16  and  C_17 
ROOT
HETATM    1  H           1     -20.745 -10.446  -2.716  0.00  0.00     0.162 HD
HETATM    2  C           1     -21.056  -8.525  -2.011  0.00  0.00     0.133 C 
HETATM    3  N           1     -20.428  -9.485  -2.757  0.00  0.00    -0.359 N 
HETATM    4  O           1     -20.676  -7.379  -2.059  0.00  0.00    -0.397 OA
ENDROOT
BRANCH   3   5
HETATM    5  C           1     -19.308  -9.127  -3.606  0.00  0.00     0.184 C 
BRANCH   5   6
HETATM    6  C           1     -18.232 -10.202  -3.508  0.00  0.00     0.040 C 
BRANCH   6   7
HETATM    7  C           1     -16.895  -9.623  -3.947  0.00  0.00    -0.018 C 
HETATM    8  C           1     -16.296 -10.497  -5.040  0.00  0.00     0.289 C 
HETATM    9  C           1     -15.946  -9.577  -2.758  0.00  0.00     0.009 C 
ENDBRANCH   6   7
ENDBRANCH   5   6
BRANCH   5  10
HETATM   10  C           1     -19.777  -9.015  -5.036  0.00  0.00     0.196 C 
HETATM   11  O           1     -20.187 -10.029  -5.640  0.00  0.00    -0.646 OA
HETATM   12  O           1     -19.755  -7.908  -5.616  0.00  0.00    -0.646 OA
ENDBRANCH   5  10
ENDBRANCH   3   5
BRANCH   2  13
HETATM   13  C           1     -22.222  -8.897  -1.128  0.00  0.00     0.292 C 
HETATM   14  C           1     -22.523  -7.787  -0.136  0.00  0.00     0.046 C 
HETATM   15  C           1     -21.769  -8.173   1.132  0.00  0.00     0.033 C 
HETATM   16  C           1     -21.081  -9.485   0.800  0.00  0.00     0.270 C 
HETATM   17  N           1     -21.890 -10.039  -0.282  0.00  0.00     0.095 N 
HETATM   18  H           1     -22.734 -10.460   0.106  0.00  0.00     0.316 HD
ENDBRANCH   2  13
TORSDOF 5
ENDMDL
