MODEL 1
REMARK VINA RESULT:      -6.6      0.000      0.000
REMARK  7 active torsions:
REMARK  status: ('A' for Active; 'I' for Inactive)
REMARK       I    between atoms: N_4  and  C_5 
REMARK       I    between atoms: C_5  and  N_6 
REMARK    1  A    between atoms: N_7  and  C_8 
REMARK    2  A    between atoms: C_8  and  C_9 
REMARK    3  A    between atoms: C_9  and  C_10 
REMARK    4  A    between atoms: C_10  and  C_11 
REMARK    5  A    between atoms: C_11  and  C_12 
REMARK    6  A    between atoms: C_11  and  N_15 
REMARK       I    between atoms: N_15  and  C_16 
REMARK    7  A    between atoms: C_16  and  C_17 
ROOT
HETATM    1  C           1     -35.221  -0.887 -11.568  0.00  0.00     0.185 C 
ENDROOT
BRANCH   1   2
HETATM    2  C           1     -35.954   0.131 -12.432  0.00  0.00     0.038 C 
BRANCH   2   3
HETATM    3  C           1     -34.997   0.698 -13.472  0.00  0.00     0.023 C 
BRANCH   3   4
HETATM    4  C           1     -35.548   0.434 -14.866  0.00  0.00     0.138 C 
BRANCH   4   5
HETATM    5  N           1     -34.938  -0.787 -15.412  0.00  0.00    -0.227 N 
HETATM    6  C           1     -35.369  -1.281 -16.494  0.00  0.00     0.665 C 
HETATM    7  N           1     -34.830  -2.361 -16.976  0.00  0.00    -0.235 N 
HETATM    8  N           1     -36.327  -0.724 -17.107  0.00  0.00    -0.235 N 
HETATM    9  H           1     -34.039  -2.822 -16.470  0.00  0.00     0.174 HD
HETATM   10  H           1     -35.186  -2.770 -17.869  0.00  0.00     0.174 HD
HETATM   11  H           1     -36.763   0.148 -16.717  0.00  0.00     0.174 HD
HETATM   12  H           1     -36.685  -1.135 -18.004  0.00  0.00     0.174 HD
HETATM   13  H           1     -34.144  -1.249 -14.904  0.00  0.00     0.177 HD
ENDBRANCH   4   5
ENDBRANCH   3   4
ENDBRANCH   2   3
ENDBRANCH   1   2
BRANCH   1  14
HETATM   14  C           1     -36.142  -1.379 -10.479  0.00  0.00     0.196 C 
HETATM   15  O           1     -36.776  -2.446 -10.631  0.00  0.00    -0.646 OA
HETATM   16  O           1     -36.271  -0.721  -9.424  0.00  0.00    -0.646 OA
ENDBRANCH   1  14
BRANCH   1  17
HETATM   17  N           1     -34.804  -2.006 -12.390  0.00  0.00    -0.345 N 
HETATM   18  C           1     -33.752  -2.789 -11.997  0.00  0.00     0.249 C 
HETATM   19  O           1     -33.171  -2.548 -10.966  0.00  0.00    -0.271 OA
HETATM   20  H           1     -35.291  -2.208 -13.253  0.00  0.00     0.163 HD
BRANCH  18  21
HETATM   21  C           1     -33.318  -3.955 -12.852  0.00  0.00     0.274 C 
HETATM   22  C           1     -34.524  -4.829 -13.168  0.00  0.00     0.042 C 
HETATM   23  C           1     -35.129  -5.349 -11.872  0.00  0.00     0.003 C 
HETATM   24 Se           1     -33.799  -6.401 -10.909  0.00  0.00     0.000 Se
HETATM   25  C           1     -34.975  -6.822  -9.414  0.00  0.00     0.000 C 
HETATM   26  H           1     -32.710  -5.120 -11.221  0.00  0.00     0.275 HD
HETATM   27  N           1     -32.295  -4.764 -12.111  0.00  0.00    -0.067 N 
HETATM   28  H           1     -31.993  -5.571 -12.702  0.00  0.00     0.275 HD
HETATM   29  H           1     -31.467  -4.163 -11.894  0.00  0.00     0.275 HD
ENDBRANCH  18  21
ENDBRANCH   1  17
TORSDOF 7
ENDMDL
MODEL 2
REMARK VINA RESULT:      -6.3     14.194     16.364
REMARK  7 active torsions:
REMARK  status: ('A' for Active; 'I' for Inactive)
REMARK       I    between atoms: N_4  and  C_5 
REMARK       I    between atoms: C_5  and  N_6 
REMARK    1  A    between atoms: N_7  and  C_8 
REMARK    2  A    between atoms: C_8  and  C_9 
REMARK    3  A    between atoms: C_9  and  C_10 
REMARK    4  A    between atoms: C_10  and  C_11 
REMARK    5  A    between atoms: C_11  and  C_12 
REMARK    6  A    between atoms: C_11  and  N_15 
REMARK       I    between atoms: N_15  and  C_16 
REMARK    7  A    between atoms: C_16  and  C_17 
ROOT
HETATM    1  C           1     -20.673  -6.789  -5.408  0.00  0.00     0.185 C 
ENDROOT
BRANCH   1   2
HETATM    2  C           1     -20.522  -6.106  -6.761  0.00  0.00     0.038 C 
BRANCH   2   3
HETATM    3  C           1     -19.973  -4.699  -6.563  0.00  0.00     0.023 C 
BRANCH   3   4
HETATM    4  C           1     -20.639  -3.751  -7.551  0.00  0.00     0.138 C 
BRANCH   4   5
HETATM    5  N           1     -22.099  -3.845  -7.414  0.00  0.00    -0.227 N 
HETATM    6  C           1     -22.830  -3.907  -8.446  0.00  0.00     0.665 C 
HETATM    7  N           1     -24.121  -3.991  -8.324  0.00  0.00    -0.235 N 
HETATM    8  N           1     -22.302  -3.888  -9.597  0.00  0.00    -0.235 N 
HETATM    9  H           1     -24.557  -4.007  -7.374  0.00  0.00     0.174 HD
HETATM   10  H           1     -24.724  -4.042  -9.176  0.00  0.00     0.174 HD
HETATM   11  H           1     -21.259  -3.820  -9.695  0.00  0.00     0.174 HD
HETATM   12  H           1     -22.908  -3.939 -10.453  0.00  0.00     0.174 HD
HETATM   13  H           1     -22.537  -3.862  -6.460  0.00  0.00     0.177 HD
ENDBRANCH   4   5
ENDBRANCH   3   4
ENDBRANCH   2   3
ENDBRANCH   1   2
BRANCH   1  14
HETATM   14  C           1     -21.887  -6.241  -4.700  0.00  0.00     0.196 C 
HETATM   15  O           1     -21.847  -6.018  -3.471  0.00  0.00    -0.646 OA
HETATM   16  O           1     -22.934  -6.009  -5.343  0.00  0.00    -0.646 OA
ENDBRANCH   1  14
BRANCH   1  17
HETATM   17  N           1     -20.831  -8.217  -5.604  0.00  0.00    -0.345 N 
HETATM   18  C           1     -20.111  -9.095  -4.839  0.00  0.00     0.249 C 
HETATM   19  O           1     -19.345  -8.682  -4.002  0.00  0.00    -0.271 OA
HETATM   20  H           1     -21.473  -8.563  -6.305  0.00  0.00     0.163 HD
BRANCH  18  21
HETATM   21  C           1     -20.276 -10.582  -5.042  0.00  0.00     0.274 C 
HETATM   22  C           1     -21.716 -10.978  -4.747  0.00  0.00     0.042 C 
HETATM   23  C           1     -22.057 -10.622  -3.306  0.00  0.00     0.003 C 
HETATM   24 Se           1     -20.861 -11.578  -2.099  0.00  0.00     0.000 Se
HETATM   25  C           1     -21.644 -10.839  -0.475  0.00  0.00     0.000 C 
HETATM   26  H           1     -19.589 -11.072  -3.124  0.00  0.00     0.275 HD
HETATM   27  N           1     -19.355 -11.317  -4.112  0.00  0.00    -0.067 N 
HETATM   28  H           1     -19.468 -12.347  -4.252  0.00  0.00     0.275 HD
HETATM   29  H           1     -18.366 -11.045  -4.315  0.00  0.00     0.275 HD
ENDBRANCH  18  21
ENDBRANCH   1  17
TORSDOF 7
ENDMDL
MODEL 3
REMARK VINA RESULT:      -6.2     14.604     16.748
REMARK  7 active torsions:
REMARK  status: ('A' for Active; 'I' for Inactive)
REMARK       I    between atoms: N_4  and  C_5 
REMARK       I    between atoms: C_5  and  N_6 
REMARK    1  A    between atoms: N_7  and  C_8 
REMARK    2  A    between atoms: C_8  and  C_9 
REMARK    3  A    between atoms: C_9  and  C_10 
REMARK    4  A    between atoms: C_10  and  C_11 
REMARK    5  A    between atoms: C_11  and  C_12 
REMARK    6  A    between atoms: C_11  and  N_15 
REMARK       I    between atoms: N_15  and  C_16 
REMARK    7  A    between atoms: C_16  and  C_17 
ROOT
HETATM    1  C           1     -20.525  -6.785  -5.309  0.00  0.00     0.185 C 
ENDROOT
BRANCH   1   2
HETATM    2  C           1     -20.200  -6.077  -6.617  0.00  0.00     0.038 C 
BRANCH   2   3
HETATM    3  C           1     -20.031  -4.585  -6.360  0.00  0.00     0.023 C 
BRANCH   3   4
HETATM    4  C           1     -20.577  -3.800  -7.545  0.00  0.00     0.138 C 
BRANCH   4   5
HETATM    5  N           1     -22.038  -3.692  -7.430  0.00  0.00    -0.227 N 
HETATM    6  C           1     -22.775  -4.012  -8.408  0.00  0.00     0.665 C 
HETATM    7  N           1     -24.068  -3.916  -8.307  0.00  0.00    -0.235 N 
HETATM    8  N           1     -22.254  -4.424  -9.486  0.00  0.00    -0.235 N 
HETATM    9  H           1     -24.499  -3.576  -7.418  0.00  0.00     0.174 HD
HETATM   10  H           1     -24.677  -4.180  -9.114  0.00  0.00     0.174 HD
HETATM   11  H           1     -21.210  -4.502  -9.568  0.00  0.00     0.174 HD
HETATM   12  H           1     -22.865  -4.689 -10.297  0.00  0.00     0.174 HD
HETATM   13  H           1     -22.471  -3.350  -6.537  0.00  0.00     0.177 HD
ENDBRANCH   4   5
ENDBRANCH   3   4
ENDBRANCH   2   3
ENDBRANCH   1   2
BRANCH   1  14
HETATM   14  C           1     -21.783  -6.199  -4.717  0.00  0.00     0.196 C 
HETATM   15  O           1     -21.823  -5.902  -3.503  0.00  0.00    -0.646 OA
HETATM   16  O           1     -22.785  -6.010  -5.440  0.00  0.00    -0.646 OA
ENDBRANCH   1  14
BRANCH   1  17
HETATM   17  N           1     -20.724  -8.199  -5.562  0.00  0.00    -0.345 N 
HETATM   18  C           1     -20.523  -9.108  -4.559  0.00  0.00     0.249 C 
HETATM   19  O           1     -20.181  -8.734  -3.463  0.00  0.00    -0.271 OA
HETATM   20  H           1     -21.010  -8.513  -6.481  0.00  0.00     0.163 HD
BRANCH  18  21
HETATM   21  C           1     -20.730 -10.580  -4.822  0.00  0.00     0.274 C 
HETATM   22  C           1     -19.789 -11.391  -3.942  0.00  0.00     0.042 C 
HETATM   23  C           1     -18.348 -11.017  -4.258  0.00  0.00     0.003 C 
HETATM   24 Se           1     -17.973 -11.400  -6.133  0.00  0.00     0.000 Se
HETATM   25  C           1     -16.123 -10.792  -6.057  0.00  0.00     0.000 C 
HETATM   26  H           1     -19.453 -10.617  -6.482  0.00  0.00     0.275 HD
HETATM   27  N           1     -20.442 -10.874  -6.265  0.00  0.00    -0.067 N 
HETATM   28  H           1     -20.585 -11.893  -6.449  0.00  0.00     0.275 HD
HETATM   29  H           1     -21.088 -10.317  -6.870  0.00  0.00     0.275 HD
ENDBRANCH  18  21
ENDBRANCH   1  17
TORSDOF 7
ENDMDL
MODEL 4
REMARK VINA RESULT:      -6.0      2.832      5.108
REMARK  7 active torsions:
REMARK  status: ('A' for Active; 'I' for Inactive)
REMARK       I    between atoms: N_4  and  C_5 
REMARK       I    between atoms: C_5  and  N_6 
REMARK    1  A    between atoms: N_7  and  C_8 
REMARK    2  A    between atoms: C_8  and  C_9 
REMARK    3  A    between atoms: C_9  and  C_10 
REMARK    4  A    between atoms: C_10  and  C_11 
REMARK    5  A    between atoms: C_11  and  C_12 
REMARK    6  A    between atoms: C_11  and  N_15 
REMARK       I    between atoms: N_15  and  C_16 
REMARK    7  A    between atoms: C_16  and  C_17 
ROOT
HETATM    1  C           1     -34.462  -3.554 -12.427  0.00  0.00     0.185 C 
ENDROOT
BRANCH   1   2
HETATM    2  C           1     -33.825  -4.153 -13.675  0.00  0.00     0.038 C 
BRANCH   2   3
HETATM    3  C           1     -34.548  -3.639 -14.912  0.00  0.00     0.023 C 
BRANCH   3   4
HETATM    4  C           1     -34.082  -4.419 -16.134  0.00  0.00     0.138 C 
BRANCH   4   5
HETATM    5  N           1     -33.201  -3.572 -16.950  0.00  0.00    -0.227 N 
HETATM    6  C           1     -31.984  -3.884 -17.101  0.00  0.00     0.665 C 
HETATM    7  N           1     -31.205  -3.134 -17.823  0.00  0.00    -0.235 N 
HETATM    8  N           1     -31.524  -4.927 -16.549  0.00  0.00    -0.235 N 
HETATM    9  H           1     -31.584  -2.273 -18.280  0.00  0.00     0.174 HD
HETATM   10  H           1     -30.200  -3.392 -17.948  0.00  0.00     0.174 HD
HETATM   11  H           1     -32.153  -5.532 -15.965  0.00  0.00     0.174 HD
HETATM   12  H           1     -30.515  -5.185 -16.674  0.00  0.00     0.174 HD
HETATM   13  H           1     -33.582  -2.707 -17.409  0.00  0.00     0.177 HD
ENDBRANCH   4   5
ENDBRANCH   3   4
ENDBRANCH   2   3
ENDBRANCH   1   2
BRANCH   1  14
HETATM   14  C           1     -33.542  -3.751 -11.248  0.00  0.00     0.196 C 
HETATM   15  O           1     -32.644  -2.915 -11.008  0.00  0.00    -0.646 OA
HETATM   16  O           1     -33.679  -4.751 -10.509  0.00  0.00    -0.646 OA
ENDBRANCH   1  14
BRANCH   1  17
HETATM   17  N           1     -34.685  -2.136 -12.633  0.00  0.00    -0.345 N 
HETATM   18  C           1     -35.698  -1.500 -11.969  0.00  0.00     0.249 C 
HETATM   19  O           1     -36.407  -2.118 -11.210  0.00  0.00    -0.271 OA
HETATM   20  H           1     -34.092  -1.618 -13.268  0.00  0.00     0.163 HD
BRANCH  18  21
HETATM   21  C           1     -35.931  -0.023 -12.182  0.00  0.00     0.274 C 
HETATM   22  C           1     -37.259   0.183 -12.897  0.00  0.00     0.042 C 
HETATM   23  C           1     -37.228  -0.526 -14.244  0.00  0.00     0.003 C 
HETATM   24 Se           1     -35.786   0.207 -15.332  0.00  0.00     0.000 Se
HETATM   25  C           1     -36.132  -0.949 -16.862  0.00  0.00     0.000 C 
HETATM   26  H           1     -34.799   0.053 -13.943  0.00  0.00     0.275 HD
HETATM   27  N           1     -34.821   0.540 -13.020  0.00  0.00    -0.067 N 
HETATM   28  H           1     -34.980   1.562 -13.169  0.00  0.00     0.275 HD
HETATM   29  H           1     -33.908   0.398 -12.529  0.00  0.00     0.275 HD
ENDBRANCH  18  21
ENDBRANCH   1  17
TORSDOF 7
ENDMDL
MODEL 5
REMARK VINA RESULT:      -6.0      2.036      2.843
REMARK  7 active torsions:
REMARK  status: ('A' for Active; 'I' for Inactive)
REMARK       I    between atoms: N_4  and  C_5 
REMARK       I    between atoms: C_5  and  N_6 
REMARK    1  A    between atoms: N_7  and  C_8 
REMARK    2  A    between atoms: C_8  and  C_9 
REMARK    3  A    between atoms: C_9  and  C_10 
REMARK    4  A    between atoms: C_10  and  C_11 
REMARK    5  A    between atoms: C_11  and  C_12 
REMARK    6  A    between atoms: C_11  and  N_15 
REMARK       I    between atoms: N_15  and  C_16 
REMARK    7  A    between atoms: C_16  and  C_17 
ROOT
HETATM    1  C           1     -35.883  -0.451 -11.418  0.00  0.00     0.185 C 
ENDROOT
BRANCH   1   2
HETATM    2  C           1     -36.355  -0.168 -12.838  0.00  0.00     0.038 C 
BRANCH   2   3
HETATM    3  C           1     -35.349  -0.732 -13.831  0.00  0.00     0.023 C 
BRANCH   3   4
HETATM    4  C           1     -35.871  -0.538 -15.248  0.00  0.00     0.138 C 
BRANCH   4   5
HETATM    5  N           1     -35.597   0.837 -15.688  0.00  0.00    -0.227 N 
HETATM    6  C           1     -36.552   1.598 -16.020  0.00  0.00     0.665 C 
HETATM    7  N           1     -36.310   2.815 -16.409  0.00  0.00    -0.235 N 
HETATM    8  N           1     -37.745   1.175 -15.972  0.00  0.00    -0.235 N 
HETATM    9  H           1     -35.326   3.165 -16.448  0.00  0.00     0.174 HD
HETATM   10  H           1     -37.099   3.444 -16.682  0.00  0.00     0.174 HD
HETATM   11  H           1     -37.941   0.192 -15.658  0.00  0.00     0.174 HD
HETATM   12  H           1     -38.537   1.806 -16.247  0.00  0.00     0.174 HD
HETATM   13  H           1     -34.608   1.189 -15.728  0.00  0.00     0.177 HD
ENDBRANCH   4   5
ENDBRANCH   3   4
ENDBRANCH   2   3
ENDBRANCH   1   2
BRANCH   1  14
HETATM   14  C           1     -36.922   0.028 -10.436  0.00  0.00     0.196 C 
HETATM   15  O           1     -36.632   0.910  -9.598  0.00  0.00    -0.646 OA
HETATM   16  O           1     -38.075  -0.455 -10.459  0.00  0.00    -0.646 OA
ENDBRANCH   1  14
BRANCH   1  17
HETATM   17  N           1     -35.683  -1.878 -11.252  0.00  0.00    -0.345 N 
HETATM   18  C           1     -34.526  -2.345 -10.688  0.00  0.00     0.249 C 
HETATM   19  O           1     -33.672  -1.570 -10.328  0.00  0.00    -0.271 OA
HETATM   20  H           1     -36.398  -2.527 -11.552  0.00  0.00     0.163 HD
BRANCH  18  21
HETATM   21  C           1     -34.318  -3.830 -10.514  0.00  0.00     0.274 C 
HETATM   22  C           1     -33.022  -4.245 -11.197  0.00  0.00     0.042 C 
HETATM   23  C           1     -33.100  -3.914 -12.681  0.00  0.00     0.003 C 
HETATM   24 Se           1     -34.593  -4.877 -13.485  0.00  0.00     0.000 Se
HETATM   25  C           1     -34.297  -4.170 -15.276  0.00  0.00     0.000 C 
HETATM   26  H           1     -35.521  -4.343 -12.150  0.00  0.00     0.275 HD
HETATM   27  N           1     -35.467  -4.571 -11.133  0.00  0.00    -0.067 N 
HETATM   28  H           1     -35.325  -5.599 -11.013  0.00  0.00     0.275 HD
HETATM   29  H           1     -36.358  -4.286 -10.664  0.00  0.00     0.275 HD
ENDBRANCH  18  21
ENDBRANCH   1  17
TORSDOF 7
ENDMDL
MODEL 6
REMARK VINA RESULT:      -5.9     13.688     15.744
REMARK  7 active torsions:
REMARK  status: ('A' for Active; 'I' for Inactive)
REMARK       I    between atoms: N_4  and  C_5 
REMARK       I    between atoms: C_5  and  N_6 
REMARK    1  A    between atoms: N_7  and  C_8 
REMARK    2  A    between atoms: C_8  and  C_9 
REMARK    3  A    between atoms: C_9  and  C_10 
REMARK    4  A    between atoms: C_10  and  C_11 
REMARK    5  A    between atoms: C_11  and  C_12 
REMARK    6  A    between atoms: C_11  and  N_15 
REMARK       I    between atoms: N_15  and  C_16 
REMARK    7  A    between atoms: C_16  and  C_17 
ROOT
HETATM    1  C           1     -21.157  -5.875  -6.380  0.00  0.00     0.185 C 
ENDROOT
BRANCH   1   2
HETATM    2  C           1     -22.343  -4.996  -6.754  0.00  0.00     0.038 C 
BRANCH   2   3
HETATM    3  C           1     -21.850  -3.772  -7.515  0.00  0.00     0.023 C 
BRANCH   3   4
HETATM    4  C           1     -22.427  -3.784  -8.924  0.00  0.00     0.138 C 
BRANCH   4   5
HETATM    5  N           1     -23.838  -3.373  -8.880  0.00  0.00    -0.227 N 
HETATM    6  C           1     -24.648  -3.796  -9.756  0.00  0.00     0.665 C 
HETATM    7  N           1     -25.896  -3.433  -9.717  0.00  0.00    -0.235 N 
HETATM    8  N           1     -24.243  -4.573 -10.671  0.00  0.00    -0.235 N 
HETATM    9  H           1     -26.230  -2.792  -8.962  0.00  0.00     0.174 HD
HETATM   10  H           1     -26.565  -3.782 -10.440  0.00  0.00     0.174 HD
HETATM   11  H           1     -23.235  -4.866 -10.702  0.00  0.00     0.174 HD
HETATM   12  H           1     -24.914  -4.923 -11.397  0.00  0.00     0.174 HD
HETATM   13  H           1     -24.174  -2.730  -8.122  0.00  0.00     0.177 HD
ENDBRANCH   4   5
ENDBRANCH   3   4
ENDBRANCH   2   3
ENDBRANCH   1   2
BRANCH   1  14
HETATM   14  C           1     -19.927  -5.017  -6.215  0.00  0.00     0.196 C 
HETATM   15  O           1     -19.718  -4.424  -5.134  0.00  0.00    -0.646 OA
HETATM   16  O           1     -19.116  -4.899  -7.159  0.00  0.00    -0.646 OA
ENDBRANCH   1  14
BRANCH   1  17
HETATM   17  N           1     -21.438  -6.560  -5.134  0.00  0.00    -0.345 N 
HETATM   18  C           1     -21.396  -7.927  -5.080  0.00  0.00     0.249 C 
HETATM   19  O           1     -21.124  -8.563  -6.070  0.00  0.00    -0.271 OA
HETATM   20  H           1     -21.666  -6.027  -4.304  0.00  0.00     0.163 HD
BRANCH  18  21
HETATM   21  C           1     -21.688  -8.641  -3.782  0.00  0.00     0.274 C 
HETATM   22  C           1     -20.537  -8.419  -2.810  0.00  0.00     0.042 C 
HETATM   23  C           1     -19.250  -8.967  -3.412  0.00  0.00     0.003 C 
HETATM   24 Se           1     -19.453 -10.876  -3.752  0.00  0.00     0.000 Se
HETATM   25  C           1     -17.658 -11.105  -4.475  0.00  0.00     0.000 C 
HETATM   26  H           1     -20.961 -10.485  -4.458  0.00  0.00     0.275 HD
HETATM   27  N           1     -21.844 -10.110  -4.045  0.00  0.00    -0.067 N 
HETATM   28  H           1     -22.046 -10.605  -3.147  0.00  0.00     0.275 HD
HETATM   29  H           1     -22.634 -10.262  -4.712  0.00  0.00     0.275 HD
ENDBRANCH  18  21
ENDBRANCH   1  17
TORSDOF 7
ENDMDL
MODEL 7
REMARK VINA RESULT:      -5.7     16.761     18.780
REMARK  7 active torsions:
REMARK  status: ('A' for Active; 'I' for Inactive)
REMARK       I    between atoms: N_4  and  C_5 
REMARK       I    between atoms: C_5  and  N_6 
REMARK    1  A    between atoms: N_7  and  C_8 
REMARK    2  A    between atoms: C_8  and  C_9 
REMARK    3  A    between atoms: C_9  and  C_10 
REMARK    4  A    between atoms: C_10  and  C_11 
REMARK    5  A    between atoms: C_11  and  C_12 
REMARK    6  A    between atoms: C_11  and  N_15 
REMARK       I    between atoms: N_15  and  C_16 
REMARK    7  A    between atoms: C_16  and  C_17 
ROOT
HETATM    1  C           1     -21.234  -8.102  -0.794  0.00  0.00     0.185 C 
ENDROOT
BRANCH   1   2
HETATM    2  C           1     -20.465  -7.859  -2.086  0.00  0.00     0.038 C 
BRANCH   2   3
HETATM    3  C           1     -20.903  -8.871  -3.137  0.00  0.00     0.023 C 
BRANCH   3   4
HETATM    4  C           1     -21.595  -8.146  -4.283  0.00  0.00     0.138 C 
BRANCH   4   5
HETATM    5  N           1     -21.183  -6.735  -4.291  0.00  0.00    -0.227 N 
HETATM    6  C           1     -20.769  -6.202  -5.362  0.00  0.00     0.665 C 
HETATM    7  N           1     -20.405  -4.955  -5.369  0.00  0.00    -0.235 N 
HETATM    8  N           1     -20.711  -6.885  -6.427  0.00  0.00    -0.235 N 
HETATM    9  H           1     -20.453  -4.391  -4.490  0.00  0.00     0.174 HD
HETATM   10  H           1     -20.063  -4.515  -6.253  0.00  0.00     0.174 HD
HETATM   11  H           1     -21.005  -7.893  -6.421  0.00  0.00     0.174 HD
HETATM   12  H           1     -20.368  -6.443  -7.315  0.00  0.00     0.174 HD
HETATM   13  H           1     -21.231  -6.169  -3.408  0.00  0.00     0.177 HD
ENDBRANCH   4   5
ENDBRANCH   3   4
ENDBRANCH   2   3
ENDBRANCH   1   2
BRANCH   1  14
HETATM   14  C           1     -22.415  -7.165  -0.727  0.00  0.00     0.196 C 
HETATM   15  O           1     -22.460  -6.161  -1.471  0.00  0.00    -0.646 OA
HETATM   16  O           1     -23.349  -7.393   0.073  0.00  0.00    -0.646 OA
ENDBRANCH   1  14
BRANCH   1  17
HETATM   17  N           1     -21.704  -9.473  -0.762  0.00  0.00    -0.345 N 
HETATM   18  C           1     -21.421 -10.268   0.316  0.00  0.00     0.249 C 
HETATM   19  O           1     -20.782  -9.827   1.241  0.00  0.00    -0.271 OA
HETATM   20  H           1     -22.240  -9.843  -1.537  0.00  0.00     0.163 HD
BRANCH  18  21
HETATM   21  C           1     -21.910 -11.696   0.350  0.00  0.00     0.274 C 
HETATM   22  C           1     -20.717 -12.642   0.357  0.00  0.00     0.042 C 
HETATM   23  C           1     -19.884 -12.420  -0.899  0.00  0.00     0.003 C 
HETATM   24 Se           1     -20.978 -12.769  -2.474  0.00  0.00     0.000 Se
HETATM   25  C           1     -19.558 -12.375  -3.749  0.00  0.00     0.000 C 
HETATM   26  H           1     -22.181 -11.811  -1.724  0.00  0.00     0.275 HD
HETATM   27  N           1     -22.752 -11.964  -0.863  0.00  0.00    -0.067 N 
HETATM   28  H           1     -23.091 -12.952  -0.841  0.00  0.00     0.275 HD
HETATM   29  H           1     -23.571 -11.314  -0.868  0.00  0.00     0.275 HD
ENDBRANCH  18  21
ENDBRANCH   1  17
TORSDOF 7
ENDMDL
MODEL 8
REMARK VINA RESULT:      -5.7      2.617      3.700
REMARK  7 active torsions:
REMARK  status: ('A' for Active; 'I' for Inactive)
REMARK       I    between atoms: N_4  and  C_5 
REMARK       I    between atoms: C_5  and  N_6 
REMARK    1  A    between atoms: N_7  and  C_8 
REMARK    2  A    between atoms: C_8  and  C_9 
REMARK    3  A    between atoms: C_9  and  C_10 
REMARK    4  A    between atoms: C_10  and  C_11 
REMARK    5  A    between atoms: C_11  and  C_12 
REMARK    6  A    between atoms: C_11  and  N_15 
REMARK       I    between atoms: N_15  and  C_16 
REMARK    7  A    between atoms: C_16  and  C_17 
ROOT
HETATM    1  C           1     -35.264  -0.353 -14.572  0.00  0.00     0.185 C 
ENDROOT
BRANCH   1   2
HETATM    2  C           1     -36.477  -0.648 -15.444  0.00  0.00     0.038 C 
BRANCH   2   3
HETATM    3  C           1     -36.016  -1.153 -16.804  0.00  0.00     0.023 C 
BRANCH   3   4
HETATM    4  C           1     -35.308  -2.491 -16.635  0.00  0.00     0.138 C 
BRANCH   4   5
HETATM    5  N           1     -33.993  -2.436 -17.291  0.00  0.00    -0.227 N 
HETATM    6  C           1     -33.139  -3.344 -17.074  0.00  0.00     0.665 C 
HETATM    7  N           1     -31.976  -3.295 -17.654  0.00  0.00    -0.235 N 
HETATM    8  N           1     -33.417  -4.301 -16.292  0.00  0.00    -0.235 N 
HETATM    9  H           1     -31.747  -2.506 -18.299  0.00  0.00     0.174 HD
HETATM   10  H           1     -31.271  -4.046 -17.475  0.00  0.00     0.174 HD
HETATM   11  H           1     -34.356  -4.340 -15.824  0.00  0.00     0.174 HD
HETATM   12  H           1     -32.708  -5.054 -16.112  0.00  0.00     0.174 HD
HETATM   13  H           1     -33.763  -1.643 -17.939  0.00  0.00     0.177 HD
ENDBRANCH   4   5
ENDBRANCH   3   4
ENDBRANCH   2   3
ENDBRANCH   1   2
BRANCH   1  14
HETATM   14  C           1     -35.049   1.138 -14.494  0.00  0.00     0.196 C 
HETATM   15  O           1     -34.410   1.630 -13.538  0.00  0.00    -0.646 OA
HETATM   16  O           1     -35.510   1.884 -15.386  0.00  0.00    -0.646 OA
ENDBRANCH   1  14
BRANCH   1  17
HETATM   17  N           1     -35.488  -0.879 -13.240  0.00  0.00    -0.345 N 
HETATM   18  C           1     -35.040  -2.131 -12.914  0.00  0.00     0.249 C 
HETATM   19  O           1     -34.458  -2.797 -13.736  0.00  0.00    -0.271 OA
HETATM   20  H           1     -35.975  -0.320 -12.551  0.00  0.00     0.163 HD
BRANCH  18  21
HETATM   21  C           1     -35.272  -2.678 -11.527  0.00  0.00     0.274 C 
HETATM   22  C           1     -34.061  -2.380 -10.654  0.00  0.00     0.042 C 
HETATM   23  C           1     -32.826  -3.035 -11.257  0.00  0.00     0.003 C 
HETATM   24 Se           1     -33.095  -4.964 -11.357  0.00  0.00     0.000 Se
HETATM   25  C           1     -31.352  -5.331 -12.146  0.00  0.00     0.000 C 
HETATM   26  H           1     -34.632  -4.611 -12.019  0.00  0.00     0.275 HD
HETATM   27  N           1     -35.479  -4.162 -11.604  0.00  0.00    -0.067 N 
HETATM   28  H           1     -35.641  -4.543 -10.644  0.00  0.00     0.275 HD
HETATM   29  H           1     -36.311  -4.366 -12.204  0.00  0.00     0.275 HD
ENDBRANCH  18  21
ENDBRANCH   1  17
TORSDOF 7
ENDMDL
MODEL 9
REMARK VINA RESULT:      -5.6     14.310     16.195
REMARK  7 active torsions:
REMARK  status: ('A' for Active; 'I' for Inactive)
REMARK       I    between atoms: N_4  and  C_5 
REMARK       I    between atoms: C_5  and  N_6 
REMARK    1  A    between atoms: N_7  and  C_8 
REMARK    2  A    between atoms: C_8  and  C_9 
REMARK    3  A    between atoms: C_9  and  C_10 
REMARK    4  A    between atoms: C_10  and  C_11 
REMARK    5  A    between atoms: C_11  and  C_12 
REMARK    6  A    between atoms: C_11  and  N_15 
REMARK       I    between atoms: N_15  and  C_16 
REMARK    7  A    between atoms: C_16  and  C_17 
ROOT
HETATM    1  C           1     -21.456  -5.883  -6.402  0.00  0.00     0.185 C 
ENDROOT
BRANCH   1   2
HETATM    2  C           1     -22.597  -4.903  -6.642  0.00  0.00     0.038 C 
BRANCH   2   3
HETATM    3  C           1     -22.217  -3.945  -7.764  0.00  0.00     0.023 C 
BRANCH   3   4
HETATM    4  C           1     -22.407  -4.637  -9.107  0.00  0.00     0.138 C 
BRANCH   4   5
HETATM    5  N           1     -21.957  -3.745 -10.186  0.00  0.00    -0.227 N 
HETATM    6  C           1     -20.802  -3.888 -10.684  0.00  0.00     0.665 C 
HETATM    7  N           1     -20.404  -3.099 -11.638  0.00  0.00    -0.235 N 
HETATM    8  N           1     -20.034  -4.798 -10.254  0.00  0.00    -0.235 N 
HETATM    9  H           1     -21.037  -2.347 -11.994  0.00  0.00     0.174 HD
HETATM   10  H           1     -19.450  -3.216 -12.050  0.00  0.00     0.174 HD
HETATM   11  H           1     -20.356  -5.435  -9.484  0.00  0.00     0.174 HD
HETATM   12  H           1     -19.077  -4.916 -10.667  0.00  0.00     0.174 HD
HETATM   13  H           1     -22.593  -2.990 -10.543  0.00  0.00     0.177 HD
ENDBRANCH   4   5
ENDBRANCH   3   4
ENDBRANCH   2   3
ENDBRANCH   1   2
BRANCH   1  14
HETATM   14  C           1     -20.154  -5.128  -6.306  0.00  0.00     0.196 C 
HETATM   15  O           1     -19.327  -5.187  -7.241  0.00  0.00    -0.646 OA
HETATM   16  O           1     -19.902  -4.443  -5.291  0.00  0.00    -0.646 OA
ENDBRANCH   1  14
BRANCH   1  17
HETATM   17  N           1     -21.691  -6.602  -5.165  0.00  0.00    -0.345 N 
HETATM   18  C           1     -21.480  -7.953  -5.108  0.00  0.00     0.249 C 
HETATM   19  O           1     -21.100  -8.548  -6.088  0.00  0.00    -0.271 OA
HETATM   20  H           1     -22.009  -6.104  -4.343  0.00  0.00     0.163 HD
BRANCH  18  21
HETATM   21  C           1     -21.724  -8.701  -3.820  0.00  0.00     0.274 C 
HETATM   22  C           1     -20.570  -8.446  -2.859  0.00  0.00     0.042 C 
HETATM   23  C           1     -19.269  -8.926  -3.486  0.00  0.00     0.003 C 
HETATM   24 Se           1     -19.392 -10.836  -3.858  0.00  0.00     0.000 Se
HETATM   25  C           1     -17.599 -10.973  -4.607  0.00  0.00     0.000 C 
HETATM   26  H           1     -20.926 -10.500  -4.538  0.00  0.00     0.275 HD
HETATM   27  N           1     -21.818 -10.171  -4.107  0.00  0.00    -0.067 N 
HETATM   28  H           1     -21.987 -10.690  -3.215  0.00  0.00     0.275 HD
HETATM   29  H           1     -22.610 -10.346  -4.767  0.00  0.00     0.275 HD
ENDBRANCH  18  21
ENDBRANCH   1  17
TORSDOF 7
ENDMDL
