MODEL 1
REMARK VINA RESULT:      -6.7      0.000      0.000
REMARK  5 active torsions:
REMARK  status: ('A' for Active; 'I' for Inactive)
REMARK    1  A    between atoms: N_1  and  C_7 
REMARK    2  A    between atoms: C_6  and  C_7 
REMARK    3  A    between atoms: C_6  and  C_21 
REMARK    4  A    between atoms: C_7  and  C_10 
REMARK       I    between atoms: C_10  and  N_11 
REMARK    5  A    between atoms: C_13  and  C_14 
ROOT
HETATM    1  C           1     -20.229  -4.957  -7.312  0.00  0.00     0.280 C 
ENDROOT
BRANCH   1   2
HETATM    2  N           1     -18.905  -4.324  -7.624  0.00  0.00    -0.066 N 
HETATM    3  H           1     -18.324  -4.286  -6.757  0.00  0.00     0.275 HD
HETATM    4  H           1     -18.411  -4.893  -8.349  0.00  0.00     0.275 HD
HETATM    5  H           1     -19.058  -3.355  -7.984  0.00  0.00     0.275 HD
ENDBRANCH   1   2
BRANCH   1   6
HETATM    6  C           1     -20.474  -4.904  -5.809  0.00  0.00     0.101 C 
BRANCH   6   7
HETATM    7  C           1     -20.874  -6.261  -5.320  0.00  0.00     0.028 A 
HETATM    8  C           1     -21.512  -6.504  -4.127  0.00  0.00     0.114 A 
HETATM    9  N           1     -21.682  -7.861  -4.087  0.00  0.00    -0.360 N 
HETATM   10  C           1     -21.149  -8.375  -5.234  0.00  0.00     0.180 A 
HETATM   11  H           1     -22.139  -8.406  -3.315  0.00  0.00     0.166 HD
HETATM   12  N           1     -20.652  -7.431  -5.999  0.00  0.00    -0.355 N 
ATOM     13  HN          1     -20.199  -7.544  -6.906  1.00  0.00     0.166 HD
ENDBRANCH   6   7
ENDBRANCH   1   6
BRANCH   1  14
HETATM   14  C           1     -21.326  -4.207  -8.027  0.00  0.00     0.251 C 
HETATM   15  O           1     -22.171  -3.622  -7.392  0.00  0.00    -0.271 OA
HETATM   16  N           1     -21.362  -4.189  -9.396  0.00  0.00    -0.336 N 
HETATM   17  C           1     -20.432  -4.834 -10.318  0.00  0.00     0.127 C 
HETATM   18  C           1     -22.341  -3.522 -10.250  0.00  0.00     0.188 C 
HETATM   19  C           1     -20.248  -3.807 -11.423  0.00  0.00     0.022 C 
HETATM   20  C           1     -21.501  -2.941 -11.376  0.00  0.00     0.038 C 
BRANCH  18  21
HETATM   21  C           1     -23.348  -4.509 -10.786  0.00  0.00     0.196 C 
HETATM   22  O           1     -23.456  -4.684 -12.019  0.00  0.00    -0.646 OA
HETATM   23  O           1     -24.074  -5.152  -9.997  0.00  0.00    -0.646 OA
ENDBRANCH  18  21
ENDBRANCH   1  14
TORSDOF 5
ENDMDL
MODEL 2
REMARK VINA RESULT:      -6.4      2.819      6.361
REMARK  5 active torsions:
REMARK  status: ('A' for Active; 'I' for Inactive)
REMARK    1  A    between atoms: N_1  and  C_7 
REMARK    2  A    between atoms: C_6  and  C_7 
REMARK    3  A    between atoms: C_6  and  C_21 
REMARK    4  A    between atoms: C_7  and  C_10 
REMARK       I    between atoms: C_10  and  N_11 
REMARK    5  A    between atoms: C_13  and  C_14 
ROOT
HETATM    1  C           1     -21.671  -4.995  -7.210  0.00  0.00     0.280 C 
ENDROOT
BRANCH   1   2
HETATM    2  N           1     -21.147  -3.671  -6.737  0.00  0.00    -0.066 N 
HETATM    3  H           1     -20.306  -3.824  -6.136  0.00  0.00     0.275 HD
HETATM    4  H           1     -20.883  -3.088  -7.562  0.00  0.00     0.275 HD
HETATM    5  H           1     -21.886  -3.182  -6.184  0.00  0.00     0.275 HD
ENDBRANCH   1   2
BRANCH   1   6
HETATM    6  C           1     -21.613  -5.049  -8.732  0.00  0.00     0.101 C 
BRANCH   6   7
HETATM    7  C           1     -22.886  -4.504  -9.299  0.00  0.00     0.028 A 
HETATM    8  C           1     -23.317  -4.708 -10.589  0.00  0.00     0.114 A 
HETATM    9  N           1     -24.508  -4.041 -10.674  0.00  0.00    -0.360 N 
HETATM   10  C           1     -24.746  -3.470  -9.456  0.00  0.00     0.180 A 
HETATM   11  H           1     -25.126  -3.979 -11.520  0.00  0.00     0.166 HD
HETATM   12  N           1     -23.782  -3.733  -8.604  0.00  0.00    -0.355 N 
ATOM     13  HN          1     -23.715  -3.428  -7.633  1.00  0.00     0.166 HD
ENDBRANCH   6   7
ENDBRANCH   1   6
BRANCH   1  14
HETATM   14  C           1     -20.824  -6.104  -6.635  0.00  0.00     0.251 C 
HETATM   15  O           1     -19.824  -6.461  -7.212  0.00  0.00    -0.271 OA
HETATM   16  N           1     -21.188  -6.704  -5.460  0.00  0.00    -0.336 N 
HETATM   17  C           1     -22.353  -6.404  -4.632  0.00  0.00     0.127 C 
HETATM   18  C           1     -20.496  -7.784  -4.761  0.00  0.00     0.188 C 
HETATM   19  C           1     -21.819  -6.485  -3.212  0.00  0.00     0.022 C 
HETATM   20  C           1     -20.595  -7.389  -3.297  0.00  0.00     0.038 C 
BRANCH  18  21
HETATM   21  C           1     -21.178  -9.107  -5.008  0.00  0.00     0.196 C 
HETATM   22  O           1     -21.663  -9.747  -4.050  0.00  0.00    -0.646 OA
HETATM   23  O           1     -21.258  -9.562  -6.169  0.00  0.00    -0.646 OA
ENDBRANCH  18  21
ENDBRANCH   1  14
TORSDOF 5
ENDMDL
MODEL 3
REMARK VINA RESULT:      -6.2      1.706      2.334
REMARK  5 active torsions:
REMARK  status: ('A' for Active; 'I' for Inactive)
REMARK    1  A    between atoms: N_1  and  C_7 
REMARK    2  A    between atoms: C_6  and  C_7 
REMARK    3  A    between atoms: C_6  and  C_21 
REMARK    4  A    between atoms: C_7  and  C_10 
REMARK       I    between atoms: C_10  and  N_11 
REMARK    5  A    between atoms: C_13  and  C_14 
ROOT
HETATM    1  C           1     -21.611  -4.262  -6.953  0.00  0.00     0.280 C 
ENDROOT
BRANCH   1   2
HETATM    2  N           1     -22.917  -4.823  -6.473  0.00  0.00    -0.066 N 
HETATM    3  H           1     -23.445  -4.084  -5.956  0.00  0.00     0.275 HD
HETATM    4  H           1     -23.479  -5.143  -7.294  0.00  0.00     0.275 HD
HETATM    5  H           1     -22.736  -5.632  -5.837  0.00  0.00     0.275 HD
ENDBRANCH   1   2
BRANCH   1   6
HETATM    6  C           1     -20.494  -4.706  -6.017  0.00  0.00     0.101 C 
BRANCH   6   7
HETATM    7  C           1     -20.862  -6.010  -5.383  0.00  0.00     0.028 A 
HETATM    8  C           1     -21.305  -6.153  -4.089  0.00  0.00     0.114 A 
HETATM    9  N           1     -21.520  -7.495  -3.935  0.00  0.00    -0.360 N 
HETATM   10  C           1     -21.205  -8.100  -5.118  0.00  0.00     0.180 A 
HETATM   11  H           1     -21.865  -7.972  -3.066  0.00  0.00     0.166 HD
HETATM   12  N           1     -20.804  -7.227  -6.013  0.00  0.00    -0.355 N 
ATOM     13  HN          1     -20.511  -7.414  -6.972  1.00  0.00     0.166 HD
ENDBRANCH   6   7
ENDBRANCH   1   6
BRANCH   1  14
HETATM   14  C           1     -21.330  -4.765  -8.347  0.00  0.00     0.251 C 
HETATM   15  O           1     -20.415  -5.531  -8.540  0.00  0.00    -0.271 OA
HETATM   16  N           1     -22.113  -4.356  -9.393  0.00  0.00    -0.336 N 
HETATM   17  C           1     -23.251  -3.443  -9.348  0.00  0.00     0.127 C 
HETATM   18  C           1     -21.988  -4.736 -10.798  0.00  0.00     0.188 C 
HETATM   19  C           1     -24.257  -4.071 -10.298  0.00  0.00     0.022 C 
HETATM   20  C           1     -23.427  -4.926 -11.249  0.00  0.00     0.038 C 
BRANCH  18  21
HETATM   21  C           1     -21.316  -3.644 -11.593  0.00  0.00     0.196 C 
HETATM   22  O           1     -21.703  -3.387 -12.753  0.00  0.00    -0.646 OA
HETATM   23  O           1     -20.371  -2.997 -11.091  0.00  0.00    -0.646 OA
ENDBRANCH  18  21
ENDBRANCH   1  14
TORSDOF 5
ENDMDL
MODEL 4
REMARK VINA RESULT:      -6.0      2.537      6.359
REMARK  5 active torsions:
REMARK  status: ('A' for Active; 'I' for Inactive)
REMARK    1  A    between atoms: N_1  and  C_7 
REMARK    2  A    between atoms: C_6  and  C_7 
REMARK    3  A    between atoms: C_6  and  C_21 
REMARK    4  A    between atoms: C_7  and  C_10 
REMARK       I    between atoms: C_10  and  N_11 
REMARK    5  A    between atoms: C_13  and  C_14 
ROOT
HETATM    1  C           1     -20.963  -4.996  -6.976  0.00  0.00     0.280 C 
ENDROOT
BRANCH   1   2
HETATM    2  N           1     -20.888  -5.823  -8.226  0.00  0.00    -0.066 N 
HETATM    3  H           1     -21.132  -5.230  -9.051  0.00  0.00     0.275 HD
HETATM    4  H           1     -19.918  -6.193  -8.339  0.00  0.00     0.275 HD
HETATM    5  H           1     -21.561  -6.619  -8.158  0.00  0.00     0.275 HD
ENDBRANCH   1   2
BRANCH   1   6
HETATM    6  C           1     -21.551  -3.629  -7.308  0.00  0.00     0.101 C 
BRANCH   6   7
HETATM    7  C           1     -22.490  -3.757  -8.465  0.00  0.00     0.028 A 
HETATM    8  C           1     -22.121  -3.664  -9.786  0.00  0.00     0.114 A 
HETATM    9  N           1     -23.280  -3.839 -10.491  0.00  0.00    -0.360 N 
HETATM   10  C           1     -24.286  -4.026  -9.587  0.00  0.00     0.180 A 
HETATM   11  H           1     -23.377  -3.830 -11.536  0.00  0.00     0.166 HD
HETATM   12  N           1     -23.839  -3.981  -8.353  0.00  0.00    -0.355 N 
ATOM     13  HN          1     -24.380  -4.091  -7.495  1.00  0.00     0.166 HD
ENDBRANCH   6   7
ENDBRANCH   1   6
BRANCH   1  14
HETATM   14  C           1     -21.842  -5.691  -5.967  0.00  0.00     0.251 C 
HETATM   15  O           1     -23.001  -5.370  -5.851  0.00  0.00    -0.271 OA
HETATM   16  N           1     -21.327  -6.687  -5.181  0.00  0.00    -0.336 N 
HETATM   17  C           1     -19.961  -7.204  -5.183  0.00  0.00     0.127 C 
HETATM   18  C           1     -22.024  -7.463  -4.159  0.00  0.00     0.188 C 
HETATM   19  C           1     -20.141  -8.704  -5.028  0.00  0.00     0.022 C 
HETATM   20  C           1     -21.500  -8.876  -4.359  0.00  0.00     0.038 C 
BRANCH  18  21
HETATM   21  C           1     -21.688  -6.956  -2.778  0.00  0.00     0.196 C 
HETATM   22  O           1     -21.097  -7.700  -1.966  0.00  0.00    -0.646 OA
HETATM   23  O           1     -22.002  -5.793  -2.445  0.00  0.00    -0.646 OA
ENDBRANCH  18  21
ENDBRANCH   1  14
TORSDOF 5
ENDMDL
MODEL 5
REMARK VINA RESULT:      -5.9      2.258      3.474
REMARK  5 active torsions:
REMARK  status: ('A' for Active; 'I' for Inactive)
REMARK    1  A    between atoms: N_1  and  C_7 
REMARK    2  A    between atoms: C_6  and  C_7 
REMARK    3  A    between atoms: C_6  and  C_21 
REMARK    4  A    between atoms: C_7  and  C_10 
REMARK       I    between atoms: C_10  and  N_11 
REMARK    5  A    between atoms: C_13  and  C_14 
ROOT
HETATM    1  C           1     -21.596  -5.867  -5.237  0.00  0.00     0.280 C 
ENDROOT
BRANCH   1   2
HETATM    2  N           1     -23.021  -6.322  -5.112  0.00  0.00    -0.066 N 
HETATM    3  H           1     -23.458  -5.870  -4.277  0.00  0.00     0.275 HD
HETATM    4  H           1     -23.548  -6.048  -5.971  0.00  0.00     0.275 HD
HETATM    5  H           1     -23.047  -7.360  -5.001  0.00  0.00     0.275 HD
ENDBRANCH   1   2
BRANCH   1   6
HETATM    6  C           1     -20.707  -6.740  -4.359  0.00  0.00     0.101 C 
BRANCH   6   7
HETATM    7  C           1     -21.351  -6.921  -3.021  0.00  0.00     0.028 A 
HETATM    8  C           1     -21.445  -8.121  -2.355  0.00  0.00     0.114 A 
HETATM    9  N           1     -22.098  -7.828  -1.189  0.00  0.00    -0.360 N 
HETATM   10  C           1     -22.368  -6.490  -1.195  0.00  0.00     0.180 A 
HETATM   11  H           1     -22.345  -8.509  -0.430  0.00  0.00     0.166 HD
HETATM   12  N           1     -21.928  -5.915  -2.291  0.00  0.00    -0.355 N 
ATOM     13  HN          1     -22.001  -4.929  -2.544  1.00  0.00     0.166 HD
ENDBRANCH   6   7
ENDBRANCH   1   6
BRANCH   1  14
HETATM   14  C           1     -21.156  -5.986  -6.675  0.00  0.00     0.251 C 
HETATM   15  O           1     -20.370  -6.845  -6.998  0.00  0.00    -0.271 OA
HETATM   16  N           1     -21.648  -5.121  -7.615  0.00  0.00    -0.336 N 
HETATM   17  C           1     -22.598  -4.031  -7.410  0.00  0.00     0.127 C 
HETATM   18  C           1     -21.336  -5.087  -9.042  0.00  0.00     0.188 C 
HETATM   19  C           1     -23.506  -4.107  -8.626  0.00  0.00     0.022 C 
HETATM   20  C           1     -22.677  -4.806  -9.698  0.00  0.00     0.038 C 
BRANCH  18  21
HETATM   21  C           1     -20.347  -3.988  -9.349  0.00  0.00     0.196 C 
HETATM   22  O           1     -20.376  -3.416 -10.460  0.00  0.00    -0.646 OA
HETATM   23  O           1     -19.501  -3.652  -8.494  0.00  0.00    -0.646 OA
ENDBRANCH  18  21
ENDBRANCH   1  14
TORSDOF 5
ENDMDL
MODEL 6
REMARK VINA RESULT:      -5.7      5.186      8.482
REMARK  5 active torsions:
REMARK  status: ('A' for Active; 'I' for Inactive)
REMARK    1  A    between atoms: N_1  and  C_7 
REMARK    2  A    between atoms: C_6  and  C_7 
REMARK    3  A    between atoms: C_6  and  C_21 
REMARK    4  A    between atoms: C_7  and  C_10 
REMARK       I    between atoms: C_10  and  N_11 
REMARK    5  A    between atoms: C_13  and  C_14 
ROOT
HETATM    1  C           1     -20.015  -8.744  -3.672  0.00  0.00     0.280 C 
ENDROOT
BRANCH   1   2
HETATM    2  N           1     -18.615  -9.078  -4.098  0.00  0.00    -0.066 N 
HETATM    3  H           1     -18.084  -8.194  -4.270  0.00  0.00     0.275 HD
HETATM    4  H           1     -18.144  -9.625  -3.343  0.00  0.00     0.275 HD
HETATM    5  H           1     -18.643  -9.643  -4.975  0.00  0.00     0.275 HD
ENDBRANCH   1   2
BRANCH   1   6
HETATM    6  C           1     -20.955  -8.891  -4.862  0.00  0.00     0.101 C 
BRANCH   6   7
HETATM    7  C           1     -21.258  -7.540  -5.429  0.00  0.00     0.028 A 
HETATM    8  C           1     -22.226  -6.690  -4.950  0.00  0.00     0.114 A 
HETATM    9  N           1     -22.157  -5.585  -5.753  0.00  0.00    -0.360 N 
HETATM   10  C           1     -21.170  -5.806  -6.670  0.00  0.00     0.180 A 
HETATM   11  H           1     -22.755  -4.726  -5.678  0.00  0.00     0.166 HD
HETATM   12  N           1     -20.608  -6.980  -6.499  0.00  0.00    -0.355 N 
ATOM     13  HN          1     -19.849  -7.388  -7.046  1.00  0.00     0.166 HD
ENDBRANCH   6   7
ENDBRANCH   1   6
BRANCH   1  14
HETATM   14  C           1     -20.442  -9.685  -2.573  0.00  0.00     0.251 C 
HETATM   15  O           1     -20.014 -10.815  -2.544  0.00  0.00    -0.271 OA
HETATM   16  N           1     -21.315  -9.259  -1.608  0.00  0.00    -0.336 N 
HETATM   17  C           1     -21.929  -7.940  -1.485  0.00  0.00     0.127 C 
HETATM   18  C           1     -21.835 -10.025  -0.479  0.00  0.00     0.188 C 
HETATM   19  C           1     -21.888  -7.659   0.008  0.00  0.00     0.022 C 
HETATM   20  C           1     -21.821  -9.030   0.670  0.00  0.00     0.038 C 
BRANCH  18  21
HETATM   21  C           1     -23.239 -10.505  -0.756  0.00  0.00     0.196 C 
HETATM   22  O           1     -23.498 -11.091  -1.830  0.00  0.00    -0.646 OA
HETATM   23  O           1     -24.142 -10.316   0.087  0.00  0.00    -0.646 OA
ENDBRANCH  18  21
ENDBRANCH   1  14
TORSDOF 5
ENDMDL
MODEL 7
REMARK VINA RESULT:      -5.6      5.619      9.314
REMARK  5 active torsions:
REMARK  status: ('A' for Active; 'I' for Inactive)
REMARK    1  A    between atoms: N_1  and  C_7 
REMARK    2  A    between atoms: C_6  and  C_7 
REMARK    3  A    between atoms: C_6  and  C_21 
REMARK    4  A    between atoms: C_7  and  C_10 
REMARK       I    between atoms: C_10  and  N_11 
REMARK    5  A    between atoms: C_13  and  C_14 
ROOT
HETATM    1  C           1     -22.098  -7.431  -2.050  0.00  0.00     0.280 C 
ENDROOT
BRANCH   1   2
HETATM    2  N           1     -22.373  -5.990  -1.737  0.00  0.00    -0.066 N 
HETATM    3  H           1     -23.368  -5.883  -1.434  0.00  0.00     0.275 HD
HETATM    4  H           1     -21.740  -5.675  -0.968  0.00  0.00     0.275 HD
HETATM    5  H           1     -22.205  -5.410  -2.589  0.00  0.00     0.275 HD
ENDBRANCH   1   2
BRANCH   1   6
HETATM    6  C           1     -20.730  -7.555  -2.708  0.00  0.00     0.101 C 
BRANCH   6   7
HETATM    7  C           1     -20.862  -7.336  -4.182  0.00  0.00     0.028 A 
HETATM    8  C           1     -21.086  -8.331  -5.104  0.00  0.00     0.114 A 
HETATM    9  N           1     -21.137  -7.691  -6.312  0.00  0.00    -0.360 N 
HETATM   10  C           1     -20.947  -6.360  -6.078  0.00  0.00     0.180 A 
HETATM   11  H           1     -21.295  -8.142  -7.246  0.00  0.00     0.166 HD
HETATM   12  N           1     -20.777  -6.114  -4.800  0.00  0.00    -0.355 N 
ATOM     13  HN          1     -20.617  -5.208  -4.360  1.00  0.00     0.166 HD
ENDBRANCH   6   7
ENDBRANCH   1   6
BRANCH   1  14
HETATM   14  C           1     -22.117  -8.235  -0.773  0.00  0.00     0.251 C 
HETATM   15  O           1     -21.886  -7.696   0.283  0.00  0.00    -0.271 OA
HETATM   16  N           1     -22.398  -9.574  -0.811  0.00  0.00    -0.336 N 
HETATM   17  C           1     -22.700 -10.386  -1.986  0.00  0.00     0.127 C 
HETATM   18  C           1     -22.459 -10.502   0.315  0.00  0.00     0.188 C 
HETATM   19  C           1     -23.816 -11.303  -1.516  0.00  0.00     0.022 C 
HETATM   20  C           1     -23.661 -11.376  -0.002  0.00  0.00     0.038 C 
BRANCH  18  21
HETATM   21  C           1     -21.200 -11.330   0.399  0.00  0.00     0.196 C 
HETATM   22  O           1     -20.082 -10.777   0.310  0.00  0.00    -0.646 OA
HETATM   23  O           1     -21.275 -12.568   0.555  0.00  0.00    -0.646 OA
ENDBRANCH  18  21
ENDBRANCH   1  14
TORSDOF 5
ENDMDL
MODEL 8
REMARK VINA RESULT:      -5.6      6.765     10.387
REMARK  5 active torsions:
REMARK  status: ('A' for Active; 'I' for Inactive)
REMARK    1  A    between atoms: N_1  and  C_7 
REMARK    2  A    between atoms: C_6  and  C_7 
REMARK    3  A    between atoms: C_6  and  C_21 
REMARK    4  A    between atoms: C_7  and  C_10 
REMARK       I    between atoms: C_10  and  N_11 
REMARK    5  A    between atoms: C_13  and  C_14 
ROOT
HETATM    1  C           1     -22.649  -8.448  -0.326  0.00  0.00     0.280 C 
ENDROOT
BRANCH   1   2
HETATM    2  N           1     -23.712  -7.964   0.616  0.00  0.00    -0.066 N 
HETATM    3  H           1     -24.080  -8.770   1.170  0.00  0.00     0.275 HD
HETATM    4  H           1     -23.304  -7.254   1.264  0.00  0.00     0.275 HD
HETATM    5  H           1     -24.491  -7.533   0.070  0.00  0.00     0.275 HD
ENDBRANCH   1   2
BRANCH   1   6
HETATM    6  C           1     -21.766  -7.278  -0.739  0.00  0.00     0.101 C 
BRANCH   6   7
HETATM    7  C           1     -21.685  -7.216  -2.232  0.00  0.00     0.028 A 
HETATM    8  C           1     -21.190  -8.221  -3.029  0.00  0.00     0.114 A 
HETATM    9  N           1     -21.303  -7.747  -4.308  0.00  0.00    -0.360 N 
HETATM   10  C           1     -21.850  -6.498  -4.235  0.00  0.00     0.180 A 
HETATM   11  H           1     -21.020  -8.252  -5.183  0.00  0.00     0.166 HD
HETATM   12  N           1     -22.092  -6.150  -2.992  0.00  0.00    -0.355 N 
ATOM     13  HN          1     -22.496  -5.273  -2.663  1.00  0.00     0.166 HD
ENDBRANCH   6   7
ENDBRANCH   1   6
BRANCH   1  14
HETATM   14  C           1     -21.808  -9.495   0.363  0.00  0.00     0.251 C 
HETATM   15  O           1     -20.911  -9.160   1.100  0.00  0.00    -0.271 OA
HETATM   16  N           1     -22.062 -10.824   0.153  0.00  0.00    -0.336 N 
HETATM   17  C           1     -23.096 -11.408  -0.696  0.00  0.00     0.127 C 
HETATM   18  C           1     -21.356 -11.965   0.730  0.00  0.00     0.188 C 
HETATM   19  C           1     -23.610 -12.585   0.116  0.00  0.00     0.022 C 
HETATM   20  C           1     -22.467 -12.949   1.057  0.00  0.00     0.038 C 
BRANCH  18  21
HETATM   21  C           1     -20.391 -12.559  -0.267  0.00  0.00     0.196 C 
HETATM   22  O           1     -19.573 -11.822  -0.859  0.00  0.00    -0.646 OA
HETATM   23  O           1     -20.409 -13.786  -0.501  0.00  0.00    -0.646 OA
ENDBRANCH  18  21
ENDBRANCH   1  14
TORSDOF 5
ENDMDL
MODEL 9
REMARK VINA RESULT:      -5.5      3.806      7.535
REMARK  5 active torsions:
REMARK  status: ('A' for Active; 'I' for Inactive)
REMARK    1  A    between atoms: N_1  and  C_7 
REMARK    2  A    between atoms: C_6  and  C_7 
REMARK    3  A    between atoms: C_6  and  C_21 
REMARK    4  A    between atoms: C_7  and  C_10 
REMARK       I    between atoms: C_10  and  N_11 
REMARK    5  A    between atoms: C_13  and  C_14 
ROOT
HETATM    1  C           1     -21.606  -6.583  -4.914  0.00  0.00     0.280 C 
ENDROOT
BRANCH   1   2
HETATM    2  N           1     -23.034  -6.143  -5.054  0.00  0.00    -0.066 N 
HETATM    3  H           1     -23.380  -5.787  -4.134  0.00  0.00     0.275 HD
HETATM    4  H           1     -23.094  -5.382  -5.766  0.00  0.00     0.275 HD
HETATM    5  H           1     -23.620  -6.953  -5.356  0.00  0.00     0.275 HD
ENDBRANCH   1   2
BRANCH   1   6
HETATM    6  C           1     -20.685  -5.386  -5.113  0.00  0.00     0.101 C 
BRANCH   6   7
HETATM    7  C           1     -20.628  -5.037  -6.567  0.00  0.00     0.028 A 
HETATM    8  C           1     -21.065  -3.849  -7.103  0.00  0.00     0.114 A 
HETATM    9  N           1     -20.826  -3.956  -8.446  0.00  0.00    -0.360 N 
HETATM   10  C           1     -20.265  -5.182  -8.665  0.00  0.00     0.180 A 
HETATM   11  H           1     -21.036  -3.229  -9.173  0.00  0.00     0.166 HD
HETATM   12  N           1     -20.133  -5.858  -7.548  0.00  0.00    -0.355 N 
ATOM     13  HN          1     -19.745  -6.794  -7.434  1.00  0.00     0.166 HD
ENDBRANCH   6   7
ENDBRANCH   1   6
BRANCH   1  14
HETATM   14  C           1     -21.391  -7.160  -3.536  0.00  0.00     0.251 C 
HETATM   15  O           1     -21.246  -6.424  -2.589  0.00  0.00    -0.271 OA
HETATM   16  N           1     -21.363  -8.518  -3.360  0.00  0.00    -0.336 N 
HETATM   17  C           1     -21.520  -9.551  -4.379  0.00  0.00     0.127 C 
HETATM   18  C           1     -21.167  -9.247  -2.109  0.00  0.00     0.188 C 
HETATM   19  C           1     -22.380 -10.603  -3.700  0.00  0.00     0.022 C 
HETATM   20  C           1     -22.151 -10.401  -2.207  0.00  0.00     0.038 C 
BRANCH  18  21
HETATM   21  C           1     -19.751  -9.758  -2.002  0.00  0.00     0.196 C 
HETATM   22  O           1     -18.802  -9.062  -2.424  0.00  0.00    -0.646 OA
HETATM   23  O           1     -19.527 -10.876  -1.491  0.00  0.00    -0.646 OA
ENDBRANCH  18  21
ENDBRANCH   1  14
TORSDOF 5
ENDMDL
