MODEL 1
REMARK VINA RESULT:      -5.8      0.000      0.000
REMARK  6 active torsions:
REMARK  status: ('A' for Active; 'I' for Inactive)
REMARK    1  A    between atoms: N_1  and  C_2 
REMARK       I    between atoms: N_1  and  C_6 
REMARK    2  A    between atoms: C_2  and  C_3 
REMARK    3  A    between atoms: C_6  and  C_11 
REMARK    4  A    between atoms: N_7  and  C_11 
REMARK    5  A    between atoms: C_9  and  C_11 
REMARK    6  A    between atoms: C_9  and  O_14 
ROOT
HETATM    1  N           1     -34.994  -0.509 -14.018  0.00  0.00    -0.345 N 
HETATM    2  O           1     -36.612  -1.259 -12.672  0.00  0.00    -0.271 OA
HETATM    3  C           1     -35.429  -1.111 -12.868  0.00  0.00     0.251 C 
HETATM    4  H           1     -34.003  -0.385 -14.181  0.00  0.00     0.163 HD
ENDROOT
BRANCH   3   5
HETATM    5  C           1     -34.430  -1.590 -11.842  0.00  0.00     0.302 C 
BRANCH   5   6
HETATM    6  N           1     -35.057  -1.554 -10.480  0.00  0.00    -0.064 N 
HETATM    7  H           1     -34.367  -1.888  -9.770  0.00  0.00     0.275 HD
HETATM    8  H           1     -35.341  -0.574 -10.254  0.00  0.00     0.275 HD
HETATM    9  H           1     -35.899  -2.173 -10.467  0.00  0.00     0.275 HD
ENDBRANCH   5   6
BRANCH   5  10
HETATM   10  C           1     -34.010  -3.017 -12.169  0.00  0.00     0.153 C 
HETATM   11  C           1     -34.674  -3.977 -11.192  0.00  0.00     0.042 C 
BRANCH  10  12
HETATM   12  O           1     -34.405  -3.333 -13.476  0.00  0.00    -0.393 OA
HETATM   13  H           1     -35.178  -2.827 -13.658  0.00  0.00     0.210 HD
ENDBRANCH  10  12
ENDBRANCH   5  10
ENDBRANCH   3   5
BRANCH   1  14
HETATM   14  C           1     -35.955  -0.049 -15.002  0.00  0.00     0.181 C 
HETATM   15  C           1     -35.601   1.369 -15.431  0.00  0.00     0.043 C 
BRANCH  14  16
HETATM   16  C           1     -35.919  -0.962 -16.203  0.00  0.00     0.196 C 
HETATM   17  O           1     -36.669  -0.741 -17.179  0.00  0.00    -0.646 OA
HETATM   18  O           1     -35.141  -1.940 -16.222  0.00  0.00    -0.646 OA
ENDBRANCH  14  16
ENDBRANCH   1  14
TORSDOF 6
ENDMDL
MODEL 2
REMARK VINA RESULT:      -5.4      2.061      2.530
REMARK  6 active torsions:
REMARK  status: ('A' for Active; 'I' for Inactive)
REMARK    1  A    between atoms: N_1  and  C_2 
REMARK       I    between atoms: N_1  and  C_6 
REMARK    2  A    between atoms: C_2  and  C_3 
REMARK    3  A    between atoms: C_6  and  C_11 
REMARK    4  A    between atoms: N_7  and  C_11 
REMARK    5  A    between atoms: C_9  and  C_11 
REMARK    6  A    between atoms: C_9  and  O_14 
ROOT
HETATM    1  N           1     -35.183  -1.388 -13.305  0.00  0.00    -0.345 N 
HETATM    2  O           1     -34.505  -1.270 -11.180  0.00  0.00    -0.271 OA
HETATM    3  C           1     -34.581  -1.919 -12.196  0.00  0.00     0.251 C 
HETATM    4  H           1     -35.246  -1.932 -14.156  0.00  0.00     0.163 HD
ENDROOT
BRANCH   3   5
HETATM    5  C           1     -34.011  -3.316 -12.242  0.00  0.00     0.302 C 
BRANCH   5   6
HETATM    6  N           1     -32.709  -3.348 -11.500  0.00  0.00    -0.064 N 
HETATM    7  H           1     -32.418  -2.372 -11.264  0.00  0.00     0.275 HD
HETATM    8  H           1     -32.824  -3.898 -10.619  0.00  0.00     0.275 HD
HETATM    9  H           1     -31.977  -3.795 -12.097  0.00  0.00     0.275 HD
ENDBRANCH   5   6
BRANCH   5  10
HETATM   10  C           1     -34.989  -4.286 -11.593  0.00  0.00     0.153 C 
HETATM   11  C           1     -34.260  -5.112 -10.542  0.00  0.00     0.042 C 
BRANCH  10  12
HETATM   12  O           1     -36.027  -3.567 -10.985  0.00  0.00    -0.393 OA
HETATM   13  H           1     -36.801  -3.713 -11.502  0.00  0.00     0.210 HD
ENDBRANCH  10  12
ENDBRANCH   5  10
ENDBRANCH   3   5
BRANCH   1  14
HETATM   14  C           1     -35.730  -0.045 -13.260  0.00  0.00     0.181 C 
HETATM   15  C           1     -34.940   0.855 -14.200  0.00  0.00     0.043 C 
BRANCH  14  16
HETATM   16  C           1     -37.176  -0.077 -13.689  0.00  0.00     0.196 C 
HETATM   17  O           1     -38.063  -0.412 -12.874  0.00  0.00    -0.646 OA
HETATM   18  O           1     -37.488   0.231 -14.860  0.00  0.00    -0.646 OA
ENDBRANCH  14  16
ENDBRANCH   1  14
TORSDOF 6
ENDMDL
MODEL 3
REMARK VINA RESULT:      -5.3      1.793      2.044
REMARK  6 active torsions:
REMARK  status: ('A' for Active; 'I' for Inactive)
REMARK    1  A    between atoms: N_1  and  C_2 
REMARK       I    between atoms: N_1  and  C_6 
REMARK    2  A    between atoms: C_2  and  C_3 
REMARK    3  A    between atoms: C_6  and  C_11 
REMARK    4  A    between atoms: N_7  and  C_11 
REMARK    5  A    between atoms: C_9  and  C_11 
REMARK    6  A    between atoms: C_9  and  O_14 
ROOT
HETATM    1  N           1     -35.102  -1.506 -13.167  0.00  0.00    -0.345 N 
HETATM    2  O           1     -36.553  -1.246 -11.489  0.00  0.00    -0.271 OA
HETATM    3  C           1     -35.653  -1.890 -11.975  0.00  0.00     0.251 C 
HETATM    4  H           1     -34.349  -2.045 -13.574  0.00  0.00     0.163 HD
ENDROOT
BRANCH   3   5
HETATM    5  C           1     -35.137  -3.119 -11.265  0.00  0.00     0.302 C 
BRANCH   5   6
HETATM    6  N           1     -35.044  -4.255 -12.240  0.00  0.00    -0.064 N 
HETATM    7  H           1     -34.273  -4.899 -11.951  0.00  0.00     0.275 HD
HETATM    8  H           1     -35.948  -4.778 -12.253  0.00  0.00     0.275 HD
HETATM    9  H           1     -34.844  -3.880 -13.195  0.00  0.00     0.275 HD
ENDBRANCH   5   6
BRANCH   5  10
HETATM   10  C           1     -33.757  -2.831 -10.688  0.00  0.00     0.153 C 
HETATM   11  C           1     -32.702  -3.553 -11.515  0.00  0.00     0.042 C 
BRANCH  10  12
HETATM   12  O           1     -33.515  -1.451 -10.723  0.00  0.00    -0.393 OA
HETATM   13  H           1     -33.060  -1.273 -11.528  0.00  0.00     0.210 HD
ENDBRANCH  10  12
ENDBRANCH   5  10
ENDBRANCH   3   5
BRANCH   1  14
HETATM   14  C           1     -35.599  -0.325 -13.848  0.00  0.00     0.181 C 
HETATM   15  C           1     -34.656   0.842 -13.590  0.00  0.00     0.043 C 
BRANCH  14  16
HETATM   16  C           1     -35.674  -0.594 -15.330  0.00  0.00     0.196 C 
HETATM   17  O           1     -35.253  -1.677 -15.792  0.00  0.00    -0.646 OA
HETATM   18  O           1     -36.157   0.266 -16.098  0.00  0.00    -0.646 OA
ENDBRANCH  14  16
ENDBRANCH   1  14
TORSDOF 6
ENDMDL
MODEL 4
REMARK VINA RESULT:      -5.2     13.376     14.842
REMARK  6 active torsions:
REMARK  status: ('A' for Active; 'I' for Inactive)
REMARK    1  A    between atoms: N_1  and  C_2 
REMARK       I    between atoms: N_1  and  C_6 
REMARK    2  A    between atoms: C_2  and  C_3 
REMARK    3  A    between atoms: C_6  and  C_11 
REMARK    4  A    between atoms: N_7  and  C_11 
REMARK    5  A    between atoms: C_9  and  C_11 
REMARK    6  A    between atoms: C_9  and  O_14 
ROOT
HETATM    1  N           1     -22.248  -4.788  -9.023  0.00  0.00    -0.345 N 
HETATM    2  O           1     -21.612  -3.519  -7.298  0.00  0.00    -0.271 OA
HETATM    3  C           1     -21.714  -4.626  -7.773  0.00  0.00     0.251 C 
HETATM    4  H           1     -22.333  -5.715  -9.420  0.00  0.00     0.163 HD
ENDROOT
BRANCH   3   5
HETATM    5  C           1     -21.251  -5.829  -6.987  0.00  0.00     0.302 C 
BRANCH   5   6
HETATM    6  N           1     -19.855  -6.188  -7.402  0.00  0.00    -0.064 N 
HETATM    7  H           1     -19.378  -5.343  -7.790  0.00  0.00     0.275 HD
HETATM    8  H           1     -19.324  -6.537  -6.573  0.00  0.00     0.275 HD
HETATM    9  H           1     -19.890  -6.935  -8.133  0.00  0.00     0.275 HD
ENDBRANCH   5   6
BRANCH   5  10
HETATM   10  C           1     -21.269  -5.503  -5.500  0.00  0.00     0.153 C 
HETATM   11  C           1     -21.187  -6.794  -4.697  0.00  0.00     0.042 C 
BRANCH  10  12
HETATM   12  O           1     -20.173  -4.687  -5.186  0.00  0.00    -0.393 OA
HETATM   13  H           1     -20.475  -3.796  -5.228  0.00  0.00     0.210 HD
ENDBRANCH  10  12
ENDBRANCH   5  10
ENDBRANCH   3   5
BRANCH   1  14
HETATM   14  C           1     -22.692  -3.632  -9.777  0.00  0.00     0.181 C 
HETATM   15  C           1     -21.814  -3.464 -11.010  0.00  0.00     0.043 C 
BRANCH  14  16
HETATM   16  C           1     -24.126  -3.830 -10.202  0.00  0.00     0.196 C 
HETATM   17  O           1     -24.702  -2.957 -10.886  0.00  0.00    -0.646 OA
HETATM   18  O           1     -24.739  -4.869  -9.870  0.00  0.00    -0.646 OA
ENDBRANCH  14  16
ENDBRANCH   1  14
TORSDOF 6
ENDMDL
MODEL 5
REMARK VINA RESULT:      -5.2     10.277     11.131
REMARK  6 active torsions:
REMARK  status: ('A' for Active; 'I' for Inactive)
REMARK    1  A    between atoms: N_1  and  C_2 
REMARK       I    between atoms: N_1  and  C_6 
REMARK    2  A    between atoms: C_2  and  C_3 
REMARK    3  A    between atoms: C_6  and  C_11 
REMARK    4  A    between atoms: N_7  and  C_11 
REMARK    5  A    between atoms: C_9  and  C_11 
REMARK    6  A    between atoms: C_9  and  O_14 
ROOT
HETATM    1  N           1     -27.423  -7.168 -19.138  0.00  0.00    -0.345 N 
HETATM    2  O           1     -28.437  -5.179 -19.218  0.00  0.00    -0.271 OA
HETATM    3  C           1     -28.307  -6.240 -18.656  0.00  0.00     0.251 C 
HETATM    4  H           1     -27.315  -8.057 -18.667  0.00  0.00     0.163 HD
ENDROOT
BRANCH   3   5
HETATM    5  C           1     -29.121  -6.544 -17.421  0.00  0.00     0.302 C 
BRANCH   5   6
HETATM    6  N           1     -29.381  -8.019 -17.345  0.00  0.00    -0.064 N 
HETATM    7  H           1     -29.991  -8.223 -16.522  0.00  0.00     0.275 HD
HETATM    8  H           1     -29.860  -8.334 -18.219  0.00  0.00     0.275 HD
HETATM    9  H           1     -28.474  -8.528 -17.242  0.00  0.00     0.275 HD
ENDBRANCH   5   6
BRANCH   5  10
HETATM   10  C           1     -28.352  -6.100 -16.184  0.00  0.00     0.153 C 
HETATM   11  C           1     -27.792  -7.323 -15.470  0.00  0.00     0.042 C 
BRANCH  10  12
HETATM   12  O           1     -27.299  -5.257 -16.565  0.00  0.00    -0.393 OA
HETATM   13  H           1     -26.653  -5.800 -16.984  0.00  0.00     0.210 HD
ENDBRANCH  10  12
ENDBRANCH   5  10
ENDBRANCH   3   5
BRANCH   1  14
HETATM   14  C           1     -26.642  -6.875 -20.324  0.00  0.00     0.181 C 
HETATM   15  C           1     -25.233  -6.468 -19.914  0.00  0.00     0.043 C 
BRANCH  14  16
HETATM   16  C           1     -26.577  -8.103 -21.199  0.00  0.00     0.196 C 
HETATM   17  O           1     -27.609  -8.777 -21.407  0.00  0.00    -0.646 OA
HETATM   18  O           1     -25.491  -8.447 -21.715  0.00  0.00    -0.646 OA
ENDBRANCH  14  16
ENDBRANCH   1  14
TORSDOF 6
ENDMDL
MODEL 6
REMARK VINA RESULT:      -5.1     10.680     11.631
REMARK  6 active torsions:
REMARK  status: ('A' for Active; 'I' for Inactive)
REMARK    1  A    between atoms: N_1  and  C_2 
REMARK       I    between atoms: N_1  and  C_6 
REMARK    2  A    between atoms: C_2  and  C_3 
REMARK    3  A    between atoms: C_6  and  C_11 
REMARK    4  A    between atoms: N_7  and  C_11 
REMARK    5  A    between atoms: C_9  and  C_11 
REMARK    6  A    between atoms: C_9  and  O_14 
ROOT
HETATM    1  N           1     -27.632  -6.408 -19.045  0.00  0.00    -0.345 N 
HETATM    2  O           1     -26.089  -6.214 -17.441  0.00  0.00    -0.271 OA
HETATM    3  C           1     -26.335  -6.415 -18.607  0.00  0.00     0.251 C 
HETATM    4  H           1     -27.838  -6.576 -20.021  0.00  0.00     0.163 HD
ENDROOT
BRANCH   3   5
HETATM    5  C           1     -25.211  -6.672 -19.581  0.00  0.00     0.302 C 
BRANCH   5   6
HETATM    6  N           1     -24.246  -7.651 -18.982  0.00  0.00    -0.064 N 
HETATM    7  H           1     -24.561  -8.625 -19.193  0.00  0.00     0.275 HD
HETATM    8  H           1     -23.296  -7.498 -19.390  0.00  0.00     0.275 HD
HETATM    9  H           1     -24.207  -7.513 -17.946  0.00  0.00     0.275 HD
ENDBRANCH   5   6
BRANCH   5  10
HETATM   10  C           1     -25.778  -7.245 -20.873  0.00  0.00     0.153 C 
HETATM   11  C           1     -24.639  -7.757 -21.743  0.00  0.00     0.042 C 
BRANCH  10  12
HETATM   12  O           1     -26.649  -8.302 -20.573  0.00  0.00    -0.393 OA
HETATM   13  H           1     -27.348  -8.267 -21.202  0.00  0.00     0.210 HD
ENDBRANCH  10  12
ENDBRANCH   5  10
ENDBRANCH   3   5
BRANCH   1  14
HETATM   14  C           1     -28.712  -6.161 -18.108  0.00  0.00     0.181 C 
HETATM   15  C           1     -29.365  -4.824 -18.430  0.00  0.00     0.043 C 
BRANCH  14  16
HETATM   16  C           1     -29.736  -7.263 -18.220  0.00  0.00     0.196 C 
HETATM   17  O           1     -30.805  -7.191 -17.576  0.00  0.00    -0.646 OA
HETATM   18  O           1     -29.516  -8.248 -18.958  0.00  0.00    -0.646 OA
ENDBRANCH  14  16
ENDBRANCH   1  14
TORSDOF 6
ENDMDL
MODEL 7
REMARK VINA RESULT:      -5.1     10.887     11.968
REMARK  6 active torsions:
REMARK  status: ('A' for Active; 'I' for Inactive)
REMARK    1  A    between atoms: N_1  and  C_2 
REMARK       I    between atoms: N_1  and  C_6 
REMARK    2  A    between atoms: C_2  and  C_3 
REMARK    3  A    between atoms: C_6  and  C_11 
REMARK    4  A    between atoms: N_7  and  C_11 
REMARK    5  A    between atoms: C_9  and  C_11 
REMARK    6  A    between atoms: C_9  and  O_14 
ROOT
HETATM    1  N           1     -26.749  -6.465 -18.105  0.00  0.00    -0.345 N 
HETATM    2  O           1     -27.246  -6.322 -20.278  0.00  0.00    -0.271 OA
HETATM    3  C           1     -26.406  -6.506 -19.430  0.00  0.00     0.251 C 
HETATM    4  H           1     -26.045  -6.620 -17.395  0.00  0.00     0.163 HD
ENDROOT
BRANCH   3   5
HETATM    5  C           1     -24.977  -6.782 -19.832  0.00  0.00     0.302 C 
BRANCH   5   6
HETATM    6  N           1     -24.301  -7.577 -18.755  0.00  0.00    -0.064 N 
HETATM    7  H           1     -24.768  -7.389 -17.838  0.00  0.00     0.275 HD
HETATM    8  H           1     -24.372  -8.596 -18.977  0.00  0.00     0.275 HD
HETATM    9  H           1     -23.295  -7.301 -18.697  0.00  0.00     0.275 HD
ENDBRANCH   5   6
BRANCH   5  10
HETATM   10  C           1     -24.959  -7.573 -21.133  0.00  0.00     0.153 C 
HETATM   11  C           1     -23.598  -8.235 -21.304  0.00  0.00     0.042 C 
BRANCH  10  12
HETATM   12  O           1     -25.956  -8.558 -21.096  0.00  0.00    -0.393 OA
HETATM   13  H           1     -26.705  -8.173 -20.674  0.00  0.00     0.210 HD
ENDBRANCH  10  12
ENDBRANCH   5  10
ENDBRANCH   3   5
BRANCH   1  14
HETATM   14  C           1     -28.122  -6.200 -17.720  0.00  0.00     0.181 C 
HETATM   15  C           1     -28.464  -7.010 -16.477  0.00  0.00     0.043 C 
BRANCH  14  16
HETATM   16  C           1     -28.286  -4.730 -17.426  0.00  0.00     0.196 C 
HETATM   17  O           1     -29.111  -4.050 -18.073  0.00  0.00    -0.646 OA
HETATM   18  O           1     -27.596  -4.190 -16.533  0.00  0.00    -0.646 OA
ENDBRANCH  14  16
ENDBRANCH   1  14
TORSDOF 6
ENDMDL
MODEL 8
REMARK VINA RESULT:      -4.9     11.394     12.798
REMARK  6 active torsions:
REMARK  status: ('A' for Active; 'I' for Inactive)
REMARK    1  A    between atoms: N_1  and  C_2 
REMARK       I    between atoms: N_1  and  C_6 
REMARK    2  A    between atoms: C_2  and  C_3 
REMARK    3  A    between atoms: C_6  and  C_11 
REMARK    4  A    between atoms: N_7  and  C_11 
REMARK    5  A    between atoms: C_9  and  C_11 
REMARK    6  A    between atoms: C_9  and  O_14 
ROOT
HETATM    1  N           1     -26.424  -6.640 -18.211  0.00  0.00    -0.345 N 
HETATM    2  O           1     -24.200  -6.517 -18.373  0.00  0.00    -0.271 OA
HETATM    3  C           1     -25.245  -6.867 -18.868  0.00  0.00     0.251 C 
HETATM    4  H           1     -27.300  -6.934 -18.626  0.00  0.00     0.163 HD
ENDROOT
BRANCH   3   5
HETATM    5  C           1     -25.249  -7.555 -20.212  0.00  0.00     0.302 C 
BRANCH   5   6
HETATM    6  N           1     -26.665  -7.774 -20.656  0.00  0.00    -0.064 N 
HETATM    7  H           1     -27.292  -7.804 -19.819  0.00  0.00     0.275 HD
HETATM    8  H           1     -26.959  -6.990 -21.281  0.00  0.00     0.275 HD
HETATM    9  H           1     -26.732  -8.678 -21.174  0.00  0.00     0.275 HD
ENDBRANCH   5   6
BRANCH   5  10
HETATM   10  C           1     -24.528  -6.683 -21.232  0.00  0.00     0.153 C 
HETATM   11  C           1     -24.204  -7.512 -22.467  0.00  0.00     0.042 C 
BRANCH  10  12
HETATM   12  O           1     -25.351  -5.607 -21.593  0.00  0.00    -0.393 OA
HETATM   13  H           1     -26.184  -5.971 -21.840  0.00  0.00     0.210 HD
ENDBRANCH  10  12
ENDBRANCH   5  10
ENDBRANCH   3   5
BRANCH   1  14
HETATM   14  C           1     -26.419  -5.980 -16.921  0.00  0.00     0.181 C 
HETATM   15  C           1     -27.661  -5.107 -16.793  0.00  0.00     0.043 C 
BRANCH  14  16
HETATM   16  C           1     -26.417  -7.017 -15.825  0.00  0.00     0.196 C 
HETATM   17  O           1     -27.499  -7.427 -15.350  0.00  0.00    -0.646 OA
HETATM   18  O           1     -25.334  -7.467 -15.392  0.00  0.00    -0.646 OA
ENDBRANCH  14  16
ENDBRANCH   1  14
TORSDOF 6
ENDMDL
MODEL 9
REMARK VINA RESULT:      -4.9     13.649     15.717
REMARK  6 active torsions:
REMARK  status: ('A' for Active; 'I' for Inactive)
REMARK    1  A    between atoms: N_1  and  C_2 
REMARK       I    between atoms: N_1  and  C_6 
REMARK    2  A    between atoms: C_2  and  C_3 
REMARK    3  A    between atoms: C_6  and  C_11 
REMARK    4  A    between atoms: N_7  and  C_11 
REMARK    5  A    between atoms: C_9  and  C_11 
REMARK    6  A    between atoms: C_9  and  O_14 
ROOT
HETATM    1  N           1     -21.350  -4.715  -8.301  0.00  0.00    -0.345 N 
HETATM    2  O           1     -19.936  -4.902 -10.020  0.00  0.00    -0.271 OA
HETATM    3  C           1     -20.983  -4.472  -9.597  0.00  0.00     0.251 C 
HETATM    4  H           1     -22.227  -4.355  -7.947  0.00  0.00     0.163 HD
ENDROOT
BRANCH   3   5
HETATM    5  C           1     -21.886  -3.666 -10.499  0.00  0.00     0.302 C 
BRANCH   5   6
HETATM    6  N           1     -21.122  -3.239 -11.717  0.00  0.00    -0.064 N 
HETATM    7  H           1     -20.158  -3.643 -11.684  0.00  0.00     0.275 HD
HETATM    8  H           1     -21.612  -3.580 -12.574  0.00  0.00     0.275 HD
HETATM    9  H           1     -21.061  -2.196 -11.742  0.00  0.00     0.275 HD
ENDBRANCH   5   6
BRANCH   5  10
HETATM   10  C           1     -23.075  -4.519 -10.921  0.00  0.00     0.153 C 
HETATM   11  C           1     -24.359  -3.892 -10.396  0.00  0.00     0.042 C 
BRANCH  10  12
HETATM   12  O           1     -23.127  -4.590 -12.320  0.00  0.00    -0.393 OA
HETATM   13  H           1     -23.094  -5.503 -12.549  0.00  0.00     0.210 HD
ENDBRANCH  10  12
ENDBRANCH   5  10
ENDBRANCH   3   5
BRANCH   1  14
HETATM   14  C           1     -20.481  -5.489  -7.435  0.00  0.00     0.181 C 
HETATM   15  C           1     -19.518  -4.553  -6.717  0.00  0.00     0.043 C 
BRANCH  14  16
HETATM   16  C           1     -21.315  -6.230  -6.420  0.00  0.00     0.196 C 
HETATM   17  O           1     -22.166  -5.616  -5.741  0.00  0.00    -0.646 OA
HETATM   18  O           1     -21.155  -7.460  -6.257  0.00  0.00    -0.646 OA
ENDBRANCH  14  16
ENDBRANCH   1  14
TORSDOF 6
ENDMDL
