MODEL 1
REMARK VINA RESULT:      -6.6      0.000      0.000
REMARK  10 active torsions:
REMARK  status: ('A' for Active; 'I' for Inactive)
REMARK    1  A    between atoms: N_7  and  C_10 
REMARK    2  A    between atoms: Se_8  and  C_9 
REMARK    3  A    between atoms: C_9  and  C_10 
REMARK    4  A    between atoms: C_10  and  C_11 
REMARK       I    between atoms: C_11  and  N_12 
REMARK    5  A    between atoms: N_12  and  C_16 
REMARK    6  A    between atoms: C_15  and  C_16 
REMARK    7  A    between atoms: C_16  and  C_17 
REMARK    8  A    between atoms: C_17  and  C_18 
REMARK    9  A    between atoms: C_18  and  C_19 
REMARK   10  A    between atoms: C_19  and  N_20 
REMARK       I    between atoms: N_20  and  C_22 
REMARK       I    between atoms: N_21  and  C_22 
ROOT
HETATM    1  C           1     -28.615  -6.392 -18.351  0.00  0.00     0.185 C 
ENDROOT
BRANCH   1   2
HETATM    2  N           1     -27.496  -6.713 -19.214  0.00  0.00    -0.345 N 
HETATM    3  C           1     -26.215  -6.573 -18.753  0.00  0.00     0.249 C 
HETATM    4  O           1     -26.016  -6.182 -17.627  0.00  0.00    -0.271 OA
HETATM    5  H           1     -27.662  -7.040 -20.157  0.00  0.00     0.163 HD
BRANCH   3   6
HETATM    6  C           1     -25.049  -6.907 -19.651  0.00  0.00     0.274 C 
BRANCH   6   7
HETATM    7  N           1     -24.014  -7.659 -18.869  0.00  0.00    -0.067 N 
HETATM    8  H           1     -23.803  -7.145 -17.984  0.00  0.00     0.275 HD
HETATM    9  H           1     -24.375  -8.613 -18.640  0.00  0.00     0.275 HD
HETATM   10  H           1     -23.141  -7.745 -19.439  0.00  0.00     0.275 HD
ENDBRANCH   6   7
BRANCH   6  11
HETATM   11  C           1     -25.531  -7.765 -20.813  0.00  0.00     0.045 C 
BRANCH  11  12
HETATM   12 Se           1     -24.156  -7.825 -22.192  0.00  0.00     0.000 Se
HETATM   13  H           1     -23.036  -7.870 -21.238  0.00  0.00     0.000 HD
ENDBRANCH  11  12
ENDBRANCH   6  11
ENDBRANCH   3   6
ENDBRANCH   1   2
BRANCH   1  14
HETATM   14  C           1     -29.670  -7.464 -18.475  0.00  0.00     0.196 C 
HETATM   15  O           1     -30.761  -7.339 -17.877  0.00  0.00    -0.646 OA
HETATM   16  O           1     -29.454  -8.476 -19.176  0.00  0.00    -0.646 OA
ENDBRANCH   1  14
BRANCH   1  17
HETATM   17  C           1     -29.204  -5.048 -18.762  0.00  0.00     0.038 C 
BRANCH  17  18
HETATM   18  C           1     -29.142  -4.084 -17.585  0.00  0.00     0.023 C 
BRANCH  18  19
HETATM   19  C           1     -30.509  -3.442 -17.382  0.00  0.00     0.138 C 
BRANCH  19  20
HETATM   20  N           1     -31.429  -4.424 -16.789  0.00  0.00    -0.227 N 
HETATM   21  H           1     -31.048  -5.271 -16.299  0.00  0.00     0.177 HD
HETATM   22  C           1     -32.680  -4.248 -16.868  0.00  0.00     0.665 C 
HETATM   23  N           1     -33.140  -3.226 -17.459  0.00  0.00    -0.235 N 
HETATM   24  N           1     -33.493  -5.116 -16.344  0.00  0.00    -0.235 N 
HETATM   25  H           1     -34.177  -3.081 -17.526  0.00  0.00     0.174 HD
HETATM   26  H           1     -32.483  -2.525 -17.883  0.00  0.00     0.174 HD
HETATM   27  H           1     -34.526  -4.971 -16.410  0.00  0.00     0.174 HD
HETATM   28  H           1     -33.114  -5.959 -15.857  0.00  0.00     0.174 HD
ENDBRANCH  19  20
ENDBRANCH  18  19
ENDBRANCH  17  18
ENDBRANCH   1  17
TORSDOF 10
ENDMDL
MODEL 2
REMARK VINA RESULT:      -6.3      1.936      2.575
REMARK  10 active torsions:
REMARK  status: ('A' for Active; 'I' for Inactive)
REMARK    1  A    between atoms: N_7  and  C_10 
REMARK    2  A    between atoms: Se_8  and  C_9 
REMARK    3  A    between atoms: C_9  and  C_10 
REMARK    4  A    between atoms: C_10  and  C_11 
REMARK       I    between atoms: C_11  and  N_12 
REMARK    5  A    between atoms: N_12  and  C_16 
REMARK    6  A    between atoms: C_15  and  C_16 
REMARK    7  A    between atoms: C_16  and  C_17 
REMARK    8  A    between atoms: C_17  and  C_18 
REMARK    9  A    between atoms: C_18  and  C_19 
REMARK   10  A    between atoms: C_19  and  N_20 
REMARK       I    between atoms: N_20  and  C_22 
REMARK       I    between atoms: N_21  and  C_22 
ROOT
HETATM    1  C           1     -26.461  -5.957 -16.939  0.00  0.00     0.185 C 
ENDROOT
BRANCH   1   2
HETATM    2  N           1     -26.552  -6.631 -18.219  0.00  0.00    -0.345 N 
HETATM    3  C           1     -25.422  -6.846 -18.961  0.00  0.00     0.249 C 
HETATM    4  O           1     -24.349  -6.475 -18.550  0.00  0.00    -0.271 OA
HETATM    5  H           1     -27.451  -6.943 -18.564  0.00  0.00     0.163 HD
BRANCH   3   6
HETATM    6  C           1     -25.517  -7.548 -20.294  0.00  0.00     0.274 C 
BRANCH   6   7
HETATM    7  N           1     -26.958  -7.803 -20.624  0.00  0.00    -0.067 N 
HETATM    8  H           1     -27.462  -8.122 -19.765  0.00  0.00     0.275 HD
HETATM    9  H           1     -27.396  -6.922 -20.977  0.00  0.00     0.275 HD
HETATM   10  H           1     -27.021  -8.543 -21.360  0.00  0.00     0.275 HD
ENDBRANCH   6   7
BRANCH   6  11
HETATM   11  C           1     -24.896  -6.673 -21.374  0.00  0.00     0.045 C 
BRANCH  11  12
HETATM   12 Se           1     -23.828  -7.779 -22.572  0.00  0.00     0.000 Se
HETATM   13  H           1     -24.889  -7.911 -23.584  0.00  0.00     0.000 HD
ENDBRANCH  11  12
ENDBRANCH   6  11
ENDBRANCH   3   6
ENDBRANCH   1   2
BRANCH   1  14
HETATM   14  C           1     -26.436  -6.982 -15.831  0.00  0.00     0.196 C 
HETATM   15  O           1     -27.508  -7.400 -15.343  0.00  0.00    -0.646 OA
HETATM   16  O           1     -25.344  -7.413 -15.402  0.00  0.00    -0.646 OA
ENDBRANCH   1  14
BRANCH   1  17
HETATM   17  C           1     -27.666  -5.043 -16.760  0.00  0.00     0.038 C 
BRANCH  17  18
HETATM   18  C           1     -28.663  -5.289 -17.884  0.00  0.00     0.023 C 
BRANCH  18  19
HETATM   19  C           1     -30.059  -5.461 -17.297  0.00  0.00     0.138 C 
BRANCH  19  20
HETATM   20  N           1     -30.822  -4.217 -17.475  0.00  0.00    -0.227 N 
HETATM   21  H           1     -30.343  -3.353 -17.827  0.00  0.00     0.177 HD
HETATM   22  C           1     -32.058  -4.189 -17.203  0.00  0.00     0.665 C 
HETATM   23  N           1     -32.637  -5.232 -16.778  0.00  0.00    -0.235 N 
HETATM   24  N           1     -32.733  -3.089 -17.360  0.00  0.00    -0.235 N 
HETATM   25  H           1     -33.662  -5.209 -16.553  0.00  0.00     0.174 HD
HETATM   26  H           1     -32.092  -6.120 -16.652  0.00  0.00     0.174 HD
HETATM   27  H           1     -33.753  -3.066 -17.135  0.00  0.00     0.174 HD
HETATM   28  H           1     -32.255  -2.229 -17.710  0.00  0.00     0.174 HD
ENDBRANCH  19  20
ENDBRANCH  18  19
ENDBRANCH  17  18
ENDBRANCH   1  17
TORSDOF 10
ENDMDL
MODEL 3
REMARK VINA RESULT:      -5.6      3.258      7.404
REMARK  10 active torsions:
REMARK  status: ('A' for Active; 'I' for Inactive)
REMARK    1  A    between atoms: N_7  and  C_10 
REMARK    2  A    between atoms: Se_8  and  C_9 
REMARK    3  A    between atoms: C_9  and  C_10 
REMARK    4  A    between atoms: C_10  and  C_11 
REMARK       I    between atoms: C_11  and  N_12 
REMARK    5  A    between atoms: N_12  and  C_16 
REMARK    6  A    between atoms: C_15  and  C_16 
REMARK    7  A    between atoms: C_16  and  C_17 
REMARK    8  A    between atoms: C_17  and  C_18 
REMARK    9  A    between atoms: C_18  and  C_19 
REMARK   10  A    between atoms: C_19  and  N_20 
REMARK       I    between atoms: N_20  and  C_22 
REMARK       I    between atoms: N_21  and  C_22 
ROOT
HETATM    1  C           1     -26.040  -6.798 -17.613  0.00  0.00     0.185 C 
ENDROOT
BRANCH   1   2
HETATM    2  N           1     -26.969  -5.688 -17.545  0.00  0.00    -0.345 N 
HETATM    3  C           1     -28.273  -5.908 -17.190  0.00  0.00     0.249 C 
HETATM    4  O           1     -28.649  -7.026 -16.934  0.00  0.00    -0.271 OA
HETATM    5  H           1     -26.654  -4.750 -17.760  0.00  0.00     0.163 HD
BRANCH   3   6
HETATM    6  C           1     -29.241  -4.752 -17.119  0.00  0.00     0.274 C 
BRANCH   6   7
HETATM    7  N           1     -29.545  -4.269 -18.506  0.00  0.00    -0.067 N 
HETATM    8  H           1     -30.523  -4.536 -18.763  0.00  0.00     0.275 HD
HETATM    9  H           1     -29.448  -3.229 -18.542  0.00  0.00     0.275 HD
HETATM   10  H           1     -28.876  -4.705 -19.182  0.00  0.00     0.275 HD
ENDBRANCH   6   7
BRANCH   6  11
HETATM   11  C           1     -30.528  -5.207 -16.446  0.00  0.00     0.045 C 
BRANCH  11  12
HETATM   12 Se           1     -32.024  -4.161 -17.129  0.00  0.00     0.000 Se
HETATM   13  H           1     -31.249  -2.916 -17.250  0.00  0.00     0.000 HD
ENDBRANCH  11  12
ENDBRANCH   6  11
ENDBRANCH   3   6
ENDBRANCH   1   2
BRANCH   1  14
HETATM   14  C           1     -25.181  -6.812 -16.372  0.00  0.00     0.196 C 
HETATM   15  O           1     -25.093  -5.787 -15.662  0.00  0.00    -0.646 OA
HETATM   16  O           1     -24.558  -7.848 -16.055  0.00  0.00    -0.646 OA
ENDBRANCH   1  14
BRANCH   1  17
HETATM   17  C           1     -25.155  -6.644 -18.843  0.00  0.00     0.038 C 
BRANCH  17  18
HETATM   18  C           1     -25.991  -6.841 -20.100  0.00  0.00     0.023 C 
BRANCH  18  19
HETATM   19  C           1     -25.289  -7.823 -21.030  0.00  0.00     0.138 C 
BRANCH  19  20
HETATM   20  N           1     -23.931  -8.086 -20.531  0.00  0.00    -0.227 N 
HETATM   21  H           1     -23.707  -7.938 -19.516  0.00  0.00     0.177 HD
HETATM   22  C           1     -23.032  -8.490 -21.325  0.00  0.00     0.665 C 
HETATM   23  N           1     -23.302  -8.668 -22.550  0.00  0.00    -0.235 N 
HETATM   24  N           1     -21.832  -8.723 -20.884  0.00  0.00    -0.235 N 
HETATM   25  H           1     -22.556  -9.004 -23.208  0.00  0.00     0.174 HD
HETATM   26  H           1     -24.272  -8.481 -22.906  0.00  0.00     0.174 HD
HETATM   27  H           1     -21.090  -9.056 -21.540  0.00  0.00     0.174 HD
HETATM   28  H           1     -21.609  -8.575 -19.874  0.00  0.00     0.174 HD
ENDBRANCH  19  20
ENDBRANCH  18  19
ENDBRANCH  17  18
ENDBRANCH   1  17
TORSDOF 10
ENDMDL
MODEL 4
REMARK VINA RESULT:      -5.5     14.019     15.073
REMARK  10 active torsions:
REMARK  status: ('A' for Active; 'I' for Inactive)
REMARK    1  A    between atoms: N_7  and  C_10 
REMARK    2  A    between atoms: Se_8  and  C_9 
REMARK    3  A    between atoms: C_9  and  C_10 
REMARK    4  A    between atoms: C_10  and  C_11 
REMARK       I    between atoms: C_11  and  N_12 
REMARK    5  A    between atoms: N_12  and  C_16 
REMARK    6  A    between atoms: C_15  and  C_16 
REMARK    7  A    between atoms: C_16  and  C_17 
REMARK    8  A    between atoms: C_17  and  C_18 
REMARK    9  A    between atoms: C_18  and  C_19 
REMARK   10  A    between atoms: C_19  and  N_20 
REMARK       I    between atoms: N_20  and  C_22 
REMARK       I    between atoms: N_21  and  C_22 
ROOT
HETATM    1  C           1     -21.536  -5.918  -6.095  0.00  0.00     0.185 C 
ENDROOT
BRANCH   1   2
HETATM    2  N           1     -21.557  -5.821  -4.649  0.00  0.00    -0.345 N 
HETATM    3  C           1     -21.331  -6.934  -3.885  0.00  0.00     0.249 C 
HETATM    4  O           1     -21.114  -7.997  -4.416  0.00  0.00    -0.271 OA
HETATM    5  H           1     -21.739  -4.930  -4.204  0.00  0.00     0.163 HD
BRANCH   3   6
HETATM    6  C           1     -21.353  -6.834  -2.380  0.00  0.00     0.274 C 
BRANCH   6   7
HETATM    7  N           1     -22.346  -5.789  -1.963  0.00  0.00    -0.067 N 
HETATM    8  H           1     -22.745  -5.328  -2.812  0.00  0.00     0.275 HD
HETATM    9  H           1     -23.116  -6.238  -1.417  0.00  0.00     0.275 HD
HETATM   10  H           1     -21.869  -5.073  -1.369  0.00  0.00     0.275 HD
ENDBRANCH   6   7
BRANCH   6  11
HETATM   11  C           1     -21.752  -8.178  -1.786  0.00  0.00     0.045 C 
BRANCH  11  12
HETATM   12 Se           1     -22.351  -7.926   0.051  0.00  0.00     0.000 Se
HETATM   13  H           1     -22.172  -6.465   0.032  0.00  0.00     0.000 HD
ENDBRANCH  11  12
ENDBRANCH   6  11
ENDBRANCH   3   6
ENDBRANCH   1   2
BRANCH   1  14
HETATM   14  C           1     -20.142  -5.630  -6.598  0.00  0.00     0.196 C 
HETATM   15  O           1     -19.689  -6.260  -7.579  0.00  0.00    -0.646 OA
HETATM   16  O           1     -19.441  -4.762  -6.035  0.00  0.00    -0.646 OA
ENDBRANCH   1  14
BRANCH   1  17
HETATM   17  C           1     -22.509  -4.906  -6.686  0.00  0.00     0.038 C 
BRANCH  17  18
HETATM   18  C           1     -21.737  -3.854  -7.470  0.00  0.00     0.023 C 
BRANCH  18  19
HETATM   19  C           1     -22.305  -3.752  -8.880  0.00  0.00     0.138 C 
BRANCH  19  20
HETATM   20  N           1     -23.744  -3.460  -8.810  0.00  0.00    -0.227 N 
HETATM   21  H           1     -24.141  -2.976  -7.968  0.00  0.00     0.177 HD
HETATM   22  C           1     -24.505  -3.793  -9.765  0.00  0.00     0.665 C 
HETATM   23  N           1     -24.027  -4.377 -10.782  0.00  0.00    -0.235 N 
HETATM   24  N           1     -25.778  -3.535  -9.703  0.00  0.00    -0.235 N 
HETATM   25  H           1     -24.658  -4.653 -11.574  0.00  0.00     0.174 HD
HETATM   26  H           1     -22.999  -4.586 -10.832  0.00  0.00     0.174 HD
HETATM   27  H           1     -26.405  -3.810 -10.492  0.00  0.00     0.174 HD
HETATM   28  H           1     -26.172  -3.052  -8.864  0.00  0.00     0.174 HD
ENDBRANCH  19  20
ENDBRANCH  18  19
ENDBRANCH  17  18
ENDBRANCH   1  17
TORSDOF 10
ENDMDL
MODEL 5
REMARK VINA RESULT:      -5.5     12.649     14.128
REMARK  10 active torsions:
REMARK  status: ('A' for Active; 'I' for Inactive)
REMARK    1  A    between atoms: N_7  and  C_10 
REMARK    2  A    between atoms: Se_8  and  C_9 
REMARK    3  A    between atoms: C_9  and  C_10 
REMARK    4  A    between atoms: C_10  and  C_11 
REMARK       I    between atoms: C_11  and  N_12 
REMARK    5  A    between atoms: N_12  and  C_16 
REMARK    6  A    between atoms: C_15  and  C_16 
REMARK    7  A    between atoms: C_16  and  C_17 
REMARK    8  A    between atoms: C_17  and  C_18 
REMARK    9  A    between atoms: C_18  and  C_19 
REMARK   10  A    between atoms: C_19  and  N_20 
REMARK       I    between atoms: N_20  and  C_22 
REMARK       I    between atoms: N_21  and  C_22 
ROOT
HETATM    1  C           1     -21.246  -5.083  -7.469  0.00  0.00     0.185 C 
ENDROOT
BRANCH   1   2
HETATM    2  N           1     -21.170  -5.323  -6.041  0.00  0.00    -0.345 N 
HETATM    3  C           1     -21.188  -6.606  -5.562  0.00  0.00     0.249 C 
HETATM    4  O           1     -21.268  -7.536  -6.327  0.00  0.00    -0.271 OA
HETATM    5  H           1     -21.103  -4.544  -5.399  0.00  0.00     0.163 HD
BRANCH   3   6
HETATM    6  C           1     -21.109  -6.857  -4.075  0.00  0.00     0.274 C 
BRANCH   6   7
HETATM    7  N           1     -22.227  -6.134  -3.386  0.00  0.00    -0.067 N 
HETATM    8  H           1     -22.506  -5.300  -3.951  0.00  0.00     0.275 HD
HETATM    9  H           1     -23.047  -6.775  -3.285  0.00  0.00     0.275 HD
HETATM   10  H           1     -21.910  -5.823  -2.439  0.00  0.00     0.275 HD
ENDBRANCH   6   7
BRANCH   6  11
HETATM   11  C           1     -21.226  -8.351  -3.805  0.00  0.00     0.045 C 
BRANCH  11  12
HETATM   12 Se           1     -19.447  -9.111  -3.573  0.00  0.00     0.000 Se
HETATM   13  H           1     -19.278  -9.447  -4.996  0.00  0.00     0.000 HD
ENDBRANCH  11  12
ENDBRANCH   6  11
ENDBRANCH   3   6
ENDBRANCH   1   2
BRANCH   1  14
HETATM   14  C           1     -19.868  -4.775  -8.001  0.00  0.00     0.196 C 
HETATM   15  O           1     -19.682  -4.679  -9.234  0.00  0.00    -0.646 OA
HETATM   16  O           1     -18.913  -4.617  -7.211  0.00  0.00    -0.646 OA
ENDBRANCH   1  14
BRANCH   1  17
HETATM   17  C           1     -22.170  -3.902  -7.735  0.00  0.00     0.038 C 
BRANCH  17  18
HETATM   18  C           1     -23.439  -4.392  -8.419  0.00  0.00     0.023 C 
BRANCH  18  19
HETATM   19  C           1     -23.626  -3.650  -9.736  0.00  0.00     0.138 C 
BRANCH  19  20
HETATM   20  N           1     -22.315  -3.414 -10.357  0.00  0.00    -0.227 N 
HETATM   21  H           1     -21.632  -2.757  -9.907  0.00  0.00     0.177 HD
HETATM   22  C           1     -22.010  -4.003 -11.435  0.00  0.00     0.665 C 
HETATM   23  N           1     -22.834  -4.797 -11.979  0.00  0.00    -0.235 N 
HETATM   24  N           1     -20.850  -3.795 -11.984  0.00  0.00    -0.235 N 
HETATM   25  H           1     -22.581  -5.286 -12.872  0.00  0.00     0.174 HD
HETATM   26  H           1     -23.771  -4.965 -11.535  0.00  0.00     0.174 HD
HETATM   27  H           1     -20.599  -4.281 -12.874  0.00  0.00     0.174 HD
HETATM   28  H           1     -20.170  -3.140 -11.536  0.00  0.00     0.174 HD
ENDBRANCH  19  20
ENDBRANCH  18  19
ENDBRANCH  17  18
ENDBRANCH   1  17
TORSDOF 10
ENDMDL
MODEL 6
REMARK VINA RESULT:      -5.4     13.895     14.988
REMARK  10 active torsions:
REMARK  status: ('A' for Active; 'I' for Inactive)
REMARK    1  A    between atoms: N_7  and  C_10 
REMARK    2  A    between atoms: Se_8  and  C_9 
REMARK    3  A    between atoms: C_9  and  C_10 
REMARK    4  A    between atoms: C_10  and  C_11 
REMARK       I    between atoms: C_11  and  N_12 
REMARK    5  A    between atoms: N_12  and  C_16 
REMARK    6  A    between atoms: C_15  and  C_16 
REMARK    7  A    between atoms: C_16  and  C_17 
REMARK    8  A    between atoms: C_17  and  C_18 
REMARK    9  A    between atoms: C_18  and  C_19 
REMARK   10  A    between atoms: C_19  and  N_20 
REMARK       I    between atoms: N_20  and  C_22 
REMARK       I    between atoms: N_21  and  C_22 
ROOT
HETATM    1  C           1     -20.779  -6.856  -5.383  0.00  0.00     0.185 C 
ENDROOT
BRANCH   1   2
HETATM    2  N           1     -20.993  -8.271  -5.615  0.00  0.00    -0.345 N 
HETATM    3  C           1     -20.427  -9.194  -4.778  0.00  0.00     0.249 C 
HETATM    4  O           1     -19.749  -8.831  -3.847  0.00  0.00    -0.271 OA
HETATM    5  H           1     -21.561  -8.576  -6.395  0.00  0.00     0.163 HD
BRANCH   3   6
HETATM    6  C           1     -20.649 -10.668  -5.019  0.00  0.00     0.274 C 
BRANCH   6   7
HETATM    7  N           1     -21.083 -10.882  -6.439  0.00  0.00    -0.067 N 
HETATM    8  H           1     -21.883 -11.555  -6.461  0.00  0.00     0.275 HD
HETATM    9  H           1     -21.383  -9.971  -6.853  0.00  0.00     0.275 HD
HETATM   10  H           1     -20.285 -11.271  -6.992  0.00  0.00     0.275 HD
ENDBRANCH   6   7
BRANCH   6  11
HETATM   11  C           1     -19.353 -11.426  -4.765  0.00  0.00     0.045 C 
BRANCH  11  12
HETATM   12 Se           1     -18.097 -11.070  -6.211  0.00  0.00     0.000 Se
HETATM   13  H           1     -19.142 -10.744  -7.195  0.00  0.00     0.000 HD
ENDBRANCH  11  12
ENDBRANCH   6  11
ENDBRANCH   3   6
ENDBRANCH   1   2
BRANCH   1  14
HETATM   14  C           1     -21.981  -6.274  -4.679  0.00  0.00     0.196 C 
HETATM   15  O           1     -21.942  -6.065  -3.447  0.00  0.00    -0.646 OA
HETATM   16  O           1     -23.014  -6.003  -5.327  0.00  0.00    -0.646 OA
ENDBRANCH   1  14
BRANCH   1  17
HETATM   17  C           1     -20.579  -6.148  -6.717  0.00  0.00     0.038 C 
BRANCH  17  18
HETATM   18  C           1     -20.038  -4.746  -6.474  0.00  0.00     0.023 C 
BRANCH  18  19
HETATM   19  C           1     -20.652  -3.782  -7.481  0.00  0.00     0.138 C 
BRANCH  19  20
HETATM   20  N           1     -22.117  -3.832  -7.380  0.00  0.00    -0.227 N 
HETATM   21  H           1     -22.580  -3.796  -6.438  0.00  0.00     0.177 HD
HETATM   22  C           1     -22.822  -3.920  -8.428  0.00  0.00     0.665 C 
HETATM   23  N           1     -22.264  -3.963  -9.564  0.00  0.00    -0.235 N 
HETATM   24  N           1     -24.118  -3.964  -8.338  0.00  0.00    -0.235 N 
HETATM   25  H           1     -22.848  -4.035 -10.433  0.00  0.00     0.174 HD
HETATM   26  H           1     -21.217  -3.927  -9.636  0.00  0.00     0.174 HD
HETATM   27  H           1     -24.699  -4.036  -9.203  0.00  0.00     0.174 HD
HETATM   28  H           1     -24.578  -3.929  -7.400  0.00  0.00     0.174 HD
ENDBRANCH  19  20
ENDBRANCH  18  19
ENDBRANCH  17  18
ENDBRANCH   1  17
TORSDOF 10
ENDMDL
MODEL 7
REMARK VINA RESULT:      -5.2     15.177     16.189
REMARK  10 active torsions:
REMARK  status: ('A' for Active; 'I' for Inactive)
REMARK    1  A    between atoms: N_7  and  C_10 
REMARK    2  A    between atoms: Se_8  and  C_9 
REMARK    3  A    between atoms: C_9  and  C_10 
REMARK    4  A    between atoms: C_10  and  C_11 
REMARK       I    between atoms: C_11  and  N_12 
REMARK    5  A    between atoms: N_12  and  C_16 
REMARK    6  A    between atoms: C_15  and  C_16 
REMARK    7  A    between atoms: C_16  and  C_17 
REMARK    8  A    between atoms: C_17  and  C_18 
REMARK    9  A    between atoms: C_18  and  C_19 
REMARK   10  A    between atoms: C_19  and  N_20 
REMARK       I    between atoms: N_20  and  C_22 
REMARK       I    between atoms: N_21  and  C_22 
ROOT
HETATM    1  C           1     -20.722  -6.897  -5.200  0.00  0.00     0.185 C 
ENDROOT
BRANCH   1   2
HETATM    2  N           1     -21.156  -6.502  -6.526  0.00  0.00    -0.345 N 
HETATM    3  C           1     -21.006  -5.205  -6.936  0.00  0.00     0.249 C 
HETATM    4  O           1     -20.512  -4.389  -6.195  0.00  0.00    -0.271 OA
HETATM    5  H           1     -21.570  -7.185  -7.147  0.00  0.00     0.163 HD
BRANCH   3   6
HETATM    6  C           1     -21.458  -4.793  -8.316  0.00  0.00     0.274 C 
BRANCH   6   7
HETATM    7  N           1     -22.388  -3.622  -8.209  0.00  0.00    -0.067 N 
HETATM    8  H           1     -21.838  -2.755  -8.015  0.00  0.00     0.275 HD
HETATM    9  H           1     -22.911  -3.508  -9.106  0.00  0.00     0.275 HD
HETATM   10  H           1     -23.066  -3.786  -7.429  0.00  0.00     0.275 HD
ENDBRANCH   6   7
BRANCH   6  11
HETATM   11  C           1     -20.246  -4.404  -9.153  0.00  0.00     0.045 C 
BRANCH  11  12
HETATM   12 Se           1     -20.811  -4.035 -10.981  0.00  0.00     0.000 Se
HETATM   13  H           1     -19.575  -4.550 -11.591  0.00  0.00     0.000 HD
ENDBRANCH  11  12
ENDBRANCH   6  11
ENDBRANCH   3   6
ENDBRANCH   1   2
BRANCH   1  14
HETATM   14  C           1     -20.253  -8.331  -5.231  0.00  0.00     0.196 C 
HETATM   15  O           1     -20.940  -9.201  -5.811  0.00  0.00    -0.646 OA
HETATM   16  O           1     -19.179  -8.650  -4.678  0.00  0.00    -0.646 OA
ENDBRANCH   1  14
BRANCH   1  17
HETATM   17  C           1     -21.885  -6.763  -4.225  0.00  0.00     0.038 C 
BRANCH  17  18
HETATM   18  C           1     -21.393  -6.129  -2.931  0.00  0.00     0.023 C 
BRANCH  18  19
HETATM   19  C           1     -21.236  -7.206  -1.865  0.00  0.00     0.138 C 
BRANCH  19  20
HETATM   20  N           1     -22.451  -7.262  -1.039  0.00  0.00    -0.227 N 
HETATM   21  H           1     -23.329  -6.788  -1.365  0.00  0.00     0.177 HD
HETATM   22  C           1     -22.438  -7.882   0.064  0.00  0.00     0.665 C 
HETATM   23  N           1     -21.379  -8.454   0.457  0.00  0.00    -0.235 N 
HETATM   24  N           1     -23.513  -7.931   0.794  0.00  0.00    -0.235 N 
HETATM   25  H           1     -21.369  -8.969   1.372  0.00  0.00     0.174 HD
HETATM   26  H           1     -20.511  -8.415  -0.132  0.00  0.00     0.174 HD
HETATM   27  H           1     -23.502  -8.443   1.705  0.00  0.00     0.174 HD
HETATM   28  H           1     -24.387  -7.459   0.470  0.00  0.00     0.174 HD
ENDBRANCH  19  20
ENDBRANCH  18  19
ENDBRANCH  17  18
ENDBRANCH   1  17
TORSDOF 10
ENDMDL
MODEL 8
REMARK VINA RESULT:      -5.0     13.397     14.847
REMARK  10 active torsions:
REMARK  status: ('A' for Active; 'I' for Inactive)
REMARK    1  A    between atoms: N_7  and  C_10 
REMARK    2  A    between atoms: Se_8  and  C_9 
REMARK    3  A    between atoms: C_9  and  C_10 
REMARK    4  A    between atoms: C_10  and  C_11 
REMARK       I    between atoms: C_11  and  N_12 
REMARK    5  A    between atoms: N_12  and  C_16 
REMARK    6  A    between atoms: C_15  and  C_16 
REMARK    7  A    between atoms: C_16  and  C_17 
REMARK    8  A    between atoms: C_17  and  C_18 
REMARK    9  A    between atoms: C_18  and  C_19 
REMARK   10  A    between atoms: C_19  and  N_20 
REMARK       I    between atoms: N_20  and  C_22 
REMARK       I    between atoms: N_21  and  C_22 
ROOT
HETATM    1  C           1     -21.570  -5.322  -6.489  0.00  0.00     0.185 C 
ENDROOT
BRANCH   1   2
HETATM    2  N           1     -21.719  -6.538  -5.714  0.00  0.00    -0.345 N 
HETATM    3  C           1     -21.348  -6.559  -4.396  0.00  0.00     0.249 C 
HETATM    4  O           1     -20.897  -5.566  -3.879  0.00  0.00    -0.271 OA
HETATM    5  H           1     -22.097  -7.371  -6.147  0.00  0.00     0.163 HD
BRANCH   3   6
HETATM    6  C           1     -21.503  -7.825  -3.589  0.00  0.00     0.274 C 
BRANCH   6   7
HETATM    7  N           1     -20.819  -8.956  -4.297  0.00  0.00    -0.067 N 
HETATM    8  H           1     -19.879  -9.118  -3.869  0.00  0.00     0.275 HD
HETATM    9  H           1     -21.395  -9.824  -4.207  0.00  0.00     0.275 HD
HETATM   10  H           1     -20.705  -8.717  -5.308  0.00  0.00     0.275 HD
ENDBRANCH   6   7
BRANCH   6  11
HETATM   11  C           1     -20.877  -7.632  -2.215  0.00  0.00     0.045 C 
BRANCH  11  12
HETATM   12 Se           1     -22.249  -7.076  -0.947  0.00  0.00     0.000 Se
HETATM   13  H           1     -21.561  -7.643   0.224  0.00  0.00     0.000 HD
ENDBRANCH  11  12
ENDBRANCH   6  11
ENDBRANCH   3   6
ENDBRANCH   1   2
BRANCH   1  14
HETATM   14  C           1     -22.930  -4.830  -6.920  0.00  0.00     0.196 C 
HETATM   15  O           1     -23.918  -4.992  -6.173  0.00  0.00    -0.646 OA
HETATM   16  O           1     -23.067  -4.262  -8.025  0.00  0.00    -0.646 OA
ENDBRANCH   1  14
BRANCH   1  17
HETATM   17  C           1     -20.717  -5.606  -7.718  0.00  0.00     0.038 C 
BRANCH  17  18
HETATM   18  C           1     -19.625  -4.551  -7.835  0.00  0.00     0.023 C 
BRANCH  18  19
HETATM   19  C           1     -19.748  -3.838  -9.176  0.00  0.00     0.138 C 
BRANCH  19  20
HETATM   20  N           1     -20.778  -4.499  -9.991  0.00  0.00    -0.227 N 
HETATM   21  H           1     -21.263  -5.357  -9.629  0.00  0.00     0.177 HD
HETATM   22  C           1     -21.079  -4.035 -11.130  0.00  0.00     0.665 C 
HETATM   23  N           1     -20.493  -3.000 -11.567  0.00  0.00    -0.235 N 
HETATM   24  N           1     -21.989  -4.620 -11.850  0.00  0.00    -0.235 N 
HETATM   25  H           1     -20.743  -2.615 -12.511  0.00  0.00     0.174 HD
HETATM   26  H           1     -19.758  -2.528 -10.984  0.00  0.00     0.174 HD
HETATM   27  H           1     -22.237  -4.236 -12.790  0.00  0.00     0.174 HD
HETATM   28  H           1     -22.472  -5.473 -11.490  0.00  0.00     0.174 HD
ENDBRANCH  19  20
ENDBRANCH  18  19
ENDBRANCH  17  18
ENDBRANCH   1  17
TORSDOF 10
ENDMDL
MODEL 9
REMARK VINA RESULT:      -4.6     16.063     17.262
REMARK  10 active torsions:
REMARK  status: ('A' for Active; 'I' for Inactive)
REMARK    1  A    between atoms: N_7  and  C_10 
REMARK    2  A    between atoms: Se_8  and  C_9 
REMARK    3  A    between atoms: C_9  and  C_10 
REMARK    4  A    between atoms: C_10  and  C_11 
REMARK       I    between atoms: C_11  and  N_12 
REMARK    5  A    between atoms: N_12  and  C_16 
REMARK    6  A    between atoms: C_15  and  C_16 
REMARK    7  A    between atoms: C_16  and  C_17 
REMARK    8  A    between atoms: C_17  and  C_18 
REMARK    9  A    between atoms: C_18  and  C_19 
REMARK   10  A    between atoms: C_19  and  N_20 
REMARK       I    between atoms: N_20  and  C_22 
REMARK       I    between atoms: N_21  and  C_22 
ROOT
HETATM    1  C           1     -21.638  -7.802  -3.474  0.00  0.00     0.185 C 
ENDROOT
BRANCH   1   2
HETATM    2  N           1     -21.021  -6.968  -4.487  0.00  0.00    -0.345 N 
HETATM    3  C           1     -21.799  -6.176  -5.288  0.00  0.00     0.249 C 
HETATM    4  O           1     -23.000  -6.172  -5.152  0.00  0.00    -0.271 OA
HETATM    5  H           1     -20.016  -6.971  -4.601  0.00  0.00     0.163 HD
BRANCH   3   6
HETATM    6  C           1     -21.158  -5.308  -6.342  0.00  0.00     0.274 C 
BRANCH   6   7
HETATM    7  N           1     -20.355  -6.165  -7.275  0.00  0.00    -0.067 N 
HETATM    8  H           1     -19.656  -6.717  -6.728  0.00  0.00     0.275 HD
HETATM    9  H           1     -20.992  -6.818  -7.785  0.00  0.00     0.275 HD
HETATM   10  H           1     -19.856  -5.557  -7.964  0.00  0.00     0.275 HD
ENDBRANCH   6   7
BRANCH   6  11
HETATM   11  C           1     -22.239  -4.578  -7.127  0.00  0.00     0.045 C 
BRANCH  11  12
HETATM   12 Se           1     -21.645  -4.317  -8.965  0.00  0.00     0.000 Se
HETATM   13  H           1     -21.583  -5.755  -9.272  0.00  0.00     0.000 HD
ENDBRANCH  11  12
ENDBRANCH   6  11
ENDBRANCH   3   6
ENDBRANCH   1   2
BRANCH   1  14
HETATM   14  C           1     -21.502  -7.140  -2.125  0.00  0.00     0.196 C 
HETATM   15  O           1     -20.782  -7.659  -1.245  0.00  0.00    -0.646 OA
HETATM   16  O           1     -22.108  -6.073  -1.889  0.00  0.00    -0.646 OA
ENDBRANCH   1  14
BRANCH   1  17
HETATM   17  C           1     -20.949  -9.160  -3.447  0.00  0.00     0.038 C 
BRANCH  17  18
HETATM   18  C           1     -21.957 -10.250  -3.785  0.00  0.00     0.023 C 
BRANCH  18  19
HETATM   19  C           1     -22.633 -10.732  -2.507  0.00  0.00     0.138 C 
BRANCH  19  20
HETATM   20  N           1     -21.650 -10.766  -1.414  0.00  0.00    -0.227 N 
HETATM   21  H           1     -20.706 -11.199  -1.570  0.00  0.00     0.177 HD
HETATM   22  C           1     -21.941 -10.273  -0.285  0.00  0.00     0.665 C 
HETATM   23  N           1     -23.079  -9.750  -0.097  0.00  0.00    -0.235 N 
HETATM   24  N           1     -21.071 -10.303   0.681  0.00  0.00    -0.235 N 
HETATM   25  H           1     -23.320  -9.341   0.839  0.00  0.00     0.174 HD
HETATM   26  H           1     -23.781  -9.725  -0.877  0.00  0.00     0.174 HD
HETATM   27  H           1     -21.312  -9.896   1.613  0.00  0.00     0.174 HD
HETATM   28  H           1     -20.133 -10.734   0.525  0.00  0.00     0.174 HD
ENDBRANCH  19  20
ENDBRANCH  18  19
ENDBRANCH  17  18
ENDBRANCH   1  17
TORSDOF 10
ENDMDL
