MODEL 1
REMARK VINA RESULT:      -6.2      0.000      0.000
REMARK  8 active torsions:
REMARK  status: ('A' for Active; 'I' for Inactive)
REMARK    1  A    between atoms: O_3  and  P_4 
REMARK    2  A    between atoms: P_4  and  O_5 
REMARK    3  A    between atoms: O_5  and  C_6 
REMARK    4  A    between atoms: C_6  and  C_7 
REMARK    5  A    between atoms: C_7  and  C_8 
REMARK    6  A    between atoms: C_7  and  N_20 
REMARK       I    between atoms: C_8  and  N_9 
REMARK    7  A    between atoms: N_9  and  C_10 
REMARK    8  A    between atoms: C_10  and  C_12 
ROOT
HETATM    1  C           1     -28.870  -6.300 -17.148  0.00  0.00     0.298 C 
ENDROOT
BRANCH   1   2
HETATM    2  C           1     -27.973  -5.663 -16.096  0.00  0.00     0.224 C 
BRANCH   2   3
HETATM    3  O           1     -26.702  -5.430 -16.642  0.00  0.00    -0.287 OA
BRANCH   3   4
HETATM    4  P           1     -25.530  -6.429 -16.158  0.00  0.00     0.406 P 
HETATM    5  O           1     -24.789  -6.929 -17.338  0.00  0.00    -0.624 OA
HETATM    6  O           1     -26.125  -7.571 -15.428  0.00  0.00    -0.624 OA
BRANCH   4   7
HETATM    7  O           1     -24.515  -5.637 -15.182  0.00  0.00    -0.300 OA
HETATM    8  H           1     -24.295  -6.256 -14.507  0.00  0.00     0.223 HD
ENDBRANCH   4   7
ENDBRANCH   3   4
ENDBRANCH   2   3
ENDBRANCH   1   2
BRANCH   1   9
HETATM    9  C           1     -28.313  -6.019 -18.522  0.00  0.00     0.251 C 
HETATM   10  N           1     -27.389  -6.866 -19.073  0.00  0.00    -0.349 N 
HETATM   11  H           1     -27.079  -7.681 -18.559  0.00  0.00     0.163 HD
HETATM   12  O           1     -28.682  -5.046 -19.136  0.00  0.00    -0.271 OA
BRANCH  10  13
HETATM   13  C           1     -26.854  -6.595 -20.393  0.00  0.00     0.235 C 
BRANCH  13  14
HETATM   14  C           1     -26.337  -7.877 -20.999  0.00  0.00     0.191 C 
HETATM   15  O           1     -25.108  -8.097 -21.040  0.00  0.00    -0.647 OA
HETATM   16  O           1     -27.138  -8.719 -21.460  0.00  0.00    -0.647 OA
ENDBRANCH  13  14
ENDBRANCH  10  13
ENDBRANCH   1   9
BRANCH   1  17
HETATM   17  N           1     -28.925  -7.783 -16.926  0.00  0.00    -0.064 N 
HETATM   18  H           1     -27.960  -8.145 -16.756  0.00  0.00     0.275 HD
HETATM   19  H           1     -29.330  -8.246 -17.770  0.00  0.00     0.275 HD
HETATM   20  H           1     -29.526  -7.988 -16.095  0.00  0.00     0.275 HD
ENDBRANCH   1  17
TORSDOF 8
ENDMDL
MODEL 2
REMARK VINA RESULT:      -5.8      9.772     11.842
REMARK  8 active torsions:
REMARK  status: ('A' for Active; 'I' for Inactive)
REMARK    1  A    between atoms: O_3  and  P_4 
REMARK    2  A    between atoms: P_4  and  O_5 
REMARK    3  A    between atoms: O_5  and  C_6 
REMARK    4  A    between atoms: C_6  and  C_7 
REMARK    5  A    between atoms: C_7  and  C_8 
REMARK    6  A    between atoms: C_7  and  N_20 
REMARK       I    between atoms: C_8  and  N_9 
REMARK    7  A    between atoms: N_9  and  C_10 
REMARK    8  A    between atoms: C_10  and  C_12 
ROOT
HETATM    1  C           1     -36.025  -0.111 -12.399  0.00  0.00     0.298 C 
ENDROOT
BRANCH   1   2
HETATM    2  C           1     -37.241  -0.010 -13.309  0.00  0.00     0.224 C 
BRANCH   2   3
HETATM    3  O           1     -37.107  -0.915 -14.373  0.00  0.00    -0.287 OA
BRANCH   3   4
HETATM    4  P           1     -36.475  -0.318 -15.734  0.00  0.00     0.406 P 
HETATM    5  O           1     -37.226  -0.841 -16.897  0.00  0.00    -0.624 OA
HETATM    6  O           1     -35.055  -0.724 -15.838  0.00  0.00    -0.624 OA
BRANCH   4   7
HETATM    7  O           1     -36.572   1.294 -15.712  0.00  0.00    -0.300 OA
HETATM    8  H           1     -36.609   1.523 -14.798  0.00  0.00     0.223 HD
ENDBRANCH   4   7
ENDBRANCH   3   4
ENDBRANCH   2   3
ENDBRANCH   1   2
BRANCH   1   9
HETATM    9  C           1     -35.651  -1.562 -12.216  0.00  0.00     0.251 C 
HETATM   10  N           1     -34.658  -2.114 -12.978  0.00  0.00    -0.349 N 
HETATM   11  H           1     -34.173  -1.551 -13.665  0.00  0.00     0.163 HD
HETATM   12  O           1     -36.230  -2.236 -11.397  0.00  0.00    -0.271 OA
BRANCH  10  13
HETATM   13  C           1     -34.299  -3.509 -12.802  0.00  0.00     0.235 C 
BRANCH  13  14
HETATM   14  C           1     -33.082  -3.607 -11.915  0.00  0.00     0.191 C 
HETATM   15  O           1     -32.866  -2.730 -11.051  0.00  0.00    -0.647 OA
HETATM   16  O           1     -32.290  -4.566 -12.043  0.00  0.00    -0.647 OA
ENDBRANCH  13  14
ENDBRANCH  10  13
ENDBRANCH   1   9
BRANCH   1  17
HETATM   17  N           1     -34.874   0.626 -13.019  0.00  0.00    -0.064 N 
HETATM   18  H           1     -35.218   1.519 -13.438  0.00  0.00     0.275 HD
HETATM   19  H           1     -34.442   0.034 -13.763  0.00  0.00     0.275 HD
HETATM   20  H           1     -34.161   0.837 -12.285  0.00  0.00     0.275 HD
ENDBRANCH   1  17
TORSDOF 8
ENDMDL
MODEL 3
REMARK VINA RESULT:      -5.6      2.901      4.494
REMARK  8 active torsions:
REMARK  status: ('A' for Active; 'I' for Inactive)
REMARK    1  A    between atoms: O_3  and  P_4 
REMARK    2  A    between atoms: P_4  and  O_5 
REMARK    3  A    between atoms: O_5  and  C_6 
REMARK    4  A    between atoms: C_6  and  C_7 
REMARK    5  A    between atoms: C_7  and  C_8 
REMARK    6  A    between atoms: C_7  and  N_20 
REMARK       I    between atoms: C_8  and  N_9 
REMARK    7  A    between atoms: N_9  and  C_10 
REMARK    8  A    between atoms: C_10  and  C_12 
ROOT
HETATM    1  C           1     -29.848  -4.312 -16.909  0.00  0.00     0.298 C 
ENDROOT
BRANCH   1   2
HETATM    2  C           1     -30.504  -5.684 -16.841  0.00  0.00     0.224 C 
BRANCH   2   3
HETATM    3  O           1     -30.558  -6.242 -18.127  0.00  0.00    -0.287 OA
BRANCH   3   4
HETATM    4  P           1     -29.786  -7.646 -18.323  0.00  0.00     0.406 P 
HETATM    5  O           1     -30.612  -8.553 -19.151  0.00  0.00    -0.624 OA
HETATM    6  O           1     -29.548  -8.266 -16.999  0.00  0.00    -0.624 OA
BRANCH   4   7
HETATM    7  O           1     -28.371  -7.387 -19.057  0.00  0.00    -0.300 OA
HETATM    8  H           1     -28.533  -7.568 -19.967  0.00  0.00     0.223 HD
ENDBRANCH   4   7
ENDBRANCH   3   4
ENDBRANCH   2   3
ENDBRANCH   1   2
BRANCH   1   9
HETATM    9  C           1     -28.355  -4.459 -16.743  0.00  0.00     0.251 C 
HETATM   10  N           1     -27.770  -5.690 -16.866  0.00  0.00    -0.349 N 
HETATM   11  H           1     -28.338  -6.503 -17.069  0.00  0.00     0.163 HD
HETATM   12  O           1     -27.676  -3.489 -16.501  0.00  0.00    -0.271 OA
BRANCH  10  13
HETATM   13  C           1     -26.335  -5.830 -16.706  0.00  0.00     0.235 C 
BRANCH  13  14
HETATM   14  C           1     -26.041  -7.022 -15.828  0.00  0.00     0.191 C 
HETATM   15  O           1     -26.945  -7.515 -15.120  0.00  0.00    -0.647 OA
HETATM   16  O           1     -24.893  -7.516 -15.809  0.00  0.00    -0.647 OA
ENDBRANCH  13  14
ENDBRANCH  10  13
ENDBRANCH   1   9
BRANCH   1  17
HETATM   17  N           1     -30.143  -3.682 -18.239  0.00  0.00    -0.064 N 
HETATM   18  H           1     -31.170  -3.726 -18.425  0.00  0.00     0.275 HD
HETATM   19  H           1     -29.628  -4.196 -18.989  0.00  0.00     0.275 HD
HETATM   20  H           1     -29.833  -2.684 -18.227  0.00  0.00     0.275 HD
ENDBRANCH   1  17
TORSDOF 8
ENDMDL
MODEL 4
REMARK VINA RESULT:      -5.5      2.317      3.518
REMARK  8 active torsions:
REMARK  status: ('A' for Active; 'I' for Inactive)
REMARK    1  A    between atoms: O_3  and  P_4 
REMARK    2  A    between atoms: P_4  and  O_5 
REMARK    3  A    between atoms: O_5  and  C_6 
REMARK    4  A    between atoms: C_6  and  C_7 
REMARK    5  A    between atoms: C_7  and  C_8 
REMARK    6  A    between atoms: C_7  and  N_20 
REMARK       I    between atoms: C_8  and  N_9 
REMARK    7  A    between atoms: N_9  and  C_10 
REMARK    8  A    between atoms: C_10  and  C_12 
ROOT
HETATM    1  C           1     -25.881  -6.900 -16.409  0.00  0.00     0.298 C 
ENDROOT
BRANCH   1   2
HETATM    2  C           1     -27.096  -5.984 -16.437  0.00  0.00     0.224 C 
BRANCH   2   3
HETATM    3  O           1     -28.262  -6.756 -16.551  0.00  0.00    -0.287 OA
BRANCH   3   4
HETATM    4  P           1     -29.129  -6.534 -17.895  0.00  0.00     0.406 P 
HETATM    5  O           1     -28.656  -5.318 -18.593  0.00  0.00    -0.624 OA
HETATM    6  O           1     -30.557  -6.376 -17.539  0.00  0.00    -0.624 OA
BRANCH   4   7
HETATM    7  O           1     -28.956  -7.813 -18.865  0.00  0.00    -0.300 OA
HETATM    8  H           1     -28.370  -7.525 -19.545  0.00  0.00     0.223 HD
ENDBRANCH   4   7
ENDBRANCH   3   4
ENDBRANCH   2   3
ENDBRANCH   1   2
BRANCH   1   9
HETATM    9  C           1     -25.184  -6.855 -17.747  0.00  0.00     0.251 C 
HETATM   10  N           1     -25.919  -6.792 -18.900  0.00  0.00    -0.349 N 
HETATM   11  H           1     -26.930  -6.775 -18.856  0.00  0.00     0.163 HD
HETATM   12  O           1     -23.977  -6.875 -17.801  0.00  0.00    -0.271 OA
BRANCH  10  13
HETATM   13  C           1     -25.249  -6.748 -20.186  0.00  0.00     0.235 C 
BRANCH  13  14
HETATM   14  C           1     -25.776  -7.856 -21.066  0.00  0.00     0.191 C 
HETATM   15  O           1     -26.981  -8.182 -21.005  0.00  0.00    -0.647 OA
HETATM   16  O           1     -25.007  -8.446 -21.855  0.00  0.00    -0.647 OA
ENDBRANCH  13  14
ENDBRANCH  10  13
ENDBRANCH   1   9
BRANCH   1  17
HETATM   17  N           1     -24.934  -6.443 -15.338  0.00  0.00    -0.064 N 
HETATM   18  H           1     -25.111  -6.987 -14.464  0.00  0.00     0.275 HD
HETATM   19  H           1     -25.082  -5.426 -15.154  0.00  0.00     0.275 HD
HETATM   20  H           1     -23.950  -6.601 -15.654  0.00  0.00     0.275 HD
ENDBRANCH   1  17
TORSDOF 8
ENDMDL
MODEL 5
REMARK VINA RESULT:      -5.5     10.514     11.750
REMARK  8 active torsions:
REMARK  status: ('A' for Active; 'I' for Inactive)
REMARK    1  A    between atoms: O_3  and  P_4 
REMARK    2  A    between atoms: P_4  and  O_5 
REMARK    3  A    between atoms: O_5  and  C_6 
REMARK    4  A    between atoms: C_6  and  C_7 
REMARK    5  A    between atoms: C_7  and  C_8 
REMARK    6  A    between atoms: C_7  and  N_20 
REMARK       I    between atoms: C_8  and  N_9 
REMARK    7  A    between atoms: N_9  and  C_10 
REMARK    8  A    between atoms: C_10  and  C_12 
ROOT
HETATM    1  C           1     -35.944  -0.339 -11.329  0.00  0.00     0.298 C 
ENDROOT
BRANCH   1   2
HETATM    2  C           1     -35.794  -1.792 -10.901  0.00  0.00     0.224 C 
BRANCH   2   3
HETATM    3  O           1     -34.499  -2.239 -11.205  0.00  0.00    -0.287 OA
BRANCH   3   4
HETATM    4  P           1     -34.394  -3.386 -12.336  0.00  0.00     0.406 P 
HETATM    5  O           1     -35.451  -4.397 -12.113  0.00  0.00    -0.624 OA
HETATM    6  O           1     -33.065  -4.035 -12.258  0.00  0.00    -0.624 OA
BRANCH   4   7
HETATM    7  O           1     -34.583  -2.723 -13.796  0.00  0.00    -0.300 OA
HETATM    8  H           1     -34.057  -3.250 -14.373  0.00  0.00     0.223 HD
ENDBRANCH   4   7
ENDBRANCH   3   4
ENDBRANCH   2   3
ENDBRANCH   1   2
BRANCH   1   9
HETATM    9  C           1     -36.784  -0.267 -12.580  0.00  0.00     0.251 C 
HETATM   10  N           1     -36.189  -0.049 -13.793  0.00  0.00    -0.349 N 
HETATM   11  H           1     -35.185   0.063 -13.851  0.00  0.00     0.163 HD
HETATM   12  O           1     -37.983  -0.401 -12.511  0.00  0.00    -0.271 OA
BRANCH  10  13
HETATM   13  C           1     -36.997   0.021 -14.995  0.00  0.00     0.235 C 
BRANCH  13  14
HETATM   14  C           1     -36.246  -0.608 -16.144  0.00  0.00     0.191 C 
HETATM   15  O           1     -35.057  -0.962 -15.993  0.00  0.00    -0.647 OA
HETATM   16  O           1     -36.813  -0.775 -17.245  0.00  0.00    -0.647 OA
ENDBRANCH  13  14
ENDBRANCH  10  13
ENDBRANCH   1   9
BRANCH   1  17
HETATM   17  N           1     -36.612   0.439 -10.233  0.00  0.00    -0.064 N 
HETATM   18  H           1     -36.640  -0.140  -9.363  0.00  0.00     0.275 HD
HETATM   19  H           1     -37.585   0.682 -10.523  0.00  0.00     0.275 HD
HETATM   20  H           1     -36.073   1.316 -10.051  0.00  0.00     0.275 HD
ENDBRANCH   1  17
TORSDOF 8
ENDMDL
MODEL 6
REMARK VINA RESULT:      -5.4     10.652     13.246
REMARK  8 active torsions:
REMARK  status: ('A' for Active; 'I' for Inactive)
REMARK    1  A    between atoms: O_3  and  P_4 
REMARK    2  A    between atoms: P_4  and  O_5 
REMARK    3  A    between atoms: O_5  and  C_6 
REMARK    4  A    between atoms: C_6  and  C_7 
REMARK    5  A    between atoms: C_7  and  C_8 
REMARK    6  A    between atoms: C_7  and  N_20 
REMARK       I    between atoms: C_8  and  N_9 
REMARK    7  A    between atoms: N_9  and  C_10 
REMARK    8  A    between atoms: C_10  and  C_12 
ROOT
HETATM    1  C           1     -20.759  -4.194  -7.476  0.00  0.00     0.298 C 
ENDROOT
BRANCH   1   2
HETATM    2  C           1     -21.575  -4.049  -8.752  0.00  0.00     0.224 C 
BRANCH   2   3
HETATM    3  O           1     -22.942  -4.123  -8.446  0.00  0.00    -0.287 OA
BRANCH   3   4
HETATM    4  P           1     -23.957  -3.801  -9.659  0.00  0.00     0.406 P 
HETATM    5  O           1     -24.633  -5.048 -10.080  0.00  0.00    -0.624 OA
HETATM    6  O           1     -23.199  -3.240 -10.801  0.00  0.00    -0.624 OA
BRANCH   4   7
HETATM    7  O           1     -25.061  -2.730  -9.169  0.00  0.00    -0.300 OA
HETATM    8  H           1     -24.594  -2.142  -8.600  0.00  0.00     0.223 HD
ENDBRANCH   4   7
ENDBRANCH   3   4
ENDBRANCH   2   3
ENDBRANCH   1   2
BRANCH   1   9
HETATM    9  C           1     -21.166  -5.458  -6.758  0.00  0.00     0.251 C 
HETATM   10  N           1     -22.049  -5.399  -5.715  0.00  0.00    -0.349 N 
HETATM   11  H           1     -22.430  -4.507  -5.423  0.00  0.00     0.163 HD
HETATM   12  O           1     -20.712  -6.523  -7.105  0.00  0.00    -0.271 OA
BRANCH  10  13
HETATM   13  C           1     -22.440  -6.614  -5.025  0.00  0.00     0.235 C 
BRANCH  13  14
HETATM   14  C           1     -21.799  -6.646  -3.659  0.00  0.00     0.191 C 
HETATM   15  O           1     -20.765  -7.322  -3.470  0.00  0.00    -0.647 OA
HETATM   16  O           1     -22.302  -5.996  -2.717  0.00  0.00    -0.647 OA
ENDBRANCH  13  14
ENDBRANCH  10  13
ENDBRANCH   1   9
BRANCH   1  17
HETATM   17  N           1     -19.300  -4.263  -7.820  0.00  0.00    -0.064 N 
HETATM   18  H           1     -18.826  -3.388  -7.501  0.00  0.00     0.275 HD
HETATM   19  H           1     -19.190  -4.364  -8.853  0.00  0.00     0.275 HD
HETATM   20  H           1     -18.869  -5.087  -7.342  0.00  0.00     0.275 HD
ENDBRANCH   1  17
TORSDOF 8
ENDMDL
MODEL 7
REMARK VINA RESULT:      -5.3     10.380     13.113
REMARK  8 active torsions:
REMARK  status: ('A' for Active; 'I' for Inactive)
REMARK    1  A    between atoms: O_3  and  P_4 
REMARK    2  A    between atoms: P_4  and  O_5 
REMARK    3  A    between atoms: O_5  and  C_6 
REMARK    4  A    between atoms: C_6  and  C_7 
REMARK    5  A    between atoms: C_7  and  C_8 
REMARK    6  A    between atoms: C_7  and  N_20 
REMARK       I    between atoms: C_8  and  N_9 
REMARK    7  A    between atoms: N_9  and  C_10 
REMARK    8  A    between atoms: C_10  and  C_12 
ROOT
HETATM    1  C           1     -22.274  -4.505  -7.472  0.00  0.00     0.298 C 
ENDROOT
BRANCH   1   2
HETATM    2  C           1     -22.123  -4.778  -8.962  0.00  0.00     0.224 C 
BRANCH   2   3
HETATM    3  O           1     -23.391  -4.847  -9.556  0.00  0.00    -0.287 OA
BRANCH   3   4
HETATM    4  P           1     -23.591  -3.977 -10.902  0.00  0.00     0.406 P 
HETATM    5  O           1     -22.503  -2.979 -11.010  0.00  0.00    -0.624 OA
HETATM    6  O           1     -24.897  -3.282 -10.850  0.00  0.00    -0.624 OA
BRANCH   4   7
HETATM    7  O           1     -23.553  -4.955 -12.187  0.00  0.00    -0.300 OA
HETATM    8  H           1     -24.398  -4.857 -12.592  0.00  0.00     0.223 HD
ENDBRANCH   4   7
ENDBRANCH   3   4
ENDBRANCH   2   3
ENDBRANCH   1   2
BRANCH   1   9
HETATM    9  C           1     -21.548  -5.571  -6.688  0.00  0.00     0.251 C 
HETATM   10  N           1     -21.790  -5.719  -5.349  0.00  0.00    -0.349 N 
HETATM   11  H           1     -22.455  -5.115  -4.884  0.00  0.00     0.163 HD
HETATM   12  O           1     -20.753  -6.293  -7.242  0.00  0.00    -0.271 OA
BRANCH  10  13
HETATM   13  C           1     -21.092  -6.743  -4.595  0.00  0.00     0.235 C 
BRANCH  13  14
HETATM   14  C           1     -21.676  -6.833  -3.206  0.00  0.00     0.191 C 
HETATM   15  O           1     -21.476  -7.850  -2.509  0.00  0.00    -0.647 OA
HETATM   16  O           1     -22.360  -5.889  -2.754  0.00  0.00    -0.647 OA
ENDBRANCH  13  14
ENDBRANCH  10  13
ENDBRANCH   1   9
BRANCH   1  17
HETATM   17  N           1     -21.688  -3.161  -7.149  0.00  0.00    -0.064 N 
HETATM   18  H           1     -21.847  -2.948  -6.138  0.00  0.00     0.275 HD
HETATM   19  H           1     -22.147  -2.431  -7.738  0.00  0.00     0.275 HD
HETATM   20  H           1     -20.662  -3.173  -7.345  0.00  0.00     0.275 HD
ENDBRANCH   1  17
TORSDOF 8
ENDMDL
MODEL 8
REMARK VINA RESULT:      -5.2     10.432     12.863
REMARK  8 active torsions:
REMARK  status: ('A' for Active; 'I' for Inactive)
REMARK    1  A    between atoms: O_3  and  P_4 
REMARK    2  A    between atoms: P_4  and  O_5 
REMARK    3  A    between atoms: O_5  and  C_6 
REMARK    4  A    between atoms: C_6  and  C_7 
REMARK    5  A    between atoms: C_7  and  C_8 
REMARK    6  A    between atoms: C_7  and  N_20 
REMARK       I    between atoms: C_8  and  N_9 
REMARK    7  A    between atoms: N_9  and  C_10 
REMARK    8  A    between atoms: C_10  and  C_12 
ROOT
HETATM    1  C           1     -21.024  -3.949  -7.553  0.00  0.00     0.298 C 
ENDROOT
BRANCH   1   2
HETATM    2  C           1     -21.982  -4.632  -8.518  0.00  0.00     0.224 C 
BRANCH   2   3
HETATM    3  O           1     -23.216  -3.967  -8.502  0.00  0.00    -0.287 OA
BRANCH   3   4
HETATM    4  P           1     -24.005  -3.905  -9.910  0.00  0.00     0.406 P 
HETATM    5  O           1     -24.066  -5.260 -10.501  0.00  0.00    -0.624 OA
HETATM    6  O           1     -23.293  -2.994 -10.834  0.00  0.00    -0.624 OA
BRANCH   4   7
HETATM    7  O           1     -25.505  -3.358  -9.664  0.00  0.00    -0.300 OA
HETATM    8  H           1     -25.606  -3.338  -8.728  0.00  0.00     0.223 HD
ENDBRANCH   4   7
ENDBRANCH   3   4
ENDBRANCH   2   3
ENDBRANCH   1   2
BRANCH   1   9
HETATM    9  C           1     -20.979  -4.721  -6.256  0.00  0.00     0.251 C 
HETATM   10  N           1     -21.957  -5.635  -5.970  0.00  0.00    -0.349 N 
HETATM   11  H           1     -22.710  -5.794  -6.627  0.00  0.00     0.163 HD
HETATM   12  O           1     -20.080  -4.532  -5.471  0.00  0.00    -0.271 OA
BRANCH  10  13
HETATM   13  C           1     -21.913  -6.377  -4.724  0.00  0.00     0.235 C 
BRANCH  13  14
HETATM   14  C           1     -21.594  -7.824  -5.010  0.00  0.00     0.191 C 
HETATM   15  O           1     -21.194  -8.162  -6.144  0.00  0.00    -0.647 OA
HETATM   16  O           1     -21.731  -8.683  -4.113  0.00  0.00    -0.647 OA
ENDBRANCH  13  14
ENDBRANCH  10  13
ENDBRANCH   1   9
BRANCH   1  17
HETATM   17  N           1     -19.650  -3.908  -8.156  0.00  0.00    -0.064 N 
HETATM   18  H           1     -19.263  -4.877  -8.205  0.00  0.00     0.275 HD
HETATM   19  H           1     -19.029  -3.311  -7.565  0.00  0.00     0.275 HD
HETATM   20  H           1     -19.706  -3.505  -9.119  0.00  0.00     0.275 HD
ENDBRANCH   1  17
TORSDOF 8
ENDMDL
MODEL 9
REMARK VINA RESULT:      -5.2     12.683     15.378
REMARK  8 active torsions:
REMARK  status: ('A' for Active; 'I' for Inactive)
REMARK    1  A    between atoms: O_3  and  P_4 
REMARK    2  A    between atoms: P_4  and  O_5 
REMARK    3  A    between atoms: O_5  and  C_6 
REMARK    4  A    between atoms: C_6  and  C_7 
REMARK    5  A    between atoms: C_7  and  C_8 
REMARK    6  A    between atoms: C_7  and  N_20 
REMARK       I    between atoms: C_8  and  N_9 
REMARK    7  A    between atoms: N_9  and  C_10 
REMARK    8  A    between atoms: C_10  and  C_12 
ROOT
HETATM    1  C           1     -20.681  -6.907  -5.189  0.00  0.00     0.298 C 
ENDROOT
BRANCH   1   2
HETATM    2  C           1     -20.435  -5.714  -6.101  0.00  0.00     0.224 C 
BRANCH   2   3
HETATM    3  O           1     -21.283  -5.794  -7.216  0.00  0.00    -0.287 OA
BRANCH   3   4
HETATM    4  P           1     -22.125  -4.460  -7.562  0.00  0.00     0.406 P 
HETATM    5  O           1     -22.343  -4.379  -9.023  0.00  0.00    -0.624 OA
HETATM    6  O           1     -21.371  -3.270  -7.107  0.00  0.00    -0.624 OA
BRANCH   4   7
HETATM    7  O           1     -23.552  -4.513  -6.808  0.00  0.00    -0.300 OA
HETATM    8  H           1     -23.917  -3.650  -6.916  0.00  0.00     0.223 HD
ENDBRANCH   4   7
ENDBRANCH   3   4
ENDBRANCH   2   3
ENDBRANCH   1   2
BRANCH   1   9
HETATM    9  C           1     -21.665  -6.523  -4.111  0.00  0.00     0.251 C 
HETATM   10  N           1     -21.297  -6.589  -2.794  0.00  0.00    -0.349 N 
HETATM   11  H           1     -20.366  -6.896  -2.543  0.00  0.00     0.163 HD
HETATM   12  O           1     -22.777  -6.158  -4.410  0.00  0.00    -0.271 OA
BRANCH  10  13
HETATM   13  C           1     -22.243  -6.220  -1.758  0.00  0.00     0.235 C 
BRANCH  13  14
HETATM   14  C           1     -22.240  -7.272  -0.675  0.00  0.00     0.191 C 
HETATM   15  O           1     -23.256  -7.445   0.030  0.00  0.00    -0.647 OA
HETATM   16  O           1     -21.220  -7.970  -0.485  0.00  0.00    -0.647 OA
ENDBRANCH  13  14
ENDBRANCH  10  13
ENDBRANCH   1   9
BRANCH   1  17
HETATM   17  N           1     -21.240  -8.044  -5.993  0.00  0.00    -0.064 N 
HETATM   18  H           1     -21.455  -7.714  -6.960  0.00  0.00     0.275 HD
HETATM   19  H           1     -22.114  -8.394  -5.540  0.00  0.00     0.275 HD
HETATM   20  H           1     -20.538  -8.818  -6.036  0.00  0.00     0.275 HD
ENDBRANCH   1  17
TORSDOF 8
ENDMDL
