MODEL 1
REMARK VINA RESULT:      -7.3      0.000      0.000
REMARK  9 active torsions:
REMARK  status: ('A' for Active; 'I' for Inactive)
REMARK    1  A    between atoms: C_1  and  C_25 
REMARK    2  A    between atoms: C_1  and  C_2 
REMARK    3  A    between atoms: C_1  and  N_6 
REMARK    4  A    between atoms: C_2  and  C_3 
REMARK    5  A    between atoms: C_3  and  Se_4 
REMARK    6  A    between atoms: C_11  and  C_13 
REMARK    7  A    between atoms: C_13  and  C_14 
REMARK    8  A    between atoms: C_13  and  N_24 
REMARK    9  A    between atoms: C_14  and  C_15 
REMARK       I    between atoms: N_24  and  C_25 
ROOT
HETATM    1  C           1     -21.888  -6.690  -5.460  0.00  0.00     0.190 C 
ENDROOT
BRANCH   1   2
HETATM    2  C           1     -20.935  -7.847  -5.284  0.00  0.00     0.197 C 
HETATM    3  O           1     -21.377  -9.012  -5.186  0.00  0.00    -0.646 OA
HETATM    4  O           1     -19.702  -7.640  -5.236  0.00  0.00    -0.646 OA
ENDBRANCH   1   2
BRANCH   1   5
HETATM    5  C           1     -21.140  -5.500  -6.047  0.00  0.00     0.077 C 
BRANCH   5   6
HETATM    6  C           1     -21.950  -4.897  -7.151  0.00  0.00    -0.028 A 
HETATM    7  C           1     -23.268  -4.506  -7.071  0.00  0.00     0.096 A 
HETATM    8  N           1     -23.631  -4.006  -8.294  0.00  0.00    -0.365 N 
HETATM    9  H           1     -24.583  -3.632  -8.530  0.00  0.00     0.165 HD
HETATM   10  C           1     -22.569  -4.066  -9.168  0.00  0.00     0.042 A 
HETATM   11  C           1     -22.477  -3.673 -10.508  0.00  0.00     0.030 A 
HETATM   12  C           1     -21.497  -4.624  -8.472  0.00  0.00    -0.002 A 
HETATM   13  C           1     -21.251  -3.857 -11.153  0.00  0.00     0.002 A 
HETATM   14  C           1     -20.161  -4.411 -10.483  0.00  0.00     0.001 A 
HETATM   15  C           1     -20.271  -4.799  -9.142  0.00  0.00     0.014 A 
ENDBRANCH   5   6
ENDBRANCH   1   5
BRANCH   1  16
HETATM   16  N           1     -22.444  -6.323  -4.172  0.00  0.00    -0.344 N 
HETATM   17  H           1     -23.405  -6.013  -4.106  0.00  0.00     0.163 HD
HETATM   18  C           1     -21.670  -6.398  -3.046  0.00  0.00     0.249 C 
HETATM   19  O           1     -21.019  -5.442  -2.696  0.00  0.00    -0.271 OA
BRANCH  18  20
HETATM   20  C           1     -21.630  -7.674  -2.240  0.00  0.00     0.274 C 
BRANCH  20  21
HETATM   21  C           1     -22.167  -7.408  -0.840  0.00  0.00     0.042 C 
BRANCH  21  22
HETATM   22  C           1     -21.814  -8.576   0.071  0.00  0.00     0.003 C 
BRANCH  22  23
HETATM   23 Se           1     -22.959 -10.096  -0.347  0.00  0.00     0.000 Se
HETATM   24  C           1     -21.760 -11.422   0.431  0.00  0.00     0.000 C 
ENDBRANCH  22  23
ENDBRANCH  21  22
ENDBRANCH  20  21
BRANCH  20  25
HETATM   25  N           1     -20.215  -8.161  -2.148  0.00  0.00    -0.067 N 
HETATM   26  H           1     -19.959  -8.659  -3.032  0.00  0.00     0.275 HD
HETATM   27  H           1     -19.574  -7.347  -2.011  0.00  0.00     0.275 HD
HETATM   28  H           1     -20.124  -8.817  -1.340  0.00  0.00     0.275 HD
ENDBRANCH  20  25
ENDBRANCH  18  20
ENDBRANCH   1  16
TORSDOF 9
ENDMDL
MODEL 2
REMARK VINA RESULT:      -7.2      3.041      7.978
REMARK  9 active torsions:
REMARK  status: ('A' for Active; 'I' for Inactive)
REMARK    1  A    between atoms: C_1  and  C_25 
REMARK    2  A    between atoms: C_1  and  C_2 
REMARK    3  A    between atoms: C_1  and  N_6 
REMARK    4  A    between atoms: C_2  and  C_3 
REMARK    5  A    between atoms: C_3  and  Se_4 
REMARK    6  A    between atoms: C_11  and  C_13 
REMARK    7  A    between atoms: C_13  and  C_14 
REMARK    8  A    between atoms: C_13  and  N_24 
REMARK    9  A    between atoms: C_14  and  C_15 
REMARK       I    between atoms: N_24  and  C_25 
ROOT
HETATM    1  C           1     -21.287  -7.397  -5.620  0.00  0.00     0.190 C 
ENDROOT
BRANCH   1   2
HETATM    2  C           1     -21.975  -6.242  -4.935  0.00  0.00     0.197 C 
HETATM    3  O           1     -21.369  -5.579  -4.066  0.00  0.00    -0.646 OA
HETATM    4  O           1     -23.153  -5.947  -5.237  0.00  0.00    -0.646 OA
ENDBRANCH   1   2
BRANCH   1   5
HETATM    5  C           1     -20.341  -8.078  -4.639  0.00  0.00     0.077 C 
BRANCH   5   6
HETATM    6  C           1     -21.116  -9.020  -3.771  0.00  0.00    -0.028 A 
HETATM    7  C           1     -21.598 -10.255  -4.141  0.00  0.00     0.096 A 
HETATM    8  N           1     -22.247 -10.792  -3.061  0.00  0.00    -0.365 N 
HETATM    9  H           1     -22.717 -11.730  -3.049  0.00  0.00     0.165 HD
HETATM   10  C           1     -22.193  -9.925  -1.993  0.00  0.00     0.042 A 
HETATM   11  C           1     -22.712 -10.050  -0.700  0.00  0.00     0.030 A 
HETATM   12  C           1     -21.485  -8.799  -2.415  0.00  0.00    -0.002 A 
HETATM   13  C           1     -22.499  -8.990   0.188  0.00  0.00     0.002 A 
HETATM   14  C           1     -21.795  -7.854  -0.205  0.00  0.00     0.001 A 
HETATM   15  C           1     -21.282  -7.745  -1.504  0.00  0.00     0.014 A 
ENDBRANCH   5   6
ENDBRANCH   1   5
BRANCH   1  16
HETATM   16  N           1     -20.532  -6.905  -6.755  0.00  0.00    -0.344 N 
HETATM   17  H           1     -20.028  -7.552  -7.348  0.00  0.00     0.163 HD
HETATM   18  C           1     -20.502  -5.564  -7.028  0.00  0.00     0.249 C 
HETATM   19  O           1     -19.643  -4.867  -6.541  0.00  0.00    -0.271 OA
BRANCH  18  20
HETATM   20  C           1     -21.542  -4.954  -7.936  0.00  0.00     0.274 C 
BRANCH  20  21
HETATM   21  C           1     -20.909  -4.616  -9.279  0.00  0.00     0.042 C 
BRANCH  21  22
HETATM   22  C           1     -21.875  -3.772 -10.099  0.00  0.00     0.003 C 
BRANCH  22  23
HETATM   23 Se           1     -23.494  -4.797 -10.454  0.00  0.00     0.000 Se
HETATM   24  C           1     -24.709  -3.399  -9.846  0.00  0.00     0.000 C 
ENDBRANCH  22  23
ENDBRANCH  21  22
ENDBRANCH  20  21
BRANCH  20  25
HETATM   25  N           1     -22.081  -3.703  -7.308  0.00  0.00    -0.067 N 
HETATM   26  H           1     -22.409  -3.051  -8.057  0.00  0.00     0.275 HD
HETATM   27  H           1     -22.882  -3.944  -6.682  0.00  0.00     0.275 HD
HETATM   28  H           1     -21.327  -3.241  -6.750  0.00  0.00     0.275 HD
ENDBRANCH  20  25
ENDBRANCH  18  20
ENDBRANCH   1  16
TORSDOF 9
ENDMDL
MODEL 3
REMARK VINA RESULT:      -7.1      3.055      7.733
REMARK  9 active torsions:
REMARK  status: ('A' for Active; 'I' for Inactive)
REMARK    1  A    between atoms: C_1  and  C_25 
REMARK    2  A    between atoms: C_1  and  C_2 
REMARK    3  A    between atoms: C_1  and  N_6 
REMARK    4  A    between atoms: C_2  and  C_3 
REMARK    5  A    between atoms: C_3  and  Se_4 
REMARK    6  A    between atoms: C_11  and  C_13 
REMARK    7  A    between atoms: C_13  and  C_14 
REMARK    8  A    between atoms: C_13  and  N_24 
REMARK    9  A    between atoms: C_14  and  C_15 
REMARK       I    between atoms: N_24  and  C_25 
ROOT
HETATM    1  C           1     -20.473  -8.231  -4.844  0.00  0.00     0.190 C 
ENDROOT
BRANCH   1   2
HETATM    2  C           1     -19.477  -9.287  -5.254  0.00  0.00     0.197 C 
HETATM    3  O           1     -19.834 -10.232  -5.991  0.00  0.00    -0.646 OA
HETATM    4  O           1     -18.292  -9.218  -4.857  0.00  0.00    -0.646 OA
ENDBRANCH   1   2
BRANCH   1   5
HETATM    5  C           1     -21.586  -8.873  -4.025  0.00  0.00     0.077 C 
BRANCH   5   6
HETATM    6  C           1     -21.753  -8.126  -2.739  0.00  0.00    -0.028 A 
HETATM    7  C           1     -22.160  -6.818  -2.607  0.00  0.00     0.096 A 
HETATM    8  N           1     -22.183  -6.519  -1.270  0.00  0.00    -0.365 N 
HETATM    9  H           1     -22.456  -5.589  -0.868  0.00  0.00     0.165 HD
HETATM   10  C           1     -21.796  -7.614  -0.531  0.00  0.00     0.042 A 
HETATM   11  C           1     -21.672  -7.772   0.854  0.00  0.00     0.030 A 
HETATM   12  C           1     -21.520  -8.641  -1.434  0.00  0.00    -0.002 A 
HETATM   13  C           1     -21.252  -9.019   1.328  0.00  0.00     0.002 A 
HETATM   14  C           1     -20.969 -10.064   0.450  0.00  0.00     0.001 A 
HETATM   15  C           1     -21.098  -9.889  -0.933  0.00  0.00     0.014 A 
ENDBRANCH   5   6
ENDBRANCH   1   5
BRANCH   1  16
HETATM   16  N           1     -21.039  -7.617  -6.029  0.00  0.00    -0.344 N 
HETATM   17  H           1     -21.820  -8.054  -6.503  0.00  0.00     0.163 HD
HETATM   18  C           1     -20.519  -6.444  -6.507  0.00  0.00     0.249 C 
HETATM   19  O           1     -19.623  -6.467  -7.317  0.00  0.00    -0.271 OA
BRANCH  18  20
HETATM   20  C           1     -21.065  -5.123  -6.022  0.00  0.00     0.274 C 
BRANCH  20  21
HETATM   21  C           1     -21.225  -4.176  -7.203  0.00  0.00     0.042 C 
BRANCH  21  22
HETATM   22  C           1     -22.623  -4.326  -7.790  0.00  0.00     0.003 C 
BRANCH  22  23
HETATM   23 Se           1     -22.505  -4.433  -9.732  0.00  0.00     0.000 Se
HETATM   24  C           1     -20.577  -4.151  -9.795  0.00  0.00     0.000 C 
ENDBRANCH  22  23
ENDBRANCH  21  22
ENDBRANCH  20  21
BRANCH  20  25
HETATM   25  N           1     -20.114  -4.526  -5.028  0.00  0.00    -0.067 N 
HETATM   26  H           1     -20.655  -4.029  -4.283  0.00  0.00     0.275 HD
HETATM   27  H           1     -19.542  -5.285  -4.594  0.00  0.00     0.275 HD
HETATM   28  H           1     -19.485  -3.847  -5.512  0.00  0.00     0.275 HD
ENDBRANCH  20  25
ENDBRANCH  18  20
ENDBRANCH   1  16
TORSDOF 9
ENDMDL
MODEL 4
REMARK VINA RESULT:      -7.0      3.672      6.852
REMARK  9 active torsions:
REMARK  status: ('A' for Active; 'I' for Inactive)
REMARK    1  A    between atoms: C_1  and  C_25 
REMARK    2  A    between atoms: C_1  and  C_2 
REMARK    3  A    between atoms: C_1  and  N_6 
REMARK    4  A    between atoms: C_2  and  C_3 
REMARK    5  A    between atoms: C_3  and  Se_4 
REMARK    6  A    between atoms: C_11  and  C_13 
REMARK    7  A    between atoms: C_13  and  C_14 
REMARK    8  A    between atoms: C_13  and  N_24 
REMARK    9  A    between atoms: C_14  and  C_15 
REMARK       I    between atoms: N_24  and  C_25 
ROOT
HETATM    1  C           1     -21.354  -8.776  -2.012  0.00  0.00     0.190 C 
ENDROOT
BRANCH   1   2
HETATM    2  C           1     -21.944  -8.752  -0.623  0.00  0.00     0.197 C 
HETATM    3  O           1     -23.010  -9.360  -0.386  0.00  0.00    -0.646 OA
HETATM    4  O           1     -21.366  -8.124   0.291  0.00  0.00    -0.646 OA
ENDBRANCH   1   2
BRANCH   1   5
HETATM    5  C           1     -20.173  -9.737  -2.045  0.00  0.00     0.077 C 
BRANCH   5   6
HETATM    6  C           1     -19.638  -9.822  -3.441  0.00  0.00    -0.028 A 
HETATM    7  C           1     -20.385  -9.959  -4.589  0.00  0.00     0.096 A 
HETATM    8  N           1     -19.519  -9.998  -5.649  0.00  0.00    -0.365 N 
HETATM    9  H           1     -19.804 -10.097  -6.654  0.00  0.00     0.165 HD
HETATM   10  C           1     -18.219  -9.888  -5.207  0.00  0.00     0.042 A 
HETATM   11  C           1     -17.018  -9.880  -5.924  0.00  0.00     0.030 A 
HETATM   12  C           1     -18.267  -9.777  -3.818  0.00  0.00    -0.002 A 
HETATM   13  C           1     -15.831  -9.754  -5.197  0.00  0.00     0.002 A 
HETATM   14  C           1     -15.848  -9.639  -3.808  0.00  0.00     0.001 A 
HETATM   15  C           1     -17.059  -9.650  -3.105  0.00  0.00     0.014 A 
ENDBRANCH   5   6
ENDBRANCH   1   5
BRANCH   1  16
HETATM   16  N           1     -20.904  -7.445  -2.368  0.00  0.00    -0.344 N 
HETATM   17  H           1     -19.970  -7.143  -2.121  0.00  0.00     0.163 HD
HETATM   18  C           1     -21.742  -6.595  -3.039  0.00  0.00     0.249 C 
HETATM   19  O           1     -22.472  -5.855  -2.423  0.00  0.00    -0.271 OA
BRANCH  18  20
HETATM   20  C           1     -21.755  -6.584  -4.548  0.00  0.00     0.274 C 
BRANCH  20  21
HETATM   21  C           1     -20.680  -5.635  -5.058  0.00  0.00     0.042 C 
BRANCH  21  22
HETATM   22  C           1     -20.128  -6.154  -6.379  0.00  0.00     0.003 C 
BRANCH  22  23
HETATM   23 Se           1     -19.640  -4.649  -7.517  0.00  0.00     0.000 Se
HETATM   24  C           1     -21.326  -3.702  -7.267  0.00  0.00     0.000 C 
ENDBRANCH  22  23
ENDBRANCH  21  22
ENDBRANCH  20  21
BRANCH  20  25
HETATM   25  N           1     -23.098  -6.123  -5.031  0.00  0.00    -0.067 N 
HETATM   26  H           1     -22.974  -5.480  -5.847  0.00  0.00     0.275 HD
HETATM   27  H           1     -23.666  -6.951  -5.324  0.00  0.00     0.275 HD
HETATM   28  H           1     -23.591  -5.617  -4.261  0.00  0.00     0.275 HD
ENDBRANCH  20  25
ENDBRANCH  18  20
ENDBRANCH   1  16
TORSDOF 9
ENDMDL
MODEL 5
REMARK VINA RESULT:      -6.9      3.771      7.293
REMARK  9 active torsions:
REMARK  status: ('A' for Active; 'I' for Inactive)
REMARK    1  A    between atoms: C_1  and  C_25 
REMARK    2  A    between atoms: C_1  and  C_2 
REMARK    3  A    between atoms: C_1  and  N_6 
REMARK    4  A    between atoms: C_2  and  C_3 
REMARK    5  A    between atoms: C_3  and  Se_4 
REMARK    6  A    between atoms: C_11  and  C_13 
REMARK    7  A    between atoms: C_13  and  C_14 
REMARK    8  A    between atoms: C_13  and  N_24 
REMARK    9  A    between atoms: C_14  and  C_15 
REMARK       I    between atoms: N_24  and  C_25 
ROOT
HETATM    1  C           1     -21.409  -7.843  -2.384  0.00  0.00     0.190 C 
ENDROOT
BRANCH   1   2
HETATM    2  C           1     -22.210  -7.803  -1.106  0.00  0.00     0.197 C 
HETATM    3  O           1     -22.366  -8.844  -0.432  0.00  0.00    -0.646 OA
HETATM    4  O           1     -22.719  -6.727  -0.720  0.00  0.00    -0.646 OA
ENDBRANCH   1   2
BRANCH   1   5
HETATM    5  C           1     -19.991  -8.312  -2.080  0.00  0.00     0.077 C 
BRANCH   5   6
HETATM    6  C           1     -19.553  -9.287  -3.127  0.00  0.00    -0.028 A 
HETATM    7  C           1     -20.372  -9.953  -4.010  0.00  0.00     0.096 A 
HETATM    8  N           1     -19.582 -10.747  -4.798  0.00  0.00    -0.365 N 
HETATM    9  H           1     -19.933 -11.373  -5.564  0.00  0.00     0.165 HD
HETATM   10  C           1     -18.260 -10.607  -4.440  0.00  0.00     0.042 A 
HETATM   11  C           1     -17.112 -11.215  -4.962  0.00  0.00     0.030 A 
HETATM   12  C           1     -18.215  -9.692  -3.388  0.00  0.00    -0.002 A 
HETATM   13  C           1     -15.883 -10.874  -4.389  0.00  0.00     0.002 A 
HETATM   14  C           1     -15.807  -9.962  -3.338  0.00  0.00     0.001 A 
HETATM   15  C           1     -16.965  -9.363  -2.828  0.00  0.00     0.014 A 
ENDBRANCH   5   6
ENDBRANCH   1   5
BRANCH   1  16
HETATM   16  N           1     -21.364  -6.517  -2.967  0.00  0.00    -0.344 N 
HETATM   17  H           1     -21.145  -5.716  -2.388  0.00  0.00     0.163 HD
HETATM   18  C           1     -21.617  -6.347  -4.302  0.00  0.00     0.249 C 
HETATM   19  O           1     -22.746  -6.146  -4.682  0.00  0.00    -0.271 OA
BRANCH  18  20
HETATM   20  C           1     -20.485  -6.411  -5.299  0.00  0.00     0.274 C 
BRANCH  20  21
HETATM   21  C           1     -20.210  -5.017  -5.845  0.00  0.00     0.042 C 
BRANCH  21  22
HETATM   22  C           1     -20.437  -5.007  -7.351  0.00  0.00     0.003 C 
BRANCH  22  23
HETATM   23 Se           1     -22.087  -4.050  -7.754  0.00  0.00     0.000 Se
HETATM   24  C           1     -21.945  -4.286  -9.684  0.00  0.00     0.000 C 
ENDBRANCH  22  23
ENDBRANCH  21  22
ENDBRANCH  20  21
BRANCH  20  25
HETATM   25  N           1     -20.866  -7.324  -6.426  0.00  0.00    -0.067 N 
HETATM   26  H           1     -21.404  -8.138  -6.050  0.00  0.00     0.275 HD
HETATM   27  H           1     -21.458  -6.803  -7.112  0.00  0.00     0.275 HD
HETATM   28  H           1     -20.002  -7.669  -6.903  0.00  0.00     0.275 HD
ENDBRANCH  20  25
ENDBRANCH  18  20
ENDBRANCH   1  16
TORSDOF 9
ENDMDL
MODEL 6
REMARK VINA RESULT:      -6.9      3.106      7.956
REMARK  9 active torsions:
REMARK  status: ('A' for Active; 'I' for Inactive)
REMARK    1  A    between atoms: C_1  and  C_25 
REMARK    2  A    between atoms: C_1  and  C_2 
REMARK    3  A    between atoms: C_1  and  N_6 
REMARK    4  A    between atoms: C_2  and  C_3 
REMARK    5  A    between atoms: C_3  and  Se_4 
REMARK    6  A    between atoms: C_11  and  C_13 
REMARK    7  A    between atoms: C_13  and  C_14 
REMARK    8  A    between atoms: C_13  and  N_24 
REMARK    9  A    between atoms: C_14  and  C_15 
REMARK       I    between atoms: N_24  and  C_25 
ROOT
HETATM    1  C           1     -20.294  -8.749  -4.582  0.00  0.00     0.190 C 
ENDROOT
BRANCH   1   2
HETATM    2  C           1     -19.001  -9.399  -5.009  0.00  0.00     0.197 C 
HETATM    3  O           1     -17.996  -9.337  -4.268  0.00  0.00    -0.646 OA
HETATM    4  O           1     -18.934  -9.999  -6.104  0.00  0.00    -0.646 OA
ENDBRANCH   1   2
BRANCH   1   5
HETATM    5  C           1     -21.238  -9.811  -4.030  0.00  0.00     0.077 C 
BRANCH   5   6
HETATM    6  C           1     -20.968 -10.009  -2.572  0.00  0.00    -0.028 A 
HETATM    7  C           1     -20.267 -11.053  -2.010  0.00  0.00     0.096 A 
HETATM    8  N           1     -20.247 -10.862  -0.654  0.00  0.00    -0.365 N 
HETATM    9  H           1     -19.782 -11.503   0.035  0.00  0.00     0.165 HD
HETATM   10  C           1     -20.925  -9.709  -0.325  0.00  0.00     0.042 A 
HETATM   11  C           1     -21.159  -9.123   0.924  0.00  0.00     0.030 A 
HETATM   12  C           1     -21.389  -9.153  -1.517  0.00  0.00    -0.002 A 
HETATM   13  C           1     -21.891  -7.932   0.952  0.00  0.00     0.002 A 
HETATM   14  C           1     -22.367  -7.352  -0.222  0.00  0.00     0.001 A 
HETATM   15  C           1     -22.123  -7.952  -1.464  0.00  0.00     0.014 A 
ENDBRANCH   5   6
ENDBRANCH   1   5
BRANCH   1  16
HETATM   16  N           1     -20.910  -8.103  -5.725  0.00  0.00    -0.344 N 
HETATM   17  H           1     -21.649  -8.571  -6.234  0.00  0.00     0.163 HD
HETATM   18  C           1     -20.492  -6.859  -6.114  0.00  0.00     0.249 C 
HETATM   19  O           1     -19.595  -6.747  -6.917  0.00  0.00    -0.271 OA
BRANCH  18  20
HETATM   20  C           1     -21.150  -5.627  -5.542  0.00  0.00     0.274 C 
BRANCH  20  21
HETATM   21  C           1     -22.201  -5.114  -6.516  0.00  0.00     0.042 C 
BRANCH  21  22
HETATM   22  C           1     -21.661  -3.895  -7.252  0.00  0.00     0.003 C 
BRANCH  22  23
HETATM   23 Se           1     -22.102  -4.029  -9.145  0.00  0.00     0.000 Se
HETATM   24  C           1     -20.295  -4.508  -9.700  0.00  0.00     0.000 C 
ENDBRANCH  22  23
ENDBRANCH  21  22
ENDBRANCH  20  21
BRANCH  20  25
HETATM   25  N           1     -20.114  -4.566  -5.319  0.00  0.00    -0.067 N 
HETATM   26  H           1     -20.253  -4.135  -4.377  0.00  0.00     0.275 HD
HETATM   27  H           1     -19.161  -4.994  -5.368  0.00  0.00     0.275 HD
HETATM   28  H           1     -20.204  -3.831  -6.056  0.00  0.00     0.275 HD
ENDBRANCH  20  25
ENDBRANCH  18  20
ENDBRANCH   1  16
TORSDOF 9
ENDMDL
MODEL 7
REMARK VINA RESULT:      -6.7      2.969      4.285
REMARK  9 active torsions:
REMARK  status: ('A' for Active; 'I' for Inactive)
REMARK    1  A    between atoms: C_1  and  C_25 
REMARK    2  A    between atoms: C_1  and  C_2 
REMARK    3  A    between atoms: C_1  and  N_6 
REMARK    4  A    between atoms: C_2  and  C_3 
REMARK    5  A    between atoms: C_3  and  Se_4 
REMARK    6  A    between atoms: C_11  and  C_13 
REMARK    7  A    between atoms: C_13  and  C_14 
REMARK    8  A    between atoms: C_13  and  N_24 
REMARK    9  A    between atoms: C_14  and  C_15 
REMARK       I    between atoms: N_24  and  C_25 
ROOT
HETATM    1  C           1     -21.374  -7.428  -3.695  0.00  0.00     0.190 C 
ENDROOT
BRANCH   1   2
HETATM    2  C           1     -21.679  -6.855  -2.333  0.00  0.00     0.197 C 
HETATM    3  O           1     -21.189  -7.381  -1.310  0.00  0.00    -0.646 OA
HETATM    4  O           1     -22.420  -5.853  -2.227  0.00  0.00    -0.646 OA
ENDBRANCH   1   2
BRANCH   1   5
HETATM    5  C           1     -22.221  -6.720  -4.745  0.00  0.00     0.077 C 
BRANCH   5   6
HETATM    6  C           1     -21.348  -6.288  -5.882  0.00  0.00    -0.028 A 
HETATM    7  C           1     -20.037  -6.657  -6.085  0.00  0.00     0.096 A 
HETATM    8  N           1     -19.604  -6.048  -7.233  0.00  0.00    -0.365 N 
HETATM    9  H           1     -18.640  -6.147  -7.637  0.00  0.00     0.165 HD
HETATM   10  C           1     -20.614  -5.289  -7.780  0.00  0.00     0.042 A 
HETATM   11  C           1     -20.628  -4.502  -8.936  0.00  0.00     0.030 A 
HETATM   12  C           1     -21.724  -5.423  -6.947  0.00  0.00    -0.002 A 
HETATM   13  C           1     -21.815  -3.832  -9.249  0.00  0.00     0.002 A 
HETATM   14  C           1     -22.941  -3.948  -8.436  0.00  0.00     0.001 A 
HETATM   15  C           1     -22.910  -4.740  -7.281  0.00  0.00     0.014 A 
ENDBRANCH   5   6
ENDBRANCH   1   5
BRANCH   1  16
HETATM   16  N           1     -21.681  -8.845  -3.702  0.00  0.00    -0.344 N 
HETATM   17  H           1     -22.642  -9.154  -3.786  0.00  0.00     0.163 HD
HETATM   18  C           1     -20.673  -9.765  -3.597  0.00  0.00     0.249 C 
HETATM   19  O           1     -20.324 -10.155  -2.508  0.00  0.00    -0.271 OA
BRANCH  18  20
HETATM   20  C           1     -19.998 -10.291  -4.840  0.00  0.00     0.274 C 
BRANCH  20  21
HETATM   21  C           1     -18.683  -9.555  -5.054  0.00  0.00     0.042 C 
BRANCH  21  22
HETATM   22  C           1     -17.758 -10.404  -5.916  0.00  0.00     0.003 C 
BRANCH  22  23
HETATM   23 Se           1     -16.085 -10.713  -4.967  0.00  0.00     0.000 Se
HETATM   24  C           1     -16.586  -9.659  -3.405  0.00  0.00     0.000 C 
ENDBRANCH  22  23
ENDBRANCH  21  22
ENDBRANCH  20  21
BRANCH  20  25
HETATM   25  N           1     -20.892 -10.072  -6.024  0.00  0.00    -0.067 N 
HETATM   26  H           1     -20.319  -9.762  -6.842  0.00  0.00     0.275 HD
HETATM   27  H           1     -21.382 -10.964  -6.260  0.00  0.00     0.275 HD
HETATM   28  H           1     -21.598  -9.336  -5.795  0.00  0.00     0.275 HD
ENDBRANCH  20  25
ENDBRANCH  18  20
ENDBRANCH   1  16
TORSDOF 9
ENDMDL
MODEL 8
REMARK VINA RESULT:      -6.7      5.302      7.837
REMARK  9 active torsions:
REMARK  status: ('A' for Active; 'I' for Inactive)
REMARK    1  A    between atoms: C_1  and  C_25 
REMARK    2  A    between atoms: C_1  and  C_2 
REMARK    3  A    between atoms: C_1  and  N_6 
REMARK    4  A    between atoms: C_2  and  C_3 
REMARK    5  A    between atoms: C_3  and  Se_4 
REMARK    6  A    between atoms: C_11  and  C_13 
REMARK    7  A    between atoms: C_13  and  C_14 
REMARK    8  A    between atoms: C_13  and  N_24 
REMARK    9  A    between atoms: C_14  and  C_15 
REMARK       I    between atoms: N_24  and  C_25 
ROOT
HETATM    1  C           1     -19.408 -10.108  -4.763  0.00  0.00     0.190 C 
ENDROOT
BRANCH   1   2
HETATM    2  C           1     -20.837  -9.910  -5.203  0.00  0.00     0.197 C 
HETATM    3  O           1     -21.697 -10.781  -4.945  0.00  0.00    -0.646 OA
HETATM    4  O           1     -21.163  -8.875  -5.825  0.00  0.00    -0.646 OA
ENDBRANCH   1   2
BRANCH   1   5
HETATM    5  C           1     -19.040  -9.044  -3.736  0.00  0.00     0.077 C 
BRANCH   5   6
HETATM    6  C           1     -19.753  -9.324  -2.451  0.00  0.00    -0.028 A 
HETATM    7  C           1     -19.591 -10.437  -1.657  0.00  0.00     0.096 A 
HETATM    8  N           1     -20.424 -10.307  -0.578  0.00  0.00    -0.365 N 
HETATM    9  H           1     -20.514 -11.008   0.198  0.00  0.00     0.165 HD
HETATM   10  C           1     -21.126  -9.126  -0.658  0.00  0.00     0.042 A 
HETATM   11  C           1     -22.079  -8.580   0.210  0.00  0.00     0.030 A 
HETATM   12  C           1     -20.722  -8.487  -1.830  0.00  0.00    -0.002 A 
HETATM   13  C           1     -22.633  -7.343  -0.134  0.00  0.00     0.002 A 
HETATM   14  C           1     -22.248  -6.681  -1.298  0.00  0.00     0.001 A 
HETATM   15  C           1     -21.293  -7.242  -2.156  0.00  0.00     0.014 A 
ENDBRANCH   5   6
ENDBRANCH   1   5
BRANCH   1  16
HETATM   16  N           1     -18.530  -9.994  -5.912  0.00  0.00    -0.344 N 
HETATM   17  H           1     -18.201  -9.085  -6.210  0.00  0.00     0.163 HD
HETATM   18  C           1     -18.145 -11.118  -6.592  0.00  0.00     0.249 C 
HETATM   19  O           1     -18.807 -11.519  -7.520  0.00  0.00    -0.271 OA
BRANCH  18  20
HETATM   20  C           1     -16.892 -11.855  -6.185  0.00  0.00     0.274 C 
BRANCH  20  21
HETATM   21  C           1     -15.771 -10.855  -5.937  0.00  0.00     0.042 C 
BRANCH  21  22
HETATM   22  C           1     -14.686 -11.507  -5.090  0.00  0.00     0.003 C 
BRANCH  22  23
HETATM   23 Se           1     -15.474 -12.217  -3.456  0.00  0.00     0.000 Se
HETATM   24  C           1     -15.801 -10.468  -2.659  0.00  0.00     0.000 C 
ENDBRANCH  22  23
ENDBRANCH  21  22
ENDBRANCH  20  21
BRANCH  20  25
HETATM   25  N           1     -16.489 -12.797  -7.280  0.00  0.00    -0.067 N 
HETATM   26  H           1     -15.576 -13.244  -7.037  0.00  0.00     0.275 HD
HETATM   27  H           1     -17.220 -13.536  -7.391  0.00  0.00     0.275 HD
HETATM   28  H           1     -16.391 -12.267  -8.176  0.00  0.00     0.275 HD
ENDBRANCH  20  25
ENDBRANCH  18  20
ENDBRANCH   1  16
TORSDOF 9
ENDMDL
MODEL 9
REMARK VINA RESULT:      -6.6      3.103      4.496
REMARK  9 active torsions:
REMARK  status: ('A' for Active; 'I' for Inactive)
REMARK    1  A    between atoms: C_1  and  C_25 
REMARK    2  A    between atoms: C_1  and  C_2 
REMARK    3  A    between atoms: C_1  and  N_6 
REMARK    4  A    between atoms: C_2  and  C_3 
REMARK    5  A    between atoms: C_3  and  Se_4 
REMARK    6  A    between atoms: C_11  and  C_13 
REMARK    7  A    between atoms: C_13  and  C_14 
REMARK    8  A    between atoms: C_13  and  N_24 
REMARK    9  A    between atoms: C_14  and  C_15 
REMARK       I    between atoms: N_24  and  C_25 
ROOT
HETATM    1  C           1     -21.449  -7.344  -3.853  0.00  0.00     0.190 C 
ENDROOT
BRANCH   1   2
HETATM    2  C           1     -21.635  -6.863  -2.435  0.00  0.00     0.197 C 
HETATM    3  O           1     -22.442  -5.940  -2.189  0.00  0.00    -0.646 OA
HETATM    4  O           1     -20.983  -7.388  -1.506  0.00  0.00    -0.646 OA
ENDBRANCH   1   2
BRANCH   1   5
HETATM    5  C           1     -22.147  -6.386  -4.810  0.00  0.00     0.077 C 
BRANCH   5   6
HETATM    6  C           1     -21.256  -6.115  -5.983  0.00  0.00    -0.028 A 
HETATM    7  C           1     -19.996  -6.633  -6.182  0.00  0.00     0.096 A 
HETATM    8  N           1     -19.524  -6.140  -7.370  0.00  0.00    -0.365 N 
HETATM    9  H           1     -18.585  -6.364  -7.781  0.00  0.00     0.165 HD
HETATM   10  C           1     -20.459  -5.310  -7.946  0.00  0.00     0.042 A 
HETATM   11  C           1     -20.414  -4.593  -9.147  0.00  0.00     0.030 A 
HETATM   12  C           1     -21.561  -5.277  -7.091  0.00  0.00    -0.002 A 
HETATM   13  C           1     -21.529  -3.820  -9.482  0.00  0.00     0.002 A 
HETATM   14  C           1     -22.645  -3.769  -8.648  0.00  0.00     0.001 A 
HETATM   15  C           1     -22.674  -4.492  -7.449  0.00  0.00     0.014 A 
ENDBRANCH   5   6
ENDBRANCH   1   5
BRANCH   1  16
HETATM   16  N           1     -22.023  -8.668  -3.993  0.00  0.00    -0.344 N 
HETATM   17  H           1     -23.028  -8.790  -3.970  0.00  0.00     0.163 HD
HETATM   18  C           1     -21.207  -9.754  -4.157  0.00  0.00     0.249 C 
HETATM   19  O           1     -20.806 -10.361  -3.191  0.00  0.00    -0.271 OA
BRANCH  18  20
HETATM   20  C           1     -20.806 -10.195  -5.543  0.00  0.00     0.274 C 
BRANCH  20  21
HETATM   21  C           1     -21.277 -11.624  -5.778  0.00  0.00     0.042 C 
BRANCH  21  22
HETATM   22  C           1     -20.073 -12.555  -5.831  0.00  0.00     0.003 C 
BRANCH  22  23
HETATM   23 Se           1     -20.137 -13.610  -7.468  0.00  0.00     0.000 Se
HETATM   24  C           1     -18.778 -12.561  -8.392  0.00  0.00     0.000 C 
ENDBRANCH  22  23
ENDBRANCH  21  22
ENDBRANCH  20  21
BRANCH  20  25
HETATM   25  N           1     -19.313 -10.133  -5.674  0.00  0.00    -0.067 N 
HETATM   26  H           1     -19.006 -10.742  -6.467  0.00  0.00     0.275 HD
HETATM   27  H           1     -19.020  -9.147  -5.859  0.00  0.00     0.275 HD
HETATM   28  H           1     -18.871 -10.468  -4.788  0.00  0.00     0.275 HD
ENDBRANCH  20  25
ENDBRANCH  18  20
ENDBRANCH   1  16
TORSDOF 9
ENDMDL
