MODEL 1
REMARK VINA RESULT:      -6.2      0.000      0.000
REMARK  8 active torsions:
REMARK  status: ('A' for Active; 'I' for Inactive)
REMARK    1  A    between atoms: N_4  and  C_7 
REMARK    2  A    between atoms: S_5  and  C_6 
REMARK    3  A    between atoms: C_6  and  C_7 
REMARK    4  A    between atoms: C_7  and  C_8 
REMARK       I    between atoms: C_8  and  N_9 
REMARK    5  A    between atoms: N_9  and  C_18 
REMARK    6  A    between atoms: C_18  and  C_20 
REMARK    7  A    between atoms: C_18  and  C_22 
REMARK    8  A    between atoms: C_22  and  C_23 
ROOT
HETATM    1  C           1     -24.808  -6.813 -19.054  0.00  0.00     0.249 C 
HETATM    2  N           1     -25.679  -7.146 -18.051  0.00  0.00    -0.344 N 
HETATM    3  O           1     -23.795  -6.207 -18.798  0.00  0.00    -0.271 OA
HETATM    4  H           1     -25.577  -8.026 -17.564  0.00  0.00     0.163 HD
ENDROOT
BRANCH   2   5
HETATM    5  C           1     -26.747  -6.235 -17.687  0.00  0.00     0.189 C 
BRANCH   5   6
HETATM    6  C           1     -26.954  -6.276 -16.193  0.00  0.00     0.197 C 
HETATM    7  O           1     -27.281  -5.237 -15.579  0.00  0.00    -0.646 OA
HETATM    8  O           1     -26.800  -7.347 -15.569  0.00  0.00    -0.646 OA
ENDBRANCH   5   6
BRANCH   5   9
HETATM    9  C           1     -28.032  -6.653 -18.390  0.00  0.00     0.074 C 
BRANCH   9  10
HETATM   10  C           1     -29.151  -5.756 -17.960  0.00  0.00    -0.056 A 
HETATM   11  C           1     -30.266  -6.292 -17.317  0.00  0.00     0.007 A 
HETATM   12  C           1     -31.309  -5.456 -16.917  0.00  0.00     0.001 A 
HETATM   13  C           1     -31.235  -4.084 -17.161  0.00  0.00     0.000 A 
HETATM   14  C           1     -30.119  -3.549 -17.804  0.00  0.00     0.001 A 
HETATM   15  C           1     -29.077  -4.385 -18.204  0.00  0.00     0.007 A 
ENDBRANCH   9  10
ENDBRANCH   5   9
ENDBRANCH   2   5
BRANCH   1  16
HETATM   16  C           1     -25.115  -7.203 -20.479  0.00  0.00     0.283 C 
BRANCH  16  17
HETATM   17  N           1     -25.150  -5.974 -21.337  0.00  0.00    -0.066 N 
HETATM   18  H           1     -24.711  -5.178 -20.823  0.00  0.00     0.275 HD
HETATM   19  H           1     -24.621  -6.152 -22.220  0.00  0.00     0.275 HD
HETATM   20  H           1     -26.142  -5.736 -21.565  0.00  0.00     0.275 HD
ENDBRANCH  16  17
BRANCH  16  21
HETATM   21  C           1     -24.036  -8.150 -20.990  0.00  0.00     0.113 C 
BRANCH  21  22
HETATM   22  S           1     -23.741  -7.837 -22.753  0.00  0.00    -0.180 SA
HETATM   23  H           1     -23.658  -9.131 -23.112  0.00  0.00     0.101 HD
ENDBRANCH  21  22
ENDBRANCH  16  21
ENDBRANCH   1  16
TORSDOF 8
ENDMDL
MODEL 2
REMARK VINA RESULT:      -6.1     15.243     17.086
REMARK  8 active torsions:
REMARK  status: ('A' for Active; 'I' for Inactive)
REMARK    1  A    between atoms: N_4  and  C_7 
REMARK    2  A    between atoms: S_5  and  C_6 
REMARK    3  A    between atoms: C_6  and  C_7 
REMARK    4  A    between atoms: C_7  and  C_8 
REMARK       I    between atoms: C_8  and  N_9 
REMARK    5  A    between atoms: N_9  and  C_18 
REMARK    6  A    between atoms: C_18  and  C_20 
REMARK    7  A    between atoms: C_18  and  C_22 
REMARK    8  A    between atoms: C_22  and  C_23 
ROOT
HETATM    1  C           1     -19.396  -9.551  -4.795  0.00  0.00     0.249 C 
HETATM    2  N           1     -19.704  -8.244  -4.530  0.00  0.00    -0.344 N 
HETATM    3  O           1     -19.526  -9.987  -5.915  0.00  0.00    -0.271 OA
HETATM    4  H           1     -18.994  -7.529  -4.617  0.00  0.00     0.163 HD
ENDROOT
BRANCH   2   5
HETATM    5  C           1     -21.049  -7.884  -4.123  0.00  0.00     0.189 C 
BRANCH   5   6
HETATM    6  C           1     -21.694  -7.050  -5.202  0.00  0.00     0.197 C 
HETATM    7  O           1     -21.247  -7.084  -6.369  0.00  0.00    -0.646 OA
HETATM    8  O           1     -22.675  -6.325  -4.929  0.00  0.00    -0.646 OA
ENDBRANCH   5   6
BRANCH   5   9
HETATM    9  C           1     -20.990  -7.085  -2.828  0.00  0.00     0.074 C 
BRANCH   9  10
HETATM   10  C           1     -21.734  -7.817  -1.755  0.00  0.00    -0.056 A 
HETATM   11  C           1     -22.320  -7.110  -0.706  0.00  0.00     0.007 A 
HETATM   12  C           1     -23.013  -7.794   0.295  0.00  0.00     0.001 A 
HETATM   13  C           1     -23.118  -9.184   0.244  0.00  0.00     0.000 A 
HETATM   14  C           1     -22.532  -9.890  -0.806  0.00  0.00     0.001 A 
HETATM   15  C           1     -21.839  -9.207  -1.805  0.00  0.00     0.007 A 
ENDBRANCH   9  10
ENDBRANCH   5   9
ENDBRANCH   2   5
BRANCH   1  16
HETATM   16  C           1     -18.895 -10.447  -3.689  0.00  0.00     0.283 C 
BRANCH  16  17
HETATM   17  N           1     -17.995 -11.498  -4.267  0.00  0.00    -0.066 N 
HETATM   18  H           1     -17.005 -11.293  -4.003  0.00  0.00     0.275 HD
HETATM   19  H           1     -18.268 -12.434  -3.893  0.00  0.00     0.275 HD
HETATM   20  H           1     -18.083 -11.498  -5.309  0.00  0.00     0.275 HD
ENDBRANCH  16  17
BRANCH  16  21
HETATM   21  C           1     -18.119  -9.616  -2.675  0.00  0.00     0.113 C 
BRANCH  21  22
HETATM   22  S           1     -16.350  -9.668  -3.075  0.00  0.00    -0.180 SA
HETATM   23  H           1     -16.055  -8.460  -2.562  0.00  0.00     0.101 HD
ENDBRANCH  21  22
ENDBRANCH  16  21
ENDBRANCH   1  16
TORSDOF 8
ENDMDL
MODEL 3
REMARK VINA RESULT:      -6.1     13.657     15.677
REMARK  8 active torsions:
REMARK  status: ('A' for Active; 'I' for Inactive)
REMARK    1  A    between atoms: N_4  and  C_7 
REMARK    2  A    between atoms: S_5  and  C_6 
REMARK    3  A    between atoms: C_6  and  C_7 
REMARK    4  A    between atoms: C_7  and  C_8 
REMARK       I    between atoms: C_8  and  N_9 
REMARK    5  A    between atoms: N_9  and  C_18 
REMARK    6  A    between atoms: C_18  and  C_20 
REMARK    7  A    between atoms: C_18  and  C_22 
REMARK    8  A    between atoms: C_22  and  C_23 
ROOT
HETATM    1  C           1     -21.891  -6.356  -2.777  0.00  0.00     0.249 C 
HETATM    2  N           1     -22.513  -6.411  -3.996  0.00  0.00    -0.344 N 
HETATM    3  O           1     -21.460  -5.305  -2.366  0.00  0.00    -0.271 OA
HETATM    4  H           1     -23.511  -6.266  -4.062  0.00  0.00     0.163 HD
ENDROOT
BRANCH   2   5
HETATM    5  C           1     -21.738  -6.677  -5.193  0.00  0.00     0.189 C 
BRANCH   5   6
HETATM    6  C           1     -20.941  -7.945  -5.003  0.00  0.00     0.197 C 
HETATM    7  O           1     -19.693  -7.897  -4.959  0.00  0.00    -0.646 OA
HETATM    8  O           1     -21.529  -9.042  -4.892  0.00  0.00    -0.646 OA
ENDBRANCH   5   6
BRANCH   5   9
HETATM    9  C           1     -20.789  -5.514  -5.453  0.00  0.00     0.074 C 
BRANCH   9  10
HETATM   10  C           1     -20.971  -5.026  -6.856  0.00  0.00    -0.056 A 
HETATM   11  C           1     -22.190  -4.476  -7.251  0.00  0.00     0.007 A 
HETATM   12  C           1     -22.359  -4.022  -8.560  0.00  0.00     0.001 A 
HETATM   13  C           1     -21.308  -4.118  -9.472  0.00  0.00     0.000 A 
HETATM   14  C           1     -20.089  -4.668  -9.076  0.00  0.00     0.001 A 
HETATM   15  C           1     -19.920  -5.123  -7.769  0.00  0.00     0.007 A 
ENDBRANCH   9  10
ENDBRANCH   5   9
ENDBRANCH   2   5
BRANCH   1  16
HETATM   16  C           1     -21.747  -7.609  -1.948  0.00  0.00     0.283 C 
BRANCH  16  17
HETATM   17  N           1     -20.295  -7.969  -1.836  0.00  0.00    -0.066 N 
HETATM   18  H           1     -19.885  -7.507  -0.993  0.00  0.00     0.275 HD
HETATM   19  H           1     -20.200  -9.005  -1.746  0.00  0.00     0.275 HD
HETATM   20  H           1     -19.789  -7.643  -2.691  0.00  0.00     0.275 HD
ENDBRANCH  16  17
BRANCH  16  21
HETATM   21  C           1     -22.318  -7.366  -0.557  0.00  0.00     0.113 C 
BRANCH  21  22
HETATM   22  S           1     -21.531  -8.494   0.628  0.00  0.00    -0.180 SA
HETATM   23  H           1     -22.339  -9.541   0.381  0.00  0.00     0.101 HD
ENDBRANCH  21  22
ENDBRANCH  16  21
ENDBRANCH   1  16
TORSDOF 8
ENDMDL
MODEL 4
REMARK VINA RESULT:      -6.0     15.633     16.894
REMARK  8 active torsions:
REMARK  status: ('A' for Active; 'I' for Inactive)
REMARK    1  A    between atoms: N_4  and  C_7 
REMARK    2  A    between atoms: S_5  and  C_6 
REMARK    3  A    between atoms: C_6  and  C_7 
REMARK    4  A    between atoms: C_7  and  C_8 
REMARK       I    between atoms: C_8  and  N_9 
REMARK    5  A    between atoms: N_9  and  C_18 
REMARK    6  A    between atoms: C_18  and  C_20 
REMARK    7  A    between atoms: C_18  and  C_22 
REMARK    8  A    between atoms: C_22  and  C_23 
ROOT
HETATM    1  C           1     -19.960  -8.561  -4.956  0.00  0.00     0.249 C 
HETATM    2  N           1     -20.031  -7.994  -3.711  0.00  0.00    -0.344 N 
HETATM    3  O           1     -20.081  -7.872  -5.941  0.00  0.00    -0.271 OA
HETATM    4  H           1     -19.192  -7.650  -3.264  0.00  0.00     0.163 HD
ENDROOT
BRANCH   2   5
HETATM    5  C           1     -21.310  -7.888  -3.035  0.00  0.00     0.189 C 
BRANCH   5   6
HETATM    6  C           1     -21.749  -6.445  -3.014  0.00  0.00     0.197 C 
HETATM    7  O           1     -21.370  -5.663  -3.912  0.00  0.00    -0.646 OA
HETATM    8  O           1     -22.491  -6.031  -2.097  0.00  0.00    -0.646 OA
ENDBRANCH   5   6
BRANCH   5   9
HETATM    9  C           1     -21.172  -8.400  -1.607  0.00  0.00     0.074 C 
BRANCH   9  10
HETATM   10  C           1     -22.164  -9.497  -1.372  0.00  0.00    -0.056 A 
HETATM   11  C           1     -22.301 -10.524  -2.305  0.00  0.00     0.007 A 
HETATM   12  C           1     -23.226 -11.547  -2.086  0.00  0.00     0.001 A 
HETATM   13  C           1     -24.012 -11.540  -0.934  0.00  0.00     0.000 A 
HETATM   14  C           1     -23.874 -10.512  -0.001  0.00  0.00     0.001 A 
HETATM   15  C           1     -22.950  -9.490  -0.220  0.00  0.00     0.007 A 
ENDBRANCH   9  10
ENDBRANCH   5   9
ENDBRANCH   2   5
BRANCH   1  16
HETATM   16  C           1     -19.730 -10.046  -5.096  0.00  0.00     0.283 C 
BRANCH  16  17
HETATM   17  N           1     -20.761 -10.627  -6.016  0.00  0.00    -0.066 N 
HETATM   18  H           1     -21.170 -11.486  -5.584  0.00  0.00     0.275 HD
HETATM   19  H           1     -21.517  -9.925  -6.178  0.00  0.00     0.275 HD
HETATM   20  H           1     -20.314 -10.876  -6.928  0.00  0.00     0.275 HD
ENDBRANCH  16  17
BRANCH  16  21
HETATM   21  C           1     -18.340 -10.292  -5.671  0.00  0.00     0.113 C 
BRANCH  21  22
HETATM   22  S           1     -17.111 -10.220  -4.338  0.00  0.00    -0.180 SA
HETATM   23  H           1     -16.061  -9.940  -5.131  0.00  0.00     0.101 HD
ENDBRANCH  21  22
ENDBRANCH  16  21
ENDBRANCH   1  16
TORSDOF 8
ENDMDL
MODEL 5
REMARK VINA RESULT:      -6.0     16.374     18.298
REMARK  8 active torsions:
REMARK  status: ('A' for Active; 'I' for Inactive)
REMARK    1  A    between atoms: N_4  and  C_7 
REMARK    2  A    between atoms: S_5  and  C_6 
REMARK    3  A    between atoms: C_6  and  C_7 
REMARK    4  A    between atoms: C_7  and  C_8 
REMARK       I    between atoms: C_8  and  N_9 
REMARK    5  A    between atoms: N_9  and  C_18 
REMARK    6  A    between atoms: C_18  and  C_20 
REMARK    7  A    between atoms: C_18  and  C_22 
REMARK    8  A    between atoms: C_22  and  C_23 
ROOT
HETATM    1  C           1     -21.693  -6.810  -2.745  0.00  0.00     0.249 C 
HETATM    2  N           1     -21.069  -7.627  -1.840  0.00  0.00    -0.344 N 
HETATM    3  O           1     -22.121  -5.736  -2.394  0.00  0.00    -0.271 OA
HETATM    4  H           1     -20.070  -7.558  -1.702  0.00  0.00     0.163 HD
ENDROOT
BRANCH   2   5
HETATM    5  C           1     -21.843  -8.591  -1.082  0.00  0.00     0.189 C 
BRANCH   5   6
HETATM    6  C           1     -22.294  -7.965   0.215  0.00  0.00     0.197 C 
HETATM    7  O           1     -23.435  -7.463   0.302  0.00  0.00    -0.646 OA
HETATM    8  O           1     -21.527  -7.947   1.201  0.00  0.00    -0.646 OA
ENDBRANCH   5   6
BRANCH   5   9
HETATM    9  C           1     -20.981  -9.811  -0.784  0.00  0.00     0.074 C 
BRANCH   9  10
HETATM   10  C           1     -21.855 -10.942  -0.338  0.00  0.00    -0.056 A 
HETATM   11  C           1     -21.427 -11.794   0.680  0.00  0.00     0.007 A 
HETATM   12  C           1     -22.242 -12.848   1.095  0.00  0.00     0.001 A 
HETATM   13  C           1     -23.483 -13.050   0.491  0.00  0.00     0.000 A 
HETATM   14  C           1     -23.910 -12.197  -0.527  0.00  0.00     0.001 A 
HETATM   15  C           1     -23.096 -11.144  -0.942  0.00  0.00     0.007 A 
ENDBRANCH   9  10
ENDBRANCH   5   9
ENDBRANCH   2   5
BRANCH   1  16
HETATM   16  C           1     -21.845  -7.251  -4.180  0.00  0.00     0.283 C 
BRANCH  16  17
HETATM   17  N           1     -22.643  -6.231  -4.935  0.00  0.00    -0.066 N 
HETATM   18  H           1     -22.252  -6.124  -5.898  0.00  0.00     0.275 HD
HETATM   19  H           1     -23.637  -6.543  -4.995  0.00  0.00     0.275 HD
HETATM   20  H           1     -22.594  -5.312  -4.437  0.00  0.00     0.275 HD
ENDBRANCH  16  17
BRANCH  16  21
HETATM   21  C           1     -20.467  -7.390  -4.817  0.00  0.00     0.113 C 
BRANCH  21  22
HETATM   22  S           1     -20.289  -6.171  -6.149  0.00  0.00    -0.180 SA
HETATM   23  H           1     -21.490  -6.400  -6.710  0.00  0.00     0.101 HD
ENDBRANCH  21  22
ENDBRANCH  16  21
ENDBRANCH   1  16
TORSDOF 8
ENDMDL
MODEL 6
REMARK VINA RESULT:      -5.9     17.374     18.534
REMARK  8 active torsions:
REMARK  status: ('A' for Active; 'I' for Inactive)
REMARK    1  A    between atoms: N_4  and  C_7 
REMARK    2  A    between atoms: S_5  and  C_6 
REMARK    3  A    between atoms: C_6  and  C_7 
REMARK    4  A    between atoms: C_7  and  C_8 
REMARK       I    between atoms: C_8  and  N_9 
REMARK    5  A    between atoms: N_9  and  C_18 
REMARK    6  A    between atoms: C_18  and  C_20 
REMARK    7  A    between atoms: C_18  and  C_22 
REMARK    8  A    between atoms: C_22  and  C_23 
ROOT
HETATM    1  C           1     -19.612  -9.080  -3.106  0.00  0.00     0.249 C 
HETATM    2  N           1     -20.005  -8.167  -2.164  0.00  0.00    -0.344 N 
HETATM    3  O           1     -19.740  -8.829  -4.281  0.00  0.00    -0.271 OA
HETATM    4  H           1     -19.351  -7.474  -1.827  0.00  0.00     0.163 HD
ENDROOT
BRANCH   2   5
HETATM    5  C           1     -21.361  -8.196  -1.650  0.00  0.00     0.189 C 
BRANCH   5   6
HETATM    6  C           1     -21.991  -6.835  -1.819  0.00  0.00     0.197 C 
HETATM    7  O           1     -22.689  -6.352  -0.901  0.00  0.00    -0.646 OA
HETATM    8  O           1     -21.815  -6.191  -2.875  0.00  0.00    -0.646 OA
ENDBRANCH   5   6
BRANCH   5   9
HETATM    9  C           1     -21.336  -8.565  -0.172  0.00  0.00     0.074 C 
BRANCH   9  10
HETATM   10  C           1     -22.028  -9.878   0.026  0.00  0.00    -0.056 A 
HETATM   11  C           1     -23.383 -10.004  -0.275  0.00  0.00     0.007 A 
HETATM   12  C           1     -24.028 -11.228  -0.089  0.00  0.00     0.001 A 
HETATM   13  C           1     -23.316 -12.324   0.398  0.00  0.00     0.000 A 
HETATM   14  C           1     -21.960 -12.197   0.699  0.00  0.00     0.001 A 
HETATM   15  C           1     -21.315 -10.974   0.514  0.00  0.00     0.007 A 
ENDBRANCH   9  10
ENDBRANCH   5   9
ENDBRANCH   2   5
BRANCH   1  16
HETATM   16  C           1     -19.018 -10.399  -2.675  0.00  0.00     0.283 C 
BRANCH  16  17
HETATM   17  N           1     -20.035 -11.487  -2.854  0.00  0.00    -0.066 N 
HETATM   18  H           1     -19.993 -11.845  -3.834  0.00  0.00     0.275 HD
HETATM   19  H           1     -19.831 -12.266  -2.189  0.00  0.00     0.275 HD
HETATM   20  H           1     -20.990 -11.105  -2.664  0.00  0.00     0.275 HD
ENDBRANCH  16  17
BRANCH  16  21
HETATM   21  C           1     -17.792 -10.706  -3.526  0.00  0.00     0.113 C 
BRANCH  21  22
HETATM   22  S           1     -16.404  -9.669  -2.986  0.00  0.00    -0.180 SA
HETATM   23  H           1     -15.924  -9.424  -4.219  0.00  0.00     0.101 HD
ENDBRANCH  21  22
ENDBRANCH  16  21
ENDBRANCH   1  16
TORSDOF 8
ENDMDL
MODEL 7
REMARK VINA RESULT:      -5.9     15.305     17.597
REMARK  8 active torsions:
REMARK  status: ('A' for Active; 'I' for Inactive)
REMARK    1  A    between atoms: N_4  and  C_7 
REMARK    2  A    between atoms: S_5  and  C_6 
REMARK    3  A    between atoms: C_6  and  C_7 
REMARK    4  A    between atoms: C_7  and  C_8 
REMARK       I    between atoms: C_8  and  N_9 
REMARK    5  A    between atoms: N_9  and  C_18 
REMARK    6  A    between atoms: C_18  and  C_20 
REMARK    7  A    between atoms: C_18  and  C_22 
REMARK    8  A    between atoms: C_22  and  C_23 
ROOT
HETATM    1  C           1     -21.776  -7.030  -2.444  0.00  0.00     0.249 C 
HETATM    2  N           1     -21.701  -7.583  -3.695  0.00  0.00    -0.344 N 
HETATM    3  O           1     -22.105  -5.875  -2.313  0.00  0.00    -0.271 OA
HETATM    4  H           1     -22.512  -8.033  -4.098  0.00  0.00     0.163 HD
ENDROOT
BRANCH   2   5
HETATM    5  C           1     -20.459  -7.523  -4.441  0.00  0.00     0.189 C 
BRANCH   5   6
HETATM    6  C           1     -20.592  -6.518  -5.559  0.00  0.00     0.197 C 
HETATM    7  O           1     -20.752  -5.307  -5.295  0.00  0.00    -0.646 OA
HETATM    8  O           1     -20.543  -6.897  -6.749  0.00  0.00    -0.646 OA
ENDBRANCH   5   6
BRANCH   5   9
HETATM    9  C           1     -20.151  -8.896  -5.024  0.00  0.00     0.074 C 
BRANCH   9  10
HETATM   10  C           1     -18.730  -9.259  -4.722  0.00  0.00    -0.056 A 
HETATM   11  C           1     -18.282  -9.284  -3.402  0.00  0.00     0.007 A 
HETATM   12  C           1     -16.957  -9.623  -3.121  0.00  0.00     0.001 A 
HETATM   13  C           1     -16.082  -9.934  -4.162  0.00  0.00     0.000 A 
HETATM   14  C           1     -16.531  -9.909  -5.482  0.00  0.00     0.001 A 
HETATM   15  C           1     -17.855  -9.571  -5.763  0.00  0.00     0.007 A 
ENDBRANCH   9  10
ENDBRANCH   5   9
ENDBRANCH   2   5
BRANCH   1  16
HETATM   16  C           1     -21.446  -7.864  -1.231  0.00  0.00     0.283 C 
BRANCH  16  17
HETATM   17  N           1     -22.296  -7.423  -0.076  0.00  0.00    -0.066 N 
HETATM   18  H           1     -23.267  -7.233  -0.411  0.00  0.00     0.275 HD
HETATM   19  H           1     -22.318  -8.177   0.647  0.00  0.00     0.275 HD
HETATM   20  H           1     -21.894  -6.551   0.339  0.00  0.00     0.275 HD
ENDBRANCH  16  17
BRANCH  16  21
HETATM   21  C           1     -21.722  -9.331  -1.533  0.00  0.00     0.113 C 
BRANCH  21  22
HETATM   22  S           1     -22.987  -9.958  -0.392  0.00  0.00    -0.180 SA
HETATM   23  H           1     -23.577  -8.770  -0.171  0.00  0.00     0.101 HD
ENDBRANCH  21  22
ENDBRANCH  16  21
ENDBRANCH   1  16
TORSDOF 8
ENDMDL
MODEL 8
REMARK VINA RESULT:      -5.8      2.999      5.636
REMARK  8 active torsions:
REMARK  status: ('A' for Active; 'I' for Inactive)
REMARK    1  A    between atoms: N_4  and  C_7 
REMARK    2  A    between atoms: S_5  and  C_6 
REMARK    3  A    between atoms: C_6  and  C_7 
REMARK    4  A    between atoms: C_7  and  C_8 
REMARK       I    between atoms: C_8  and  N_9 
REMARK    5  A    between atoms: N_9  and  C_18 
REMARK    6  A    between atoms: C_18  and  C_20 
REMARK    7  A    between atoms: C_18  and  C_22 
REMARK    8  A    between atoms: C_22  and  C_23 
ROOT
HETATM    1  C           1     -29.112  -7.427 -16.906  0.00  0.00     0.249 C 
HETATM    2  N           1     -28.026  -6.850 -16.305  0.00  0.00    -0.344 N 
HETATM    3  O           1     -29.418  -8.564 -16.637  0.00  0.00    -0.271 OA
HETATM    4  H           1     -28.137  -6.346 -15.435  0.00  0.00     0.163 HD
ENDROOT
BRANCH   2   5
HETATM    5  C           1     -26.715  -6.962 -16.916  0.00  0.00     0.189 C 
BRANCH   5   6
HETATM    6  C           1     -25.657  -6.588 -15.907  0.00  0.00     0.197 C 
HETATM    7  O           1     -25.250  -7.437 -15.085  0.00  0.00    -0.646 OA
HETATM    8  O           1     -25.188  -5.430 -15.893  0.00  0.00    -0.646 OA
ENDBRANCH   5   6
BRANCH   5   9
HETATM    9  C           1     -26.631  -6.024 -18.112  0.00  0.00     0.074 C 
BRANCH   9  10
HETATM   10  C           1     -26.005  -6.741 -19.267  0.00  0.00    -0.056 A 
HETATM   11  C           1     -24.627  -6.951 -19.293  0.00  0.00     0.007 A 
HETATM   12  C           1     -24.043  -7.620 -20.370  0.00  0.00     0.001 A 
HETATM   13  C           1     -24.839  -8.078 -21.420  0.00  0.00     0.000 A 
HETATM   14  C           1     -26.218  -7.868 -21.393  0.00  0.00     0.001 A 
HETATM   15  C           1     -26.801  -7.200 -20.317  0.00  0.00     0.007 A 
ENDBRANCH   9  10
ENDBRANCH   5   9
ENDBRANCH   2   5
BRANCH   1  16
HETATM   16  C           1     -29.927  -6.641 -17.904  0.00  0.00     0.283 C 
BRANCH  16  17
HETATM   17  N           1     -30.905  -7.554 -18.581  0.00  0.00    -0.066 N 
HETATM   18  H           1     -30.387  -8.316 -19.074  0.00  0.00     0.275 HD
HETATM   19  H           1     -31.542  -7.972 -17.867  0.00  0.00     0.275 HD
HETATM   20  H           1     -31.467  -7.011 -19.275  0.00  0.00     0.275 HD
ENDBRANCH  16  17
BRANCH  16  21
HETATM   21  C           1     -30.684  -5.533 -17.181  0.00  0.00     0.113 C 
BRANCH  21  22
HETATM   22  S           1     -29.953  -3.926 -17.600  0.00  0.00    -0.180 SA
HETATM   23  H           1     -28.795  -4.124 -16.946  0.00  0.00     0.101 HD
ENDBRANCH  21  22
ENDBRANCH  16  21
ENDBRANCH   1  16
TORSDOF 8
ENDMDL
MODEL 9
REMARK VINA RESULT:      -5.6     15.159     16.710
REMARK  8 active torsions:
REMARK  status: ('A' for Active; 'I' for Inactive)
REMARK    1  A    between atoms: N_4  and  C_7 
REMARK    2  A    between atoms: S_5  and  C_6 
REMARK    3  A    between atoms: C_6  and  C_7 
REMARK    4  A    between atoms: C_7  and  C_8 
REMARK       I    between atoms: C_8  and  N_9 
REMARK    5  A    between atoms: N_9  and  C_18 
REMARK    6  A    between atoms: C_18  and  C_20 
REMARK    7  A    between atoms: C_18  and  C_22 
REMARK    8  A    between atoms: C_22  and  C_23 
ROOT
HETATM    1  C           1     -19.651  -8.582  -5.122  0.00  0.00     0.249 C 
HETATM    2  N           1     -19.810  -7.908  -3.941  0.00  0.00    -0.344 N 
HETATM    3  O           1     -19.457  -7.970  -6.146  0.00  0.00    -0.271 OA
HETATM    4  H           1     -19.006  -7.699  -3.365  0.00  0.00     0.163 HD
ENDROOT
BRANCH   2   5
HETATM    5  C           1     -21.134  -7.495  -3.516  0.00  0.00     0.189 C 
BRANCH   5   6
HETATM    6  C           1     -21.571  -6.299  -4.326  0.00  0.00     0.197 C 
HETATM    7  O           1     -20.766  -5.369  -4.551  0.00  0.00    -0.646 OA
HETATM    8  O           1     -22.737  -6.236  -4.770  0.00  0.00    -0.646 OA
ENDBRANCH   5   6
BRANCH   5   9
HETATM    9  C           1     -21.101  -7.125  -2.039  0.00  0.00     0.074 C 
BRANCH   9  10
HETATM   10  C           1     -21.949  -8.085  -1.265  0.00  0.00    -0.056 A 
HETATM   11  C           1     -22.629  -7.653  -0.127  0.00  0.00     0.007 A 
HETATM   12  C           1     -23.420  -8.549   0.595  0.00  0.00     0.001 A 
HETATM   13  C           1     -23.528  -9.876   0.178  0.00  0.00     0.000 A 
HETATM   14  C           1     -22.848 -10.306  -0.961  0.00  0.00     0.001 A 
HETATM   15  C           1     -22.057  -9.412  -1.682  0.00  0.00     0.007 A 
ENDBRANCH   9  10
ENDBRANCH   5   9
ENDBRANCH   2   5
BRANCH   1  16
HETATM   16  C           1     -19.716 -10.090  -5.144  0.00  0.00     0.283 C 
BRANCH  16  17
HETATM   17  N           1     -19.340 -10.626  -3.795  0.00  0.00    -0.066 N 
HETATM   18  H           1     -20.205 -10.809  -3.239  0.00  0.00     0.275 HD
HETATM   19  H           1     -18.806 -11.516  -3.912  0.00  0.00     0.275 HD
HETATM   20  H           1     -18.747  -9.925  -3.295  0.00  0.00     0.275 HD
ENDBRANCH  16  17
BRANCH  16  21
HETATM   21  C           1     -21.133 -10.531  -5.489  0.00  0.00     0.113 C 
BRANCH  21  22
HETATM   22  S           1     -21.068 -11.957  -6.610  0.00  0.00    -0.180 SA
HETATM   23  H           1     -22.091 -12.624  -6.048  0.00  0.00     0.101 HD
ENDBRANCH  21  22
ENDBRANCH  16  21
ENDBRANCH   1  16
TORSDOF 8
ENDMDL
