MODEL 1
REMARK VINA RESULT:      -5.5      0.000      0.000
REMARK  8 active torsions:
REMARK  status: ('A' for Active; 'I' for Inactive)
REMARK       I    between atoms: C_1  and  N_6 
REMARK    1  A    between atoms: C_1  and  C_15 
REMARK    2  A    between atoms: C_5  and  C_20 
REMARK    3  A    between atoms: N_6  and  C_20 
REMARK    4  A    between atoms: C_12  and  C_17 
REMARK    5  A    between atoms: S_13  and  C_14 
REMARK    6  A    between atoms: C_14  and  C_15 
REMARK    7  A    between atoms: C_15  and  N_16 
REMARK    8  A    between atoms: C_17  and  C_20 
ROOT
HETATM    1  C           1     -21.629  -4.601  -7.626  0.00  0.00     0.249 C 
HETATM    2  O           1     -21.452  -3.453  -7.294  0.00  0.00    -0.271 OA
HETATM    3  H           1     -22.431  -5.844  -9.072  0.00  0.00     0.163 HD
HETATM    4  N           1     -22.283  -4.882  -8.795  0.00  0.00    -0.344 N 
ENDROOT
BRANCH   1   5
HETATM    5  C           1     -21.128  -5.723  -6.752  0.00  0.00     0.283 C 
BRANCH   5   6
HETATM    6  C           1     -20.781  -5.179  -5.371  0.00  0.00     0.113 C 
BRANCH   6   7
HETATM    7  S           1     -21.407  -6.312  -4.099  0.00  0.00    -0.180 SA
HETATM    8  H           1     -22.480  -6.726  -4.796  0.00  0.00     0.101 HD
ENDBRANCH   6   7
ENDBRANCH   5   6
BRANCH   5   9
HETATM    9  N           1     -19.904  -6.332  -7.371  0.00  0.00    -0.066 N 
HETATM   10  H           1     -19.269  -5.573  -7.705  0.00  0.00     0.275 HD
HETATM   11  H           1     -19.408  -6.914  -6.659  0.00  0.00     0.275 HD
HETATM   12  H           1     -20.186  -6.931  -8.180  0.00  0.00     0.275 HD
ENDBRANCH   5   9
ENDBRANCH   1   5
BRANCH   4  13
HETATM   13  C           1     -22.763  -3.803  -9.635  0.00  0.00     0.195 C 
BRANCH  13  14
HETATM   14  C           1     -24.271  -3.836  -9.682  0.00  0.00     0.197 C 
HETATM   15  O           1     -24.925  -2.781  -9.536  0.00  0.00    -0.646 OA
HETATM   16  O           1     -24.868  -4.919  -9.868  0.00  0.00    -0.646 OA
ENDBRANCH  13  14
BRANCH  13  17
HETATM   17  C           1     -22.207  -3.970 -11.043  0.00  0.00     0.149 C 
BRANCH  17  18
HETATM   18  C           1     -20.710  -3.775 -11.020  0.00  0.00     0.175 C 
HETATM   19  O           1     -19.960  -4.731 -10.730  0.00  0.00    -0.648 OA
HETATM   20  O           1     -20.222  -2.657 -11.291  0.00  0.00    -0.648 OA
ENDBRANCH  17  18
ENDBRANCH  13  17
ENDBRANCH   4  13
TORSDOF 8
ENDMDL
MODEL 2
REMARK VINA RESULT:      -5.3      1.571      3.160
REMARK  8 active torsions:
REMARK  status: ('A' for Active; 'I' for Inactive)
REMARK       I    between atoms: C_1  and  N_6 
REMARK    1  A    between atoms: C_1  and  C_15 
REMARK    2  A    between atoms: C_5  and  C_20 
REMARK    3  A    between atoms: N_6  and  C_20 
REMARK    4  A    between atoms: C_12  and  C_17 
REMARK    5  A    between atoms: S_13  and  C_14 
REMARK    6  A    between atoms: C_14  and  C_15 
REMARK    7  A    between atoms: C_15  and  N_16 
REMARK    8  A    between atoms: C_17  and  C_20 
ROOT
HETATM    1  C           1     -21.127  -4.462  -8.502  0.00  0.00     0.249 C 
HETATM    2  O           1     -20.215  -5.195  -8.800  0.00  0.00    -0.271 OA
HETATM    3  H           1     -22.812  -3.480  -9.195  0.00  0.00     0.163 HD
HETATM    4  N           1     -22.048  -4.094  -9.446  0.00  0.00    -0.344 N 
ENDROOT
BRANCH   1   5
HETATM    5  C           1     -21.253  -3.953  -7.087  0.00  0.00     0.283 C 
BRANCH   5   6
HETATM    6  C           1     -20.207  -4.628  -6.208  0.00  0.00     0.113 C 
BRANCH   6   7
HETATM    7  S           1     -21.014  -5.860  -5.147  0.00  0.00    -0.180 SA
HETATM    8  H           1     -21.174  -6.788  -6.106  0.00  0.00     0.101 HD
ENDBRANCH   6   7
ENDBRANCH   5   6
BRANCH   5   9
HETATM    9  N           1     -22.623  -4.265  -6.563  0.00  0.00    -0.066 N 
HETATM   10  H           1     -23.244  -4.545  -7.355  0.00  0.00     0.275 HD
HETATM   11  H           1     -22.562  -5.048  -5.874  0.00  0.00     0.275 HD
HETATM   12  H           1     -23.018  -3.417  -6.095  0.00  0.00     0.275 HD
ENDBRANCH   5   9
ENDBRANCH   1   5
BRANCH   4  13
HETATM   13  C           1     -21.928  -4.585 -10.805  0.00  0.00     0.195 C 
BRANCH  13  14
HETATM   14  C           1     -21.278  -3.528 -11.664  0.00  0.00     0.197 C 
HETATM   15  O           1     -20.364  -2.814 -11.194  0.00  0.00    -0.646 OA
HETATM   16  O           1     -21.652  -3.364 -12.846  0.00  0.00    -0.646 OA
ENDBRANCH  13  14
BRANCH  13  17
HETATM   17  C           1     -23.312  -4.904 -11.353  0.00  0.00     0.149 C 
BRANCH  17  18
HETATM   18  C           1     -24.353  -4.151 -10.562  0.00  0.00     0.175 C 
HETATM   19  O           1     -25.000  -4.733  -9.665  0.00  0.00    -0.648 OA
HETATM   20  O           1     -24.568  -2.944 -10.804  0.00  0.00    -0.648 OA
ENDBRANCH  17  18
ENDBRANCH  13  17
ENDBRANCH   4  13
TORSDOF 8
ENDMDL
MODEL 3
REMARK VINA RESULT:      -4.8      1.826      3.326
REMARK  8 active torsions:
REMARK  status: ('A' for Active; 'I' for Inactive)
REMARK       I    between atoms: C_1  and  N_6 
REMARK    1  A    between atoms: C_1  and  C_15 
REMARK    2  A    between atoms: C_5  and  C_20 
REMARK    3  A    between atoms: N_6  and  C_20 
REMARK    4  A    between atoms: C_12  and  C_17 
REMARK    5  A    between atoms: S_13  and  C_14 
REMARK    6  A    between atoms: C_14  and  C_15 
REMARK    7  A    between atoms: C_15  and  N_16 
REMARK    8  A    between atoms: C_17  and  C_20 
ROOT
HETATM    1  C           1     -21.431  -5.801  -6.682  0.00  0.00     0.249 C 
HETATM    2  O           1     -20.949  -6.674  -7.365  0.00  0.00    -0.271 OA
HETATM    3  H           1     -22.427  -3.988  -6.700  0.00  0.00     0.163 HD
HETATM    4  N           1     -22.024  -4.719  -7.273  0.00  0.00    -0.344 N 
ENDROOT
BRANCH   1   5
HETATM    5  C           1     -21.380  -5.907  -5.178  0.00  0.00     0.283 C 
BRANCH   5   6
HETATM    6  C           1     -20.465  -7.059  -4.779  0.00  0.00     0.113 C 
BRANCH   6   7
HETATM    7  S           1     -21.146  -7.893  -3.319  0.00  0.00    -0.180 SA
HETATM    8  H           1     -22.426  -7.876  -3.731  0.00  0.00     0.101 HD
ENDBRANCH   6   7
ENDBRANCH   5   6
BRANCH   5   9
HETATM    9  N           1     -22.760  -6.159  -4.647  0.00  0.00    -0.066 N 
HETATM   10  H           1     -22.702  -6.436  -3.642  0.00  0.00     0.275 HD
HETATM   11  H           1     -23.330  -5.288  -4.736  0.00  0.00     0.275 HD
HETATM   12  H           1     -23.208  -6.928  -5.195  0.00  0.00     0.275 HD
ENDBRANCH   5   9
ENDBRANCH   1   5
BRANCH   4  13
HETATM   13  C           1     -22.074  -4.618  -8.718  0.00  0.00     0.195 C 
BRANCH  13  14
HETATM   14  C           1     -20.709  -4.247  -9.243  0.00  0.00     0.197 C 
HETATM   15  O           1     -19.904  -3.629  -8.512  0.00  0.00    -0.646 OA
HETATM   16  O           1     -20.382  -4.555 -10.410  0.00  0.00    -0.646 OA
ENDBRANCH  13  14
BRANCH  13  17
HETATM   17  C           1     -23.081  -3.546  -9.117  0.00  0.00     0.149 C 
BRANCH  17  18
HETATM   18  C           1     -23.984  -4.083 -10.201  0.00  0.00     0.175 C 
HETATM   19  O           1     -24.843  -3.340 -10.724  0.00  0.00    -0.648 OA
HETATM   20  O           1     -23.874  -5.270 -10.575  0.00  0.00    -0.648 OA
ENDBRANCH  17  18
ENDBRANCH  13  17
ENDBRANCH   4  13
TORSDOF 8
ENDMDL
MODEL 4
REMARK VINA RESULT:      -4.7      3.101      5.703
REMARK  8 active torsions:
REMARK  status: ('A' for Active; 'I' for Inactive)
REMARK       I    between atoms: C_1  and  N_6 
REMARK    1  A    between atoms: C_1  and  C_15 
REMARK    2  A    between atoms: C_5  and  C_20 
REMARK    3  A    between atoms: N_6  and  C_20 
REMARK    4  A    between atoms: C_12  and  C_17 
REMARK    5  A    between atoms: S_13  and  C_14 
REMARK    6  A    between atoms: C_14  and  C_15 
REMARK    7  A    between atoms: C_15  and  N_16 
REMARK    8  A    between atoms: C_17  and  C_20 
ROOT
HETATM    1  C           1     -22.317  -4.237  -8.129  0.00  0.00     0.249 C 
HETATM    2  O           1     -21.941  -3.233  -7.571  0.00  0.00    -0.271 OA
HETATM    3  H           1     -22.218  -6.304  -8.152  0.00  0.00     0.163 HD
HETATM    4  N           1     -21.903  -5.463  -7.684  0.00  0.00    -0.344 N 
ENDROOT
BRANCH   1   5
HETATM    5  C           1     -23.245  -4.137  -9.314  0.00  0.00     0.283 C 
BRANCH   5   6
HETATM    6  C           1     -22.591  -3.297 -10.404  0.00  0.00     0.113 C 
BRANCH   6   7
HETATM    7  S           1     -21.661  -4.379 -11.525  0.00  0.00    -0.180 SA
HETATM    8  H           1     -22.574  -4.376 -12.512  0.00  0.00     0.101 HD
ENDBRANCH   6   7
ENDBRANCH   5   6
BRANCH   5   9
HETATM    9  N           1     -24.531  -3.491  -8.890  0.00  0.00    -0.066 N 
HETATM   10  H           1     -25.305  -3.815  -9.511  0.00  0.00     0.275 HD
HETATM   11  H           1     -24.743  -3.756  -7.901  0.00  0.00     0.275 HD
HETATM   12  H           1     -24.438  -2.452  -8.962  0.00  0.00     0.275 HD
ENDBRANCH   5   9
ENDBRANCH   1   5
BRANCH   4  13
HETATM   13  C           1     -21.012  -5.559  -6.544  0.00  0.00     0.195 C 
BRANCH  13  14
HETATM   14  C           1     -19.596  -5.755  -7.028  0.00  0.00     0.197 C 
HETATM   15  O           1     -18.895  -4.765  -7.328  0.00  0.00    -0.646 OA
HETATM   16  O           1     -19.124  -6.908  -7.131  0.00  0.00    -0.646 OA
ENDBRANCH  13  14
BRANCH  13  17
HETATM   17  C           1     -21.422  -6.742  -5.678  0.00  0.00     0.149 C 
BRANCH  17  18
HETATM   18  C           1     -22.510  -6.315  -4.723  0.00  0.00     0.175 C 
HETATM   19  O           1     -23.646  -6.027  -5.158  0.00  0.00    -0.648 OA
HETATM   20  O           1     -22.274  -6.249  -3.498  0.00  0.00    -0.648 OA
ENDBRANCH  17  18
ENDBRANCH  13  17
ENDBRANCH   4  13
TORSDOF 8
ENDMDL
MODEL 5
REMARK VINA RESULT:      -4.7      4.241      6.525
REMARK  8 active torsions:
REMARK  status: ('A' for Active; 'I' for Inactive)
REMARK       I    between atoms: C_1  and  N_6 
REMARK    1  A    between atoms: C_1  and  C_15 
REMARK    2  A    between atoms: C_5  and  C_20 
REMARK    3  A    between atoms: N_6  and  C_20 
REMARK    4  A    between atoms: C_12  and  C_17 
REMARK    5  A    between atoms: S_13  and  C_14 
REMARK    6  A    between atoms: C_14  and  C_15 
REMARK    7  A    between atoms: C_15  and  N_16 
REMARK    8  A    between atoms: C_17  and  C_20 
ROOT
HETATM    1  C           1     -21.392  -5.830  -5.590  0.00  0.00     0.249 C 
HETATM    2  O           1     -22.588  -5.661  -5.611  0.00  0.00    -0.271 OA
HETATM    3  H           1     -19.841  -6.876  -4.705  0.00  0.00     0.163 HD
HETATM    4  N           1     -20.843  -6.736  -4.723  0.00  0.00    -0.344 N 
ENDROOT
BRANCH   1   5
HETATM    5  C           1     -20.504  -5.043  -6.521  0.00  0.00     0.283 C 
BRANCH   5   6
HETATM    6  C           1     -21.307  -3.916  -7.160  0.00  0.00     0.113 C 
BRANCH   6   7
HETATM    7  S           1     -21.674  -4.339  -8.886  0.00  0.00    -0.180 SA
HETATM    8  H           1     -21.908  -5.644  -8.664  0.00  0.00     0.101 HD
ENDBRANCH   6   7
ENDBRANCH   5   6
BRANCH   5   9
HETATM    9  N           1     -19.975  -5.950  -7.593  0.00  0.00    -0.066 N 
HETATM   10  H           1     -20.482  -5.765  -8.487  0.00  0.00     0.275 HD
HETATM   11  H           1     -18.955  -5.770  -7.728  0.00  0.00     0.275 HD
HETATM   12  H           1     -20.121  -6.945  -7.309  0.00  0.00     0.275 HD
ENDBRANCH   5   9
ENDBRANCH   1   5
BRANCH   4  13
HETATM   13  C           1     -21.697  -7.493  -3.828  0.00  0.00     0.195 C 
BRANCH  13  14
HETATM   14  C           1     -21.628  -6.897  -2.444  0.00  0.00     0.197 C 
HETATM   15  O           1     -22.284  -5.868  -2.172  0.00  0.00    -0.646 OA
HETATM   16  O           1     -20.914  -7.431  -1.567  0.00  0.00    -0.646 OA
ENDBRANCH  13  14
BRANCH  13  17
HETATM   17  C           1     -21.227  -8.940  -3.783  0.00  0.00     0.149 C 
BRANCH  17  18
HETATM   18  C           1     -19.928  -9.072  -4.540  0.00  0.00     0.175 C 
HETATM   19  O           1     -19.942  -9.318  -5.766  0.00  0.00    -0.648 OA
HETATM   20  O           1     -18.840  -8.935  -3.942  0.00  0.00    -0.648 OA
ENDBRANCH  17  18
ENDBRANCH  13  17
ENDBRANCH   4  13
TORSDOF 8
ENDMDL
MODEL 6
REMARK VINA RESULT:      -4.5      4.112      6.708
REMARK  8 active torsions:
REMARK  status: ('A' for Active; 'I' for Inactive)
REMARK       I    between atoms: C_1  and  N_6 
REMARK    1  A    between atoms: C_1  and  C_15 
REMARK    2  A    between atoms: C_5  and  C_20 
REMARK    3  A    between atoms: N_6  and  C_20 
REMARK    4  A    between atoms: C_12  and  C_17 
REMARK    5  A    between atoms: S_13  and  C_14 
REMARK    6  A    between atoms: C_14  and  C_15 
REMARK    7  A    between atoms: C_15  and  N_16 
REMARK    8  A    between atoms: C_17  and  C_20 
ROOT
HETATM    1  C           1     -20.888  -5.541  -6.492  0.00  0.00     0.249 C 
HETATM    2  O           1     -20.547  -4.774  -5.623  0.00  0.00    -0.271 OA
HETATM    3  H           1     -21.155  -7.531  -6.990  0.00  0.00     0.163 HD
HETATM    4  N           1     -20.869  -6.890  -6.262  0.00  0.00    -0.344 N 
ENDROOT
BRANCH   1   5
HETATM    5  C           1     -21.337  -5.009  -7.830  0.00  0.00     0.283 C 
BRANCH   5   6
HETATM    6  C           1     -20.124  -4.553  -8.631  0.00  0.00     0.113 C 
BRANCH   6   7
HETATM    7  S           1     -20.621  -4.218 -10.344  0.00  0.00    -0.180 SA
HETATM    8  H           1     -21.204  -5.412 -10.557  0.00  0.00     0.101 HD
ENDBRANCH   6   7
ENDBRANCH   5   6
BRANCH   5   9
HETATM    9  N           1     -22.264  -3.847  -7.622  0.00  0.00    -0.066 N 
HETATM   10  H           1     -21.811  -3.150  -6.989  0.00  0.00     0.275 HD
HETATM   11  H           1     -22.471  -3.399  -8.543  0.00  0.00     0.275 HD
HETATM   12  H           1     -23.153  -4.185  -7.189  0.00  0.00     0.275 HD
ENDBRANCH   5   9
ENDBRANCH   1   5
BRANCH   4  13
HETATM   13  C           1     -20.438  -7.400  -4.975  0.00  0.00     0.195 C 
BRANCH  13  14
HETATM   14  C           1     -19.611  -8.645  -5.180  0.00  0.00     0.197 C 
HETATM   15  O           1     -19.717  -9.604  -4.384  0.00  0.00    -0.646 OA
HETATM   16  O           1     -18.819  -8.720  -6.145  0.00  0.00    -0.646 OA
ENDBRANCH  13  14
BRANCH  13  17
HETATM   17  C           1     -21.658  -7.733  -4.127  0.00  0.00     0.149 C 
BRANCH  17  18
HETATM   18  C           1     -21.598  -6.960  -2.832  0.00  0.00     0.175 C 
HETATM   19  O           1     -20.784  -7.292  -1.943  0.00  0.00    -0.648 OA
HETATM   20  O           1     -22.362  -5.989  -2.649  0.00  0.00    -0.648 OA
ENDBRANCH  17  18
ENDBRANCH  13  17
ENDBRANCH   4  13
TORSDOF 8
ENDMDL
MODEL 7
REMARK VINA RESULT:      -4.5      6.117      8.733
REMARK  8 active torsions:
REMARK  status: ('A' for Active; 'I' for Inactive)
REMARK       I    between atoms: C_1  and  N_6 
REMARK    1  A    between atoms: C_1  and  C_15 
REMARK    2  A    between atoms: C_5  and  C_20 
REMARK    3  A    between atoms: N_6  and  C_20 
REMARK    4  A    between atoms: C_12  and  C_17 
REMARK    5  A    between atoms: S_13  and  C_14 
REMARK    6  A    between atoms: C_14  and  C_15 
REMARK    7  A    between atoms: C_15  and  N_16 
REMARK    8  A    between atoms: C_17  and  C_20 
ROOT
HETATM    1  C           1     -20.892  -8.095  -3.756  0.00  0.00     0.249 C 
HETATM    2  O           1     -19.705  -8.309  -3.692  0.00  0.00    -0.271 OA
HETATM    3  H           1     -22.705  -8.283  -2.777  0.00  0.00     0.163 HD
HETATM    4  N           1     -21.711  -8.462  -2.723  0.00  0.00    -0.344 N 
ENDROOT
BRANCH   1   5
HETATM    5  C           1     -21.472  -7.422  -4.975  0.00  0.00     0.283 C 
BRANCH   5   6
HETATM    6  C           1     -20.346  -6.832  -5.816  0.00  0.00     0.113 C 
BRANCH   6   7
HETATM    7  S           1     -20.422  -5.021  -5.744  0.00  0.00    -0.180 SA
HETATM    8  H           1     -21.607  -4.956  -5.110  0.00  0.00     0.101 HD
ENDBRANCH   6   7
ENDBRANCH   5   6
BRANCH   5   9
HETATM    9  N           1     -22.402  -6.325  -4.547  0.00  0.00    -0.066 N 
HETATM   10  H           1     -21.988  -5.814  -3.736  0.00  0.00     0.275 HD
HETATM   11  H           1     -22.545  -5.661  -5.341  0.00  0.00     0.275 HD
HETATM   12  H           1     -23.320  -6.738  -4.266  0.00  0.00     0.275 HD
ENDBRANCH   5   9
ENDBRANCH   1   5
BRANCH   4  13
HETATM   13  C           1     -21.153  -9.108  -1.550  0.00  0.00     0.195 C 
BRANCH  13  14
HETATM   14  C           1     -21.965 -10.338  -1.221  0.00  0.00     0.197 C 
HETATM   15  O           1     -22.672 -10.875  -2.102  0.00  0.00    -0.646 OA
HETATM   16  O           1     -21.931 -10.820  -0.068  0.00  0.00    -0.646 OA
ENDBRANCH  13  14
BRANCH  13  17
HETATM   17  C           1     -21.192  -8.144  -0.373  0.00  0.00     0.149 C 
BRANCH  17  18
HETATM   18  C           1     -22.421  -7.274  -0.475  0.00  0.00     0.175 C 
HETATM   19  O           1     -23.463  -7.589   0.140  0.00  0.00    -0.648 OA
HETATM   20  O           1     -22.397  -6.238  -1.173  0.00  0.00    -0.648 OA
ENDBRANCH  17  18
ENDBRANCH  13  17
ENDBRANCH   4  13
TORSDOF 8
ENDMDL
MODEL 8
REMARK VINA RESULT:      -4.4      3.609      6.041
REMARK  8 active torsions:
REMARK  status: ('A' for Active; 'I' for Inactive)
REMARK       I    between atoms: C_1  and  N_6 
REMARK    1  A    between atoms: C_1  and  C_15 
REMARK    2  A    between atoms: C_5  and  C_20 
REMARK    3  A    between atoms: N_6  and  C_20 
REMARK    4  A    between atoms: C_12  and  C_17 
REMARK    5  A    between atoms: S_13  and  C_14 
REMARK    6  A    between atoms: C_14  and  C_15 
REMARK    7  A    between atoms: C_15  and  N_16 
REMARK    8  A    between atoms: C_17  and  C_20 
ROOT
HETATM    1  C           1     -21.502  -4.383  -7.236  0.00  0.00     0.249 C 
HETATM    2  O           1     -20.441  -3.969  -6.832  0.00  0.00    -0.271 OA
HETATM    3  H           1     -22.985  -5.801  -6.965  0.00  0.00     0.163 HD
HETATM    4  N           1     -22.096  -5.454  -6.626  0.00  0.00    -0.344 N 
ENDROOT
BRANCH   1   5
HETATM    5  C           1     -22.172  -3.716  -8.412  0.00  0.00     0.283 C 
BRANCH   5   6
HETATM    6  C           1     -23.634  -4.140  -8.473  0.00  0.00     0.113 C 
BRANCH   6   7
HETATM    7  S           1     -24.378  -3.526 -10.010  0.00  0.00    -0.180 SA
HETATM    8  H           1     -24.020  -2.241  -9.835  0.00  0.00     0.101 HD
ENDBRANCH   6   7
ENDBRANCH   5   6
BRANCH   5   9
HETATM    9  N           1     -21.480  -4.124  -9.679  0.00  0.00    -0.066 N 
HETATM   10  H           1     -21.553  -3.352 -10.379  0.00  0.00     0.275 HD
HETATM   11  H           1     -20.473  -4.318  -9.478  0.00  0.00     0.275 HD
HETATM   12  H           1     -21.934  -4.984 -10.062  0.00  0.00     0.275 HD
ENDBRANCH   5   9
ENDBRANCH   1   5
BRANCH   4  13
HETATM   13  C           1     -21.452  -6.094  -5.496  0.00  0.00     0.195 C 
BRANCH  13  14
HETATM   14  C           1     -20.661  -7.286  -5.977  0.00  0.00     0.197 C 
HETATM   15  O           1     -19.489  -7.134  -6.387  0.00  0.00    -0.646 OA
HETATM   16  O           1     -21.176  -8.425  -5.966  0.00  0.00    -0.646 OA
ENDBRANCH  13  14
BRANCH  13  17
HETATM   17  C           1     -22.511  -6.555  -4.503  0.00  0.00     0.149 C 
BRANCH  17  18
HETATM   18  C           1     -21.910  -6.624  -3.121  0.00  0.00     0.175 C 
HETATM   19  O           1     -21.515  -7.719  -2.665  0.00  0.00    -0.648 OA
HETATM   20  O           1     -21.806  -5.587  -2.432  0.00  0.00    -0.648 OA
ENDBRANCH  17  18
ENDBRANCH  13  17
ENDBRANCH   4  13
TORSDOF 8
ENDMDL
MODEL 9
REMARK VINA RESULT:      -4.2      8.164      9.668
REMARK  8 active torsions:
REMARK  status: ('A' for Active; 'I' for Inactive)
REMARK       I    between atoms: C_1  and  N_6 
REMARK    1  A    between atoms: C_1  and  C_15 
REMARK    2  A    between atoms: C_5  and  C_20 
REMARK    3  A    between atoms: N_6  and  C_20 
REMARK    4  A    between atoms: C_12  and  C_17 
REMARK    5  A    between atoms: S_13  and  C_14 
REMARK    6  A    between atoms: C_14  and  C_15 
REMARK    7  A    between atoms: C_15  and  N_16 
REMARK    8  A    between atoms: C_17  and  C_20 
ROOT
HETATM    1  C           1     -21.417 -10.418   0.361  0.00  0.00     0.249 C 
HETATM    2  O           1     -20.739 -10.017   1.277  0.00  0.00    -0.271 OA
HETATM    3  H           1     -22.310  -9.917  -1.436  0.00  0.00     0.163 HD
HETATM    4  N           1     -21.742  -9.580  -0.670  0.00  0.00    -0.344 N 
ENDROOT
BRANCH   1   5
HETATM    5  C           1     -21.905 -11.846   0.356  0.00  0.00     0.283 C 
BRANCH   5   6
HETATM    6  C           1     -21.300 -12.586  -0.831  0.00  0.00     0.113 C 
BRANCH   6   7
HETATM    7  S           1     -22.591 -12.903  -2.067  0.00  0.00    -0.180 SA
HETATM    8  H           1     -23.442 -13.518  -1.227  0.00  0.00     0.101 HD
ENDBRANCH   6   7
ENDBRANCH   5   6
BRANCH   5   9
HETATM    9  N           1     -23.401 -11.863   0.246  0.00  0.00    -0.066 N 
HETATM   10  H           1     -23.810 -11.209   0.949  0.00  0.00     0.275 HD
HETATM   11  H           1     -23.682 -11.563  -0.715  0.00  0.00     0.275 HD
HETATM   12  H           1     -23.751 -12.832   0.426  0.00  0.00     0.275 HD
ENDBRANCH   5   9
ENDBRANCH   1   5
BRANCH   4  13
HETATM   13  C           1     -21.272  -8.208  -0.665  0.00  0.00     0.195 C 
BRANCH  13  14
HETATM   14  C           1     -22.455  -7.273  -0.609  0.00  0.00     0.197 C 
HETATM   15  O           1     -22.525  -6.305  -1.397  0.00  0.00    -0.646 OA
HETATM   16  O           1     -23.366  -7.464   0.227  0.00  0.00    -0.646 OA
ENDBRANCH  13  14
BRANCH  13  17
HETATM   17  C           1     -20.473  -7.941  -1.933  0.00  0.00     0.149 C 
BRANCH  17  18
HETATM   18  C           1     -20.702  -9.061  -2.918  0.00  0.00     0.175 C 
HETATM   19  O           1     -21.688  -9.027  -3.686  0.00  0.00    -0.648 OA
HETATM   20  O           1     -19.906 -10.023  -2.966  0.00  0.00    -0.648 OA
ENDBRANCH  17  18
ENDBRANCH  13  17
ENDBRANCH   4  13
TORSDOF 8
ENDMDL
