MODEL 1
REMARK VINA RESULT:      -6.0      0.000      0.000
REMARK  10 active torsions:
REMARK  status: ('A' for Active; 'I' for Inactive)
REMARK    1  A    between atoms: C_3  and  C_4 
REMARK    2  A    between atoms: C_3  and  C_18 
REMARK    3  A    between atoms: C_4  and  C_22 
REMARK    4  A    between atoms: C_5  and  C_6 
REMARK    5  A    between atoms: C_5  and  O_10 
REMARK    6  A    between atoms: C_6  and  C_12 
REMARK    7  A    between atoms: C_6  and  N_7 
REMARK    8  A    between atoms: N_9  and  C_22 
REMARK       I    between atoms: C_12  and  N_17 
REMARK    9  A    between atoms: N_17  and  C_18 
REMARK   10  A    between atoms: C_18  and  C_23 
ROOT
HETATM    1  H           1     -28.016  -6.987 -20.048  0.00  0.00     0.163 HD
HETATM    2  C           1     -26.350  -6.606 -18.881  0.00  0.00     0.251 C 
HETATM    3  N           1     -27.692  -6.688 -19.137  0.00  0.00    -0.345 N 
HETATM    4  O           1     -25.963  -6.249 -17.794  0.00  0.00    -0.271 OA
ENDROOT
BRANCH   3   5
HETATM    5  C           1     -28.650  -6.346 -18.103  0.00  0.00     0.185 C 
BRANCH   5   6
HETATM    6  C           1     -29.158  -4.930 -18.332  0.00  0.00     0.038 C 
BRANCH   6   7
HETATM    7  C           1     -28.621  -4.015 -17.239  0.00  0.00     0.030 C 
BRANCH   7   8
HETATM    8  C           1     -29.352  -2.678 -17.291  0.00  0.00     0.230 C 
BRANCH   8   9
HETATM    9  N           1     -30.782  -2.904 -17.682  0.00  0.00    -0.079 N 
HETATM   10  H           1     -30.883  -2.787 -18.715  0.00  0.00     0.274 HD
HETATM   11  H           1     -31.391  -2.210 -17.193  0.00  0.00     0.274 HD
HETATM   12  H           1     -31.069  -3.872 -17.411  0.00  0.00     0.274 HD
ENDBRANCH   8   9
ENDBRANCH   7   8
ENDBRANCH   6   7
ENDBRANCH   5   6
BRANCH   5  13
HETATM   13  C           1     -29.809  -7.312 -18.153  0.00  0.00     0.196 C 
HETATM   14  O           1     -30.834  -7.092 -17.474  0.00  0.00    -0.646 OA
HETATM   15  O           1     -29.743  -8.330 -18.875  0.00  0.00    -0.646 OA
ENDBRANCH   5  13
ENDBRANCH   3   5
BRANCH   2  16
HETATM   16  C           1     -25.353  -6.962 -19.956  0.00  0.00     0.297 C 
BRANCH  16  17
HETATM   17  C           1     -26.009  -7.886 -20.974  0.00  0.00     0.206 C 
BRANCH  17  18
HETATM   18  O           1     -25.018  -8.554 -21.707  0.00  0.00    -0.398 OA
HETATM   19  H           1     -24.553  -7.899 -22.197  0.00  0.00     0.209 HD
ENDBRANCH  17  18
ENDBRANCH  16  17
BRANCH  16  20
HETATM   20  N           1     -24.177  -7.657 -19.337  0.00  0.00    -0.064 N 
HETATM   21  H           1     -23.527  -6.948 -18.929  0.00  0.00     0.275 HD
HETATM   22  H           1     -24.511  -8.298 -18.580  0.00  0.00     0.275 HD
HETATM   23  H           1     -23.676  -8.211 -20.067  0.00  0.00     0.275 HD
ENDBRANCH  16  20
ENDBRANCH   2  16
TORSDOF 10
ENDMDL
MODEL 2
REMARK VINA RESULT:      -5.9      1.845      2.249
REMARK  10 active torsions:
REMARK  status: ('A' for Active; 'I' for Inactive)
REMARK    1  A    between atoms: C_3  and  C_4 
REMARK    2  A    between atoms: C_3  and  C_18 
REMARK    3  A    between atoms: C_4  and  C_22 
REMARK    4  A    between atoms: C_5  and  C_6 
REMARK    5  A    between atoms: C_5  and  O_10 
REMARK    6  A    between atoms: C_6  and  C_12 
REMARK    7  A    between atoms: C_6  and  N_7 
REMARK    8  A    between atoms: N_9  and  C_22 
REMARK       I    between atoms: C_12  and  N_17 
REMARK    9  A    between atoms: N_17  and  C_18 
REMARK   10  A    between atoms: C_18  and  C_23 
ROOT
HETATM    1  H           1     -27.901  -6.450 -18.777  0.00  0.00     0.163 HD
HETATM    2  C           1     -25.861  -6.672 -19.044  0.00  0.00     0.251 C 
HETATM    3  N           1     -26.991  -6.337 -18.349  0.00  0.00    -0.345 N 
HETATM    4  O           1     -24.775  -6.538 -18.533  0.00  0.00    -0.271 OA
ENDROOT
BRANCH   3   5
HETATM    5  C           1     -26.884  -5.819 -16.999  0.00  0.00     0.185 C 
BRANCH   5   6
HETATM    6  C           1     -27.958  -4.764 -16.774  0.00  0.00     0.038 C 
BRANCH   6   7
HETATM    7  C           1     -28.874  -4.703 -17.989  0.00  0.00     0.030 C 
BRANCH   7   8
HETATM    8  C           1     -30.307  -4.456 -17.534  0.00  0.00     0.230 C 
BRANCH   8   9
HETATM    9  N           1     -30.636  -3.000 -17.687  0.00  0.00    -0.079 N 
HETATM   10  H           1     -31.117  -2.660 -16.824  0.00  0.00     0.274 HD
HETATM   11  H           1     -31.267  -2.870 -18.510  0.00  0.00     0.274 HD
HETATM   12  H           1     -29.755  -2.457 -17.833  0.00  0.00     0.274 HD
ENDBRANCH   8   9
ENDBRANCH   7   8
ENDBRANCH   6   7
ENDBRANCH   5   6
BRANCH   5  13
HETATM   13  C           1     -27.072  -6.946 -16.012  0.00  0.00     0.196 C 
HETATM   14  O           1     -28.213  -7.411 -15.804  0.00  0.00    -0.646 OA
HETATM   15  O           1     -26.085  -7.415 -15.404  0.00  0.00    -0.646 OA
ENDBRANCH   5  13
ENDBRANCH   3   5
BRANCH   2  16
HETATM   16  C           1     -25.972  -7.211 -20.449  0.00  0.00     0.297 C 
BRANCH  16  17
HETATM   17  C           1     -27.343  -7.845 -20.646  0.00  0.00     0.206 C 
BRANCH  17  18
HETATM   18  O           1     -27.245  -8.895 -21.570  0.00  0.00    -0.398 OA
HETATM   19  H           1     -27.705  -9.628 -21.200  0.00  0.00     0.209 HD
ENDBRANCH  17  18
ENDBRANCH  16  17
BRANCH  16  20
HETATM   20  N           1     -24.908  -8.245 -20.673  0.00  0.00    -0.064 N 
HETATM   21  H           1     -24.519  -8.144 -21.638  0.00  0.00     0.275 HD
HETATM   22  H           1     -24.143  -8.113 -19.973  0.00  0.00     0.275 HD
HETATM   23  H           1     -25.321  -9.199 -20.562  0.00  0.00     0.275 HD
ENDBRANCH  16  20
ENDBRANCH   2  16
TORSDOF 10
ENDMDL
MODEL 3
REMARK VINA RESULT:      -5.8      1.645      1.765
REMARK  10 active torsions:
REMARK  status: ('A' for Active; 'I' for Inactive)
REMARK    1  A    between atoms: C_3  and  C_4 
REMARK    2  A    between atoms: C_3  and  C_18 
REMARK    3  A    between atoms: C_4  and  C_22 
REMARK    4  A    between atoms: C_5  and  C_6 
REMARK    5  A    between atoms: C_5  and  O_10 
REMARK    6  A    between atoms: C_6  and  C_12 
REMARK    7  A    between atoms: C_6  and  N_7 
REMARK    8  A    between atoms: N_9  and  C_22 
REMARK       I    between atoms: C_12  and  N_17 
REMARK    9  A    between atoms: N_17  and  C_18 
REMARK   10  A    between atoms: C_18  and  C_23 
ROOT
HETATM    1  H           1     -27.185  -7.082 -18.789  0.00  0.00     0.163 HD
HETATM    2  C           1     -26.159  -6.223 -17.210  0.00  0.00     0.251 C 
HETATM    3  N           1     -27.273  -6.542 -17.937  0.00  0.00    -0.345 N 
HETATM    4  O           1     -26.264  -5.578 -16.194  0.00  0.00    -0.271 OA
ENDROOT
BRANCH   3   5
HETATM    5  C           1     -28.581  -6.105 -17.488  0.00  0.00     0.185 C 
BRANCH   5   6
HETATM    6  C           1     -29.057  -4.951 -18.359  0.00  0.00     0.038 C 
BRANCH   6   7
HETATM    7  C           1     -29.535  -3.809 -17.472  0.00  0.00     0.030 C 
BRANCH   7   8
HETATM    8  C           1     -31.054  -3.713 -17.542  0.00  0.00     0.230 C 
BRANCH   8   9
HETATM    9  N           1     -31.660  -4.563 -16.465  0.00  0.00    -0.079 N 
HETATM   10  H           1     -31.100  -4.467 -15.589  0.00  0.00     0.274 HD
HETATM   11  H           1     -31.663  -5.563 -16.769  0.00  0.00     0.274 HD
HETATM   12  H           1     -32.642  -4.251 -16.287  0.00  0.00     0.274 HD
ENDBRANCH   8   9
ENDBRANCH   7   8
ENDBRANCH   6   7
ENDBRANCH   5   6
BRANCH   5  13
HETATM   13  C           1     -29.557  -7.252 -17.595  0.00  0.00     0.196 C 
HETATM   14  O           1     -30.628  -7.104 -18.222  0.00  0.00    -0.646 OA
HETATM   15  O           1     -29.294  -8.348 -17.055  0.00  0.00    -0.646 OA
ENDBRANCH   5  13
ENDBRANCH   3   5
BRANCH   2  16
HETATM   16  C           1     -24.798  -6.677 -17.677  0.00  0.00     0.297 C 
BRANCH  16  17
HETATM   17  C           1     -24.860  -7.039 -19.155  0.00  0.00     0.206 C 
BRANCH  17  18
HETATM   18  O           1     -23.728  -7.790 -19.502  0.00  0.00    -0.398 OA
HETATM   19  H           1     -23.589  -8.411 -18.808  0.00  0.00     0.209 HD
ENDBRANCH  17  18
ENDBRANCH  16  17
BRANCH  16  20
HETATM   20  N           1     -24.375  -7.880 -16.887  0.00  0.00    -0.064 N 
HETATM   21  H           1     -23.430  -7.712 -16.473  0.00  0.00     0.275 HD
HETATM   22  H           1     -25.065  -8.053 -16.121  0.00  0.00     0.275 HD
HETATM   23  H           1     -24.336  -8.714 -17.516  0.00  0.00     0.275 HD
ENDBRANCH  16  20
ENDBRANCH   2  16
TORSDOF 10
ENDMDL
MODEL 4
REMARK VINA RESULT:      -5.5      3.326      6.607
REMARK  10 active torsions:
REMARK  status: ('A' for Active; 'I' for Inactive)
REMARK    1  A    between atoms: C_3  and  C_4 
REMARK    2  A    between atoms: C_3  and  C_18 
REMARK    3  A    between atoms: C_4  and  C_22 
REMARK    4  A    between atoms: C_5  and  C_6 
REMARK    5  A    between atoms: C_5  and  O_10 
REMARK    6  A    between atoms: C_6  and  C_12 
REMARK    7  A    between atoms: C_6  and  N_7 
REMARK    8  A    between atoms: N_9  and  C_22 
REMARK       I    between atoms: C_12  and  N_17 
REMARK    9  A    between atoms: N_17  and  C_18 
REMARK   10  A    between atoms: C_18  and  C_23 
ROOT
HETATM    1  H           1     -32.265  -6.552 -16.459  0.00  0.00     0.163 HD
HETATM    2  C           1     -32.178  -4.519 -16.835  0.00  0.00     0.251 C 
HETATM    3  N           1     -31.685  -5.795 -16.798  0.00  0.00    -0.345 N 
HETATM    4  O           1     -31.486  -3.615 -17.239  0.00  0.00    -0.271 OA
ENDROOT
BRANCH   3   5
HETATM    5  C           1     -30.332  -6.063 -17.244  0.00  0.00     0.185 C 
BRANCH   5   6
HETATM    6  C           1     -29.374  -5.921 -16.069  0.00  0.00     0.038 C 
BRANCH   6   7
HETATM    7  C           1     -28.226  -4.999 -16.458  0.00  0.00     0.030 C 
BRANCH   7   8
HETATM    8  C           1     -27.010  -5.834 -16.838  0.00  0.00     0.230 C 
BRANCH   8   9
HETATM    9  N           1     -27.000  -7.101 -16.035  0.00  0.00    -0.079 N 
HETATM   10  H           1     -27.760  -7.733 -16.373  0.00  0.00     0.274 HD
HETATM   11  H           1     -27.158  -6.876 -15.027  0.00  0.00     0.274 HD
HETATM   12  H           1     -26.075  -7.576 -16.145  0.00  0.00     0.274 HD
ENDBRANCH   8   9
ENDBRANCH   7   8
ENDBRANCH   6   7
ENDBRANCH   5   6
BRANCH   5  13
HETATM   13  C           1     -30.252  -7.466 -17.793  0.00  0.00     0.196 C 
HETATM   14  O           1     -30.889  -7.771 -18.823  0.00  0.00    -0.646 OA
HETATM   15  O           1     -29.548  -8.323 -17.216  0.00  0.00    -0.646 OA
ENDBRANCH   5  13
ENDBRANCH   3   5
BRANCH   2  16
HETATM   16  C           1     -33.587  -4.240 -16.371  0.00  0.00     0.297 C 
BRANCH  16  17
HETATM   17  C           1     -34.057  -2.908 -16.941  0.00  0.00     0.206 C 
BRANCH  17  18
HETATM   18  O           1     -35.032  -2.356 -16.098  0.00  0.00    -0.398 OA
HETATM   19  H           1     -35.833  -2.327 -16.590  0.00  0.00     0.209 HD
ENDBRANCH  17  18
ENDBRANCH  16  17
BRANCH  16  20
HETATM   20  N           1     -33.616  -4.179 -14.873  0.00  0.00    -0.064 N 
HETATM   21  H           1     -32.837  -3.570 -14.532  0.00  0.00     0.275 HD
HETATM   22  H           1     -34.531  -3.781 -14.559  0.00  0.00     0.275 HD
HETATM   23  H           1     -33.503  -5.142 -14.483  0.00  0.00     0.275 HD
ENDBRANCH  16  20
ENDBRANCH   2  16
TORSDOF 10
ENDMDL
MODEL 5
REMARK VINA RESULT:      -5.4      2.205      5.161
REMARK  10 active torsions:
REMARK  status: ('A' for Active; 'I' for Inactive)
REMARK    1  A    between atoms: C_3  and  C_4 
REMARK    2  A    between atoms: C_3  and  C_18 
REMARK    3  A    between atoms: C_4  and  C_22 
REMARK    4  A    between atoms: C_5  and  C_6 
REMARK    5  A    between atoms: C_5  and  O_10 
REMARK    6  A    between atoms: C_6  and  C_12 
REMARK    7  A    between atoms: C_6  and  N_7 
REMARK    8  A    between atoms: N_9  and  C_22 
REMARK       I    between atoms: C_12  and  N_17 
REMARK    9  A    between atoms: N_17  and  C_18 
REMARK   10  A    between atoms: C_18  and  C_23 
ROOT
HETATM    1  H           1     -26.475  -7.333 -18.304  0.00  0.00     0.163 HD
HETATM    2  C           1     -27.923  -5.856 -18.236  0.00  0.00     0.251 C 
HETATM    3  N           1     -27.082  -6.740 -18.855  0.00  0.00    -0.345 N 
HETATM    4  O           1     -28.647  -5.148 -18.895  0.00  0.00    -0.271 OA
ENDROOT
BRANCH   3   5
HETATM    5  C           1     -27.060  -6.827 -20.303  0.00  0.00     0.185 C 
BRANCH   5   6
HETATM    6  C           1     -25.632  -6.647 -20.800  0.00  0.00     0.038 C 
BRANCH   6   7
HETATM    7  C           1     -24.659  -7.149 -19.742  0.00  0.00     0.030 C 
BRANCH   7   8
HETATM    8  C           1     -23.574  -7.988 -20.407  0.00  0.00     0.230 C 
BRANCH   8   9
HETATM    9  N           1     -24.059  -8.466 -21.744  0.00  0.00    -0.079 N 
HETATM   10  H           1     -25.050  -8.787 -21.660  0.00  0.00     0.274 HD
HETATM   11  H           1     -23.463  -9.261 -22.067  0.00  0.00     0.274 HD
HETATM   12  H           1     -24.003  -7.684 -22.435  0.00  0.00     0.274 HD
ENDBRANCH   8   9
ENDBRANCH   7   8
ENDBRANCH   6   7
ENDBRANCH   5   6
BRANCH   5  13
HETATM   13  C           1     -27.576  -8.179 -20.733  0.00  0.00     0.196 C 
HETATM   14  O           1     -28.611  -8.647 -20.211  0.00  0.00    -0.646 OA
HETATM   15  O           1     -26.969  -8.829 -21.610  0.00  0.00    -0.646 OA
ENDBRANCH   5  13
ENDBRANCH   3   5
BRANCH   2  16
HETATM   16  C           1     -27.946  -5.765 -16.730  0.00  0.00     0.297 C 
BRANCH  16  17
HETATM   17  C           1     -26.768  -6.539 -16.154  0.00  0.00     0.206 C 
BRANCH  17  18
HETATM   18  O           1     -25.598  -5.776 -16.283  0.00  0.00    -0.398 OA
HETATM   19  H           1     -25.848  -4.874 -16.183  0.00  0.00     0.209 HD
ENDBRANCH  17  18
ENDBRANCH  16  17
BRANCH  16  20
HETATM   20  N           1     -29.227  -6.350 -16.214  0.00  0.00    -0.064 N 
HETATM   21  H           1     -29.489  -5.883 -15.316  0.00  0.00     0.275 HD
HETATM   22  H           1     -29.986  -6.201 -16.918  0.00  0.00     0.275 HD
HETATM   23  H           1     -29.101  -7.374 -16.050  0.00  0.00     0.275 HD
ENDBRANCH  16  20
ENDBRANCH   2  16
TORSDOF 10
ENDMDL
MODEL 6
REMARK VINA RESULT:      -5.2     10.570     11.959
REMARK  10 active torsions:
REMARK  status: ('A' for Active; 'I' for Inactive)
REMARK    1  A    between atoms: C_3  and  C_4 
REMARK    2  A    between atoms: C_3  and  C_18 
REMARK    3  A    between atoms: C_4  and  C_22 
REMARK    4  A    between atoms: C_5  and  C_6 
REMARK    5  A    between atoms: C_5  and  O_10 
REMARK    6  A    between atoms: C_6  and  C_12 
REMARK    7  A    between atoms: C_6  and  N_7 
REMARK    8  A    between atoms: N_9  and  C_22 
REMARK       I    between atoms: C_12  and  N_17 
REMARK    9  A    between atoms: N_17  and  C_18 
REMARK   10  A    between atoms: C_18  and  C_23 
ROOT
HETATM    1  H           1     -23.785  -5.124  -8.417  0.00  0.00     0.163 HD
HETATM    2  C           1     -21.862  -4.434  -8.093  0.00  0.00     0.251 C 
HETATM    3  N           1     -23.037  -4.551  -8.784  0.00  0.00    -0.345 N 
HETATM    4  O           1     -20.968  -3.750  -8.531  0.00  0.00    -0.271 OA
ENDROOT
BRANCH   3   5
HETATM    5  C           1     -23.209  -3.854 -10.044  0.00  0.00     0.185 C 
BRANCH   5   6
HETATM    6  C           1     -22.997  -4.828 -11.195  0.00  0.00     0.038 C 
BRANCH   6   7
HETATM    7  C           1     -21.789  -4.392 -12.014  0.00  0.00     0.030 C 
BRANCH   7   8
HETATM    8  C           1     -21.473  -2.932 -11.716  0.00  0.00     0.230 C 
BRANCH   8   9
HETATM    9  N           1     -20.033  -2.803 -11.316  0.00  0.00    -0.079 N 
HETATM   10  H           1     -19.442  -3.387 -11.949  0.00  0.00     0.274 HD
HETATM   11  H           1     -19.914  -3.128 -10.331  0.00  0.00     0.274 HD
HETATM   12  H           1     -19.740  -1.802 -11.390  0.00  0.00     0.274 HD
ENDBRANCH   8   9
ENDBRANCH   7   8
ENDBRANCH   6   7
ENDBRANCH   5   6
BRANCH   5  13
HETATM   13  C           1     -24.604  -3.284 -10.116  0.00  0.00     0.196 C 
HETATM   14  O           1     -25.226  -3.290 -11.200  0.00  0.00    -0.646 OA
HETATM   15  O           1     -25.138  -2.807  -9.091  0.00  0.00    -0.646 OA
ENDBRANCH   5  13
ENDBRANCH   3   5
BRANCH   2  16
HETATM   16  C           1     -21.682  -5.159  -6.782  0.00  0.00     0.297 C 
BRANCH  16  17
HETATM   17  C           1     -20.645  -4.433  -5.935  0.00  0.00     0.206 C 
BRANCH  17  18
HETATM   18  O           1     -19.358  -4.793  -6.361  0.00  0.00    -0.398 OA
HETATM   19  H           1     -19.349  -5.731  -6.438  0.00  0.00     0.209 HD
ENDBRANCH  17  18
ENDBRANCH  16  17
BRANCH  16  20
HETATM   20  N           1     -21.217  -6.561  -7.046  0.00  0.00    -0.064 N 
HETATM   21  H           1     -21.914  -7.052  -7.651  0.00  0.00     0.275 HD
HETATM   22  H           1     -20.292  -6.534  -7.532  0.00  0.00     0.275 HD
HETATM   23  H           1     -21.120  -7.072  -6.140  0.00  0.00     0.275 HD
ENDBRANCH  16  20
ENDBRANCH   2  16
TORSDOF 10
ENDMDL
MODEL 7
REMARK VINA RESULT:      -5.2     11.618     13.064
REMARK  10 active torsions:
REMARK  status: ('A' for Active; 'I' for Inactive)
REMARK    1  A    between atoms: C_3  and  C_4 
REMARK    2  A    between atoms: C_3  and  C_18 
REMARK    3  A    between atoms: C_4  and  C_22 
REMARK    4  A    between atoms: C_5  and  C_6 
REMARK    5  A    between atoms: C_5  and  O_10 
REMARK    6  A    between atoms: C_6  and  C_12 
REMARK    7  A    between atoms: C_6  and  N_7 
REMARK    8  A    between atoms: N_9  and  C_22 
REMARK       I    between atoms: C_12  and  N_17 
REMARK    9  A    between atoms: N_17  and  C_18 
REMARK   10  A    between atoms: C_18  and  C_23 
ROOT
HETATM    1  H           1     -22.186  -6.151  -9.066  0.00  0.00     0.163 HD
HETATM    2  C           1     -23.146  -4.320  -8.969  0.00  0.00     0.251 C 
HETATM    3  N           1     -22.176  -5.230  -8.647  0.00  0.00    -0.345 N 
HETATM    4  O           1     -23.133  -3.221  -8.468  0.00  0.00    -0.271 OA
ENDROOT
BRANCH   3   5
HETATM    5  C           1     -21.133  -4.875  -7.704  0.00  0.00     0.185 C 
BRANCH   5   6
HETATM    6  C           1     -20.865  -6.053  -6.777  0.00  0.00     0.038 C 
BRANCH   6   7
HETATM    7  C           1     -21.018  -5.606  -5.329  0.00  0.00     0.030 C 
BRANCH   7   8
HETATM    8  C           1     -21.958  -6.558  -4.600  0.00  0.00     0.230 C 
BRANCH   8   9
HETATM    9  N           1     -22.106  -6.120  -3.173  0.00  0.00    -0.079 N 
HETATM   10  H           1     -22.609  -6.859  -2.633  0.00  0.00     0.274 HD
HETATM   11  H           1     -22.652  -5.230  -3.136  0.00  0.00     0.274 HD
HETATM   12  H           1     -21.160  -5.966  -2.756  0.00  0.00     0.274 HD
ENDBRANCH   8   9
ENDBRANCH   7   8
ENDBRANCH   6   7
ENDBRANCH   5   6
BRANCH   5  13
HETATM   13  C           1     -19.872  -4.529  -8.456  0.00  0.00     0.196 C 
HETATM   14  O           1     -19.865  -4.548  -9.706  0.00  0.00    -0.646 OA
HETATM   15  O           1     -18.835  -4.221  -7.830  0.00  0.00    -0.646 OA
ENDBRANCH   5  13
ENDBRANCH   3   5
BRANCH   2  16
HETATM   16  C           1     -24.231  -4.689  -9.950  0.00  0.00     0.297 C 
BRANCH  16  17
HETATM   17  C           1     -23.651  -4.735 -11.358  0.00  0.00     0.206 C 
BRANCH  17  18
HETATM   18  O           1     -22.457  -4.001 -11.397  0.00  0.00    -0.398 OA
HETATM   19  H           1     -22.206  -3.935 -12.302  0.00  0.00     0.209 HD
ENDBRANCH  17  18
ENDBRANCH  16  17
BRANCH  16  20
HETATM   20  N           1     -25.324  -3.663  -9.895  0.00  0.00    -0.064 N 
HETATM   21  H           1     -26.093  -3.936 -10.549  0.00  0.00     0.275 HD
HETATM   22  H           1     -25.700  -3.608  -8.921  0.00  0.00     0.275 HD
HETATM   23  H           1     -24.942  -2.732 -10.175  0.00  0.00     0.275 HD
ENDBRANCH  16  20
ENDBRANCH   2  16
TORSDOF 10
ENDMDL
MODEL 8
REMARK VINA RESULT:      -4.9     14.271     15.198
REMARK  10 active torsions:
REMARK  status: ('A' for Active; 'I' for Inactive)
REMARK    1  A    between atoms: C_3  and  C_4 
REMARK    2  A    between atoms: C_3  and  C_18 
REMARK    3  A    between atoms: C_4  and  C_22 
REMARK    4  A    between atoms: C_5  and  C_6 
REMARK    5  A    between atoms: C_5  and  O_10 
REMARK    6  A    between atoms: C_6  and  C_12 
REMARK    7  A    between atoms: C_6  and  N_7 
REMARK    8  A    between atoms: N_9  and  C_22 
REMARK       I    between atoms: C_12  and  N_17 
REMARK    9  A    between atoms: N_17  and  C_18 
REMARK   10  A    between atoms: C_18  and  C_23 
ROOT
HETATM    1  H           1     -21.287  -8.447  -6.438  0.00  0.00     0.163 HD
HETATM    2  C           1     -19.981  -9.023  -4.939  0.00  0.00     0.251 C 
HETATM    3  N           1     -20.704  -8.124  -5.676  0.00  0.00    -0.345 N 
HETATM    4  O           1     -19.285  -8.637  -4.030  0.00  0.00    -0.271 OA
ENDROOT
BRANCH   3   5
HETATM    5  C           1     -20.633  -6.709  -5.367  0.00  0.00     0.185 C 
BRANCH   5   6
HETATM    6  C           1     -20.603  -5.908  -6.661  0.00  0.00     0.038 C 
BRANCH   6   7
HETATM    7  C           1     -20.495  -4.424  -6.338  0.00  0.00     0.030 C 
BRANCH   7   8
HETATM    8  C           1     -21.343  -3.627  -7.322  0.00  0.00     0.230 C 
BRANCH   8   9
HETATM    9  N           1     -22.740  -4.171  -7.336  0.00  0.00    -0.079 N 
HETATM   10  H           1     -22.747  -5.102  -7.811  0.00  0.00     0.274 HD
HETATM   11  H           1     -23.366  -3.513  -7.852  0.00  0.00     0.274 HD
HETATM   12  H           1     -23.082  -4.278  -6.353  0.00  0.00     0.274 HD
ENDBRANCH   8   9
ENDBRANCH   7   8
ENDBRANCH   6   7
ENDBRANCH   5   6
BRANCH   5  13
HETATM   13  C           1     -21.843  -6.311  -4.557  0.00  0.00     0.196 C 
HETATM   14  O           1     -21.712  -5.988  -3.357  0.00  0.00    -0.646 OA
HETATM   15  O           1     -22.975  -6.305  -5.086  0.00  0.00    -0.646 OA
ENDBRANCH   5  13
ENDBRANCH   3   5
BRANCH   2  16
HETATM   16  C           1     -20.055 -10.495  -5.260  0.00  0.00     0.297 C 
BRANCH  16  17
HETATM   17  C           1     -18.734 -10.951  -5.867  0.00  0.00     0.206 C 
BRANCH  17  18
HETATM   18  O           1     -18.092  -9.858  -6.466  0.00  0.00    -0.398 OA
HETATM   19  H           1     -17.423  -9.573  -5.869  0.00  0.00     0.209 HD
ENDBRANCH  17  18
ENDBRANCH  16  17
BRANCH  16  20
HETATM   20  N           1     -21.163 -10.738  -6.241  0.00  0.00    -0.064 N 
HETATM   21  H           1     -20.789 -10.670  -7.215  0.00  0.00     0.275 HD
HETATM   22  H           1     -21.561 -11.692  -6.087  0.00  0.00     0.275 HD
HETATM   23  H           1     -21.912 -10.021  -6.105  0.00  0.00     0.275 HD
ENDBRANCH  16  20
ENDBRANCH   2  16
TORSDOF 10
ENDMDL
MODEL 9
REMARK VINA RESULT:      -4.8     17.688     18.704
REMARK  10 active torsions:
REMARK  status: ('A' for Active; 'I' for Inactive)
REMARK    1  A    between atoms: C_3  and  C_4 
REMARK    2  A    between atoms: C_3  and  C_18 
REMARK    3  A    between atoms: C_4  and  C_22 
REMARK    4  A    between atoms: C_5  and  C_6 
REMARK    5  A    between atoms: C_5  and  O_10 
REMARK    6  A    between atoms: C_6  and  C_12 
REMARK    7  A    between atoms: C_6  and  N_7 
REMARK    8  A    between atoms: N_9  and  C_22 
REMARK       I    between atoms: C_12  and  N_17 
REMARK    9  A    between atoms: N_17  and  C_18 
REMARK   10  A    between atoms: C_18  and  C_23 
ROOT
HETATM    1  H           1     -22.403  -9.531  -2.363  0.00  0.00     0.163 HD
HETATM    2  C           1     -21.596 -10.050  -0.529  0.00  0.00     0.251 C 
HETATM    3  N           1     -21.807  -9.228  -1.604  0.00  0.00    -0.345 N 
HETATM    4  O           1     -20.884  -9.689   0.377  0.00  0.00    -0.271 OA
ENDROOT
BRANCH   3   5
HETATM    5  C           1     -21.174  -7.924  -1.654  0.00  0.00     0.185 C 
BRANCH   5   6
HETATM    6  C           1     -20.612  -7.687  -3.048  0.00  0.00     0.038 C 
BRANCH   6   7
HETATM    7  C           1     -21.510  -8.358  -4.079  0.00  0.00     0.030 C 
BRANCH   7   8
HETATM    8  C           1     -21.683  -7.435  -5.279  0.00  0.00     0.230 C 
BRANCH   8   9
HETATM    9  N           1     -22.562  -6.280  -4.901  0.00  0.00    -0.079 N 
HETATM   10  H           1     -23.483  -6.639  -4.565  0.00  0.00     0.274 HD
HETATM   11  H           1     -22.710  -5.667  -5.734  0.00  0.00     0.274 HD
HETATM   12  H           1     -22.104  -5.729  -4.140  0.00  0.00     0.274 HD
ENDBRANCH   8   9
ENDBRANCH   7   8
ENDBRANCH   6   7
ENDBRANCH   5   6
BRANCH   5  13
HETATM   13  C           1     -22.194  -6.859  -1.334  0.00  0.00     0.196 C 
HETATM   14  O           1     -23.027  -7.045  -0.421  0.00  0.00    -0.646 OA
HETATM   15  O           1     -22.205  -5.790  -1.981  0.00  0.00    -0.646 OA
ENDBRANCH   5  13
ENDBRANCH   3   5
BRANCH   2  16
HETATM   16  C           1     -22.254 -11.407  -0.477  0.00  0.00     0.297 C 
BRANCH  16  17
HETATM   17  C           1     -23.738 -11.243  -0.174  0.00  0.00     0.206 C 
BRANCH  17  18
HETATM   18  O           1     -24.001  -9.909   0.171  0.00  0.00    -0.398 OA
HETATM   19  H           1     -24.810  -9.905   0.650  0.00  0.00     0.209 HD
ENDBRANCH  17  18
ENDBRANCH  16  17
BRANCH  16  20
HETATM   20  N           1     -21.614 -12.231   0.601  0.00  0.00    -0.064 N 
HETATM   21  H           1     -20.575 -12.210   0.486  0.00  0.00     0.275 HD
HETATM   22  H           1     -21.867 -11.838   1.536  0.00  0.00     0.275 HD
HETATM   23  H           1     -21.953 -13.217   0.533  0.00  0.00     0.275 HD
ENDBRANCH  16  20
ENDBRANCH   2  16
TORSDOF 10
ENDMDL
