MODEL 1
REMARK VINA RESULT:      -6.8      0.000      0.000
REMARK  15 active torsions:
REMARK  status: ('A' for Active; 'I' for Inactive)
REMARK       I    between atoms: C_1  and  N_2 
REMARK    1  A    between atoms: C_1  and  C_33 
REMARK    2  A    between atoms: N_2  and  C_6 
REMARK    3  A    between atoms: C_5  and  C_6 
REMARK    4  A    between atoms: C_6  and  C_7 
REMARK    5  A    between atoms: C_7  and  C_8 
REMARK    6  A    between atoms: C_8  and  N_9 
REMARK    7  A    between atoms: N_9  and  C_13 
REMARK    8  A    between atoms: C_12  and  C_13 
REMARK    9  A    between atoms: C_13  and  C_15 
REMARK   10  A    between atoms: O_14  and  C_15 
REMARK   11  A    between atoms: N_25  and  C_33 
REMARK       I    between atoms: N_26  and  C_28 
REMARK       I    between atoms: N_27  and  C_28 
REMARK   12  A    between atoms: N_29  and  C_30 
REMARK   13  A    between atoms: C_30  and  C_31 
REMARK   14  A    between atoms: C_31  and  C_32 
REMARK   15  A    between atoms: C_32  and  C_33 
ROOT
HETATM    1  C           1     -21.564  -6.556  -4.103  0.00  0.00     0.249 C 
HETATM    2  N           1     -20.976  -5.622  -4.912  0.00  0.00    -0.345 N 
HETATM    3  H           1     -20.370  -4.917  -4.514  0.00  0.00     0.163 HD
HETATM    4  O           1     -22.288  -7.398  -4.578  0.00  0.00    -0.271 OA
ENDROOT
BRANCH   1   5
HETATM    5  C           1     -21.307  -6.535  -2.616  0.00  0.00     0.274 C 
BRANCH   5   6
HETATM    6  N           1     -22.367  -5.722  -1.937  0.00  0.00    -0.067 N 
HETATM    7  H           1     -23.091  -5.438  -2.636  0.00  0.00     0.275 HD
HETATM    8  H           1     -22.816  -6.293  -1.185  0.00  0.00     0.275 HD
HETATM    9  H           1     -21.937  -4.868  -1.516  0.00  0.00     0.275 HD
ENDBRANCH   5   6
BRANCH   5  10
HETATM   10  C           1     -21.335  -7.959  -2.075  0.00  0.00     0.044 C 
BRANCH  10  11
HETATM   11  C           1     -19.932  -8.548  -2.119  0.00  0.00     0.023 C 
BRANCH  11  12
HETATM   12  C           1     -19.996  -9.978  -2.639  0.00  0.00     0.138 C 
BRANCH  12  13
HETATM   13  N           1     -20.820 -10.022  -3.856  0.00  0.00    -0.227 N 
HETATM   14  H           1     -21.867 -10.050  -3.780  0.00  0.00     0.177 HD
HETATM   15  C           1     -20.267 -10.026  -4.995  0.00  0.00     0.665 C 
HETATM   16  N           1     -18.971  -9.992  -5.088  0.00  0.00    -0.235 N 
HETATM   17  N           1     -20.976 -10.065  -6.043  0.00  0.00    -0.235 N 
HETATM   18  H           1     -18.514  -9.995  -6.028  0.00  0.00     0.174 HD
HETATM   19  H           1     -18.385  -9.961  -4.223  0.00  0.00     0.174 HD
HETATM   20  H           1     -22.023 -10.093  -5.967  0.00  0.00     0.174 HD
HETATM   21  H           1     -20.517 -10.068  -6.987  0.00  0.00     0.174 HD
ENDBRANCH  12  13
ENDBRANCH  11  12
ENDBRANCH  10  11
ENDBRANCH   5  10
ENDBRANCH   1   5
BRANCH   2  22
HETATM   22  C           1     -21.224  -5.641  -6.340  0.00  0.00     0.187 C 
BRANCH  22  23
HETATM   23  C           1     -20.061  -6.299  -7.042  0.00  0.00     0.196 C 
HETATM   24  O           1     -19.485  -7.276  -6.516  0.00  0.00    -0.646 OA
HETATM   25  O           1     -19.672  -5.866  -8.149  0.00  0.00    -0.646 OA
ENDBRANCH  22  23
BRANCH  22  26
HETATM   26  C           1     -21.383  -4.214  -6.847  0.00  0.00     0.066 C 
BRANCH  26  27
HETATM   27  C           1     -22.597  -4.132  -7.763  0.00  0.00     0.273 C 
BRANCH  27  28
HETATM   28  N           1     -22.229  -4.555  -9.087  0.00  0.00     0.101 N 
HETATM   29  H           1     -22.638  -5.470  -9.278  0.00  0.00     0.317 HD
BRANCH  28  30
HETATM   30  C           1     -22.758  -3.593 -10.017  0.00  0.00     0.348 C 
BRANCH  30  31
HETATM   31  C           1     -24.173  -3.971 -10.381  0.00  0.00     0.210 C 
HETATM   32  O           1     -24.564  -5.148 -10.231  0.00  0.00    -0.646 OA
HETATM   33  O           1     -24.954  -3.105 -10.832  0.00  0.00    -0.646 OA
ENDBRANCH  30  31
BRANCH  30  34
HETATM   34  C           1     -21.898  -3.576 -11.273  0.00  0.00     0.158 C 
HETATM   35  C           1     -20.505  -4.095 -10.941  0.00  0.00     0.042 C 
BRANCH  34  36
HETATM   36  O           1     -22.482  -4.396 -12.250  0.00  0.00    -0.393 OA
HETATM   37  H           1     -21.812  -4.584 -12.885  0.00  0.00     0.210 HD
ENDBRANCH  34  36
ENDBRANCH  30  34
ENDBRANCH  28  30
ENDBRANCH  27  28
ENDBRANCH  26  27
ENDBRANCH  22  26
ENDBRANCH   2  22
TORSDOF 15
ENDMDL
MODEL 2
REMARK VINA RESULT:      -6.7      1.816      2.331
REMARK  15 active torsions:
REMARK  status: ('A' for Active; 'I' for Inactive)
REMARK       I    between atoms: C_1  and  N_2 
REMARK    1  A    between atoms: C_1  and  C_33 
REMARK    2  A    between atoms: N_2  and  C_6 
REMARK    3  A    between atoms: C_5  and  C_6 
REMARK    4  A    between atoms: C_6  and  C_7 
REMARK    5  A    between atoms: C_7  and  C_8 
REMARK    6  A    between atoms: C_8  and  N_9 
REMARK    7  A    between atoms: N_9  and  C_13 
REMARK    8  A    between atoms: C_12  and  C_13 
REMARK    9  A    between atoms: C_13  and  C_15 
REMARK   10  A    between atoms: O_14  and  C_15 
REMARK   11  A    between atoms: N_25  and  C_33 
REMARK       I    between atoms: N_26  and  C_28 
REMARK       I    between atoms: N_27  and  C_28 
REMARK   12  A    between atoms: N_29  and  C_30 
REMARK   13  A    between atoms: C_30  and  C_31 
REMARK   14  A    between atoms: C_31  and  C_32 
REMARK   15  A    between atoms: C_32  and  C_33 
ROOT
HETATM    1  C           1     -21.513  -6.621  -4.192  0.00  0.00     0.249 C 
HETATM    2  N           1     -21.059  -5.538  -4.894  0.00  0.00    -0.345 N 
HETATM    3  H           1     -20.620  -4.767  -4.408  0.00  0.00     0.163 HD
HETATM    4  O           1     -22.037  -7.542  -4.773  0.00  0.00    -0.271 OA
ENDROOT
BRANCH   1   5
HETATM    5  C           1     -21.359  -6.666  -2.691  0.00  0.00     0.274 C 
BRANCH   5   6
HETATM    6  N           1     -22.405  -5.800  -2.056  0.00  0.00    -0.067 N 
HETATM    7  H           1     -21.971  -5.226  -1.298  0.00  0.00     0.275 HD
HETATM    8  H           1     -22.819  -5.167  -2.777  0.00  0.00     0.275 HD
HETATM    9  H           1     -23.156  -6.403  -1.649  0.00  0.00     0.275 HD
ENDBRANCH   5   6
BRANCH   5  10
HETATM   10  C           1     -21.524  -8.100  -2.206  0.00  0.00     0.044 C 
BRANCH  10  11
HETATM   11  C           1     -20.817  -8.269  -0.868  0.00  0.00     0.023 C 
BRANCH  11  12
HETATM   12  C           1     -21.795  -8.827   0.157  0.00  0.00     0.138 C 
BRANCH  12  13
HETATM   13  N           1     -22.909  -9.489  -0.537  0.00  0.00    -0.227 N 
HETATM   14  H           1     -23.560  -8.928  -1.140  0.00  0.00     0.177 HD
HETATM   15  C           1     -23.085 -10.737  -0.407  0.00  0.00     0.665 C 
HETATM   16  N           1     -22.280 -11.431   0.341  0.00  0.00    -0.235 N 
HETATM   17  N           1     -24.045 -11.307  -1.004  0.00  0.00    -0.235 N 
HETATM   18  H           1     -22.424 -12.460   0.449  0.00  0.00     0.174 HD
HETATM   19  H           1     -21.487 -10.961   0.834  0.00  0.00     0.174 HD
HETATM   20  H           1     -24.695 -10.745  -1.607  0.00  0.00     0.174 HD
HETATM   21  H           1     -24.189 -12.341  -0.895  0.00  0.00     0.174 HD
ENDBRANCH  12  13
ENDBRANCH  11  12
ENDBRANCH  10  11
ENDBRANCH   5  10
ENDBRANCH   1   5
BRANCH   2  22
HETATM   22  C           1     -21.208  -5.494  -6.336  0.00  0.00     0.187 C 
BRANCH  22  23
HETATM   23  C           1     -19.891  -5.844  -6.987  0.00  0.00     0.196 C 
HETATM   24  O           1     -19.427  -6.999  -6.874  0.00  0.00    -0.646 OA
HETATM   25  O           1     -19.266  -4.979  -7.637  0.00  0.00    -0.646 OA
ENDBRANCH  22  23
BRANCH  22  26
HETATM   26  C           1     -21.629  -4.094  -6.761  0.00  0.00     0.066 C 
BRANCH  26  27
HETATM   27  C           1     -22.748  -4.189  -7.789  0.00  0.00     0.273 C 
BRANCH  27  28
HETATM   28  N           1     -22.195  -4.552  -9.067  0.00  0.00     0.101 N 
HETATM   29  H           1     -22.496  -5.495  -9.312  0.00  0.00     0.317 HD
BRANCH  28  30
HETATM   30  C           1     -22.698  -3.621 -10.041  0.00  0.00     0.348 C 
BRANCH  30  31
HETATM   31  C           1     -24.058  -4.073 -10.513  0.00  0.00     0.210 C 
HETATM   32  O           1     -24.330  -5.292 -10.563  0.00  0.00    -0.646 OA
HETATM   33  O           1     -24.914  -3.228 -10.854  0.00  0.00    -0.646 OA
ENDBRANCH  30  31
BRANCH  30  34
HETATM   34  C           1     -21.743  -3.562 -11.226  0.00  0.00     0.158 C 
HETATM   35  C           1     -20.442  -4.265 -10.864  0.00  0.00     0.042 C 
BRANCH  34  36
HETATM   36  O           1     -22.329  -4.200 -12.329  0.00  0.00    -0.393 OA
HETATM   37  H           1     -21.672  -4.236 -13.004  0.00  0.00     0.210 HD
ENDBRANCH  34  36
ENDBRANCH  30  34
ENDBRANCH  28  30
ENDBRANCH  27  28
ENDBRANCH  26  27
ENDBRANCH  22  26
ENDBRANCH   2  22
TORSDOF 15
ENDMDL
MODEL 3
REMARK VINA RESULT:      -6.2      2.965      7.914
REMARK  15 active torsions:
REMARK  status: ('A' for Active; 'I' for Inactive)
REMARK       I    between atoms: C_1  and  N_2 
REMARK    1  A    between atoms: C_1  and  C_33 
REMARK    2  A    between atoms: N_2  and  C_6 
REMARK    3  A    between atoms: C_5  and  C_6 
REMARK    4  A    between atoms: C_6  and  C_7 
REMARK    5  A    between atoms: C_7  and  C_8 
REMARK    6  A    between atoms: C_8  and  N_9 
REMARK    7  A    between atoms: N_9  and  C_13 
REMARK    8  A    between atoms: C_12  and  C_13 
REMARK    9  A    between atoms: C_13  and  C_15 
REMARK   10  A    between atoms: O_14  and  C_15 
REMARK   11  A    between atoms: N_25  and  C_33 
REMARK       I    between atoms: N_26  and  C_28 
REMARK       I    between atoms: N_27  and  C_28 
REMARK   12  A    between atoms: N_29  and  C_30 
REMARK   13  A    between atoms: C_30  and  C_31 
REMARK   14  A    between atoms: C_31  and  C_32 
REMARK   15  A    between atoms: C_32  and  C_33 
ROOT
HETATM    1  C           1     -20.354  -6.955  -6.031  0.00  0.00     0.249 C 
HETATM    2  N           1     -20.461  -7.933  -5.079  0.00  0.00    -0.345 N 
HETATM    3  H           1     -21.263  -7.955  -4.463  0.00  0.00     0.163 HD
HETATM    4  O           1     -19.396  -6.930  -6.766  0.00  0.00    -0.271 OA
ENDROOT
BRANCH   1   5
HETATM    5  C           1     -21.433  -5.908  -6.161  0.00  0.00     0.274 C 
BRANCH   5   6
HETATM    6  N           1     -22.344  -5.979  -4.972  0.00  0.00    -0.067 N 
HETATM    7  H           1     -22.379  -5.046  -4.502  0.00  0.00     0.275 HD
HETATM    8  H           1     -23.305  -6.246  -5.285  0.00  0.00     0.275 HD
HETATM    9  H           1     -21.985  -6.694  -4.300  0.00  0.00     0.275 HD
ENDBRANCH   5   6
BRANCH   5  10
HETATM   10  C           1     -20.795  -4.527  -6.229  0.00  0.00     0.044 C 
BRANCH  10  11
HETATM   11  C           1     -21.574  -3.655  -7.204  0.00  0.00     0.023 C 
BRANCH  11  12
HETATM   12  C           1     -22.359  -4.539  -8.163  0.00  0.00     0.138 C 
BRANCH  12  13
HETATM   13  N           1     -23.703  -3.976  -8.360  0.00  0.00    -0.227 N 
HETATM   14  H           1     -24.201  -3.513  -7.560  0.00  0.00     0.177 HD
HETATM   15  C           1     -24.261  -4.051  -9.494  0.00  0.00     0.665 C 
HETATM   16  N           1     -23.644  -4.625 -10.484  0.00  0.00    -0.235 N 
HETATM   17  N           1     -25.418  -3.567  -9.665  0.00  0.00    -0.235 N 
HETATM   18  H           1     -24.103  -4.687 -11.421  0.00  0.00     0.174 HD
HETATM   19  H           1     -22.689  -5.025 -10.344  0.00  0.00     0.174 HD
HETATM   20  H           1     -25.916  -3.104  -8.864  0.00  0.00     0.174 HD
HETATM   21  H           1     -25.880  -3.629 -10.606  0.00  0.00     0.174 HD
ENDBRANCH  12  13
ENDBRANCH  11  12
ENDBRANCH  10  11
ENDBRANCH   5  10
ENDBRANCH   1   5
BRANCH   2  22
HETATM   22  C           1     -19.424  -8.939  -4.953  0.00  0.00     0.187 C 
BRANCH  22  23
HETATM   23  C           1     -19.913 -10.240  -5.542  0.00  0.00     0.196 C 
HETATM   24  O           1     -19.169 -11.245  -5.541  0.00  0.00    -0.646 OA
HETATM   25  O           1     -21.061 -10.313  -6.031  0.00  0.00    -0.646 OA
ENDBRANCH  22  23
BRANCH  22  26
HETATM   26  C           1     -19.089  -9.141  -3.481  0.00  0.00     0.066 C 
BRANCH  26  27
HETATM   27  C           1     -20.286  -9.756  -2.767  0.00  0.00     0.273 C 
BRANCH  27  28
HETATM   28  N           1     -20.511  -9.065  -1.526  0.00  0.00     0.101 N 
HETATM   29  H           1     -19.876  -8.270  -1.460  0.00  0.00     0.317 HD
BRANCH  28  30
HETATM   30  C           1     -21.870  -8.593  -1.529  0.00  0.00     0.348 C 
BRANCH  30  31
HETATM   31  C           1     -21.879  -7.087  -1.617  0.00  0.00     0.210 C 
HETATM   32  O           1     -21.184  -6.507  -2.478  0.00  0.00    -0.646 OA
HETATM   33  O           1     -22.582  -6.419  -0.827  0.00  0.00    -0.646 OA
ENDBRANCH  30  31
BRANCH  30  34
HETATM   34  C           1     -22.561  -9.032  -0.245  0.00  0.00     0.158 C 
HETATM   35  C           1     -23.020 -10.478  -0.384  0.00  0.00     0.042 C 
BRANCH  34  36
HETATM   36  O           1     -21.665  -8.926   0.828  0.00  0.00    -0.393 OA
HETATM   37  H           1     -21.206  -9.747   0.882  0.00  0.00     0.210 HD
ENDBRANCH  34  36
ENDBRANCH  30  34
ENDBRANCH  28  30
ENDBRANCH  27  28
ENDBRANCH  26  27
ENDBRANCH  22  26
ENDBRANCH   2  22
TORSDOF 15
ENDMDL
MODEL 4
REMARK VINA RESULT:      -6.2     11.523     15.543
REMARK  15 active torsions:
REMARK  status: ('A' for Active; 'I' for Inactive)
REMARK       I    between atoms: C_1  and  N_2 
REMARK    1  A    between atoms: C_1  and  C_33 
REMARK    2  A    between atoms: N_2  and  C_6 
REMARK    3  A    between atoms: C_5  and  C_6 
REMARK    4  A    between atoms: C_6  and  C_7 
REMARK    5  A    between atoms: C_7  and  C_8 
REMARK    6  A    between atoms: C_8  and  N_9 
REMARK    7  A    between atoms: N_9  and  C_13 
REMARK    8  A    between atoms: C_12  and  C_13 
REMARK    9  A    between atoms: C_13  and  C_15 
REMARK   10  A    between atoms: O_14  and  C_15 
REMARK   11  A    between atoms: N_25  and  C_33 
REMARK       I    between atoms: N_26  and  C_28 
REMARK       I    between atoms: N_27  and  C_28 
REMARK   12  A    between atoms: N_29  and  C_30 
REMARK   13  A    between atoms: C_30  and  C_31 
REMARK   14  A    between atoms: C_31  and  C_32 
REMARK   15  A    between atoms: C_32  and  C_33 
ROOT
HETATM    1  C           1     -32.178  -4.456 -16.882  0.00  0.00     0.249 C 
HETATM    2  N           1     -31.712  -5.728 -16.686  0.00  0.00    -0.345 N 
HETATM    3  H           1     -32.302  -6.421 -16.244  0.00  0.00     0.163 HD
HETATM    4  O           1     -31.473  -3.629 -17.409  0.00  0.00    -0.271 OA
ENDROOT
BRANCH   1   5
HETATM    5  C           1     -33.572  -4.087 -16.439  0.00  0.00     0.274 C 
BRANCH   5   6
HETATM    6  N           1     -33.630  -4.060 -14.941  0.00  0.00    -0.067 N 
HETATM    7  H           1     -34.514  -4.515 -14.617  0.00  0.00     0.275 HD
HETATM    8  H           1     -32.810  -4.578 -14.551  0.00  0.00     0.275 HD
HETATM    9  H           1     -33.607  -3.070 -14.609  0.00  0.00     0.275 HD
ENDBRANCH   5   6
BRANCH   5  10
HETATM   10  C           1     -33.931  -2.711 -16.985  0.00  0.00     0.044 C 
BRANCH  10  11
HETATM   11  C           1     -35.364  -2.369 -16.600  0.00  0.00     0.023 C 
BRANCH  11  12
HETATM   12  C           1     -35.508  -0.859 -16.464  0.00  0.00     0.138 C 
BRANCH  12  13
HETATM   13  N           1     -34.894  -0.419 -15.203  0.00  0.00    -0.227 N 
HETATM   14  H           1     -34.284  -1.079 -14.658  0.00  0.00     0.177 HD
HETATM   15  C           1     -35.100   0.754 -14.773  0.00  0.00     0.665 C 
HETATM   16  N           1     -35.855   1.569 -15.447  0.00  0.00    -0.235 N 
HETATM   17  N           1     -34.572   1.132 -13.686  0.00  0.00    -0.235 N 
HETATM   18  H           1     -36.025   2.537 -15.093  0.00  0.00     0.174 HD
HETATM   19  H           1     -36.292   1.257 -16.344  0.00  0.00     0.174 HD
HETATM   20  H           1     -33.962   0.473 -13.142  0.00  0.00     0.174 HD
HETATM   21  H           1     -34.743   2.105 -13.331  0.00  0.00     0.174 HD
ENDBRANCH  12  13
ENDBRANCH  11  12
ENDBRANCH  10  11
ENDBRANCH   5  10
ENDBRANCH   1   5
BRANCH   2  22
HETATM   22  C           1     -30.372  -6.083 -17.110  0.00  0.00     0.187 C 
BRANCH  22  23
HETATM   23  C           1     -30.403  -7.428 -17.795  0.00  0.00     0.196 C 
HETATM   24  O           1     -31.140  -7.606 -18.789  0.00  0.00    -0.646 OA
HETATM   25  O           1     -29.692  -8.364 -17.369  0.00  0.00    -0.646 OA
ENDBRANCH  22  23
BRANCH  22  26
HETATM   26  C           1     -29.456  -6.152 -15.895  0.00  0.00     0.066 C 
BRANCH  26  27
HETATM   27  C           1     -28.529  -4.944 -15.887  0.00  0.00     0.273 C 
BRANCH  27  28
HETATM   28  N           1     -27.575  -5.064 -16.957  0.00  0.00     0.101 N 
HETATM   29  H           1     -26.801  -4.421 -16.796  0.00  0.00     0.317 HD
BRANCH  28  30
HETATM   30  C           1     -27.083  -6.416 -16.954  0.00  0.00     0.348 C 
BRANCH  30  31
HETATM   31  C           1     -25.917  -6.524 -16.003  0.00  0.00     0.210 C 
HETATM   32  O           1     -25.777  -7.548 -15.299  0.00  0.00    -0.646 OA
HETATM   33  O           1     -25.091  -5.589 -15.918  0.00  0.00    -0.646 OA
ENDBRANCH  30  31
BRANCH  30  34
HETATM   34  C           1     -26.631  -6.794 -18.358  0.00  0.00     0.158 C 
HETATM   35  C           1     -27.387  -5.954 -19.378  0.00  0.00     0.042 C 
BRANCH  34  36
HETATM   36  O           1     -25.254  -6.558 -18.484  0.00  0.00    -0.393 OA
HETATM   37  H           1     -24.838  -7.399 -18.565  0.00  0.00     0.210 HD
ENDBRANCH  34  36
ENDBRANCH  30  34
ENDBRANCH  28  30
ENDBRANCH  27  28
ENDBRANCH  26  27
ENDBRANCH  22  26
ENDBRANCH   2  22
TORSDOF 15
ENDMDL
MODEL 5
REMARK VINA RESULT:      -6.2      2.849      7.762
REMARK  15 active torsions:
REMARK  status: ('A' for Active; 'I' for Inactive)
REMARK       I    between atoms: C_1  and  N_2 
REMARK    1  A    between atoms: C_1  and  C_33 
REMARK    2  A    between atoms: N_2  and  C_6 
REMARK    3  A    between atoms: C_5  and  C_6 
REMARK    4  A    between atoms: C_6  and  C_7 
REMARK    5  A    between atoms: C_7  and  C_8 
REMARK    6  A    between atoms: C_8  and  N_9 
REMARK    7  A    between atoms: N_9  and  C_13 
REMARK    8  A    between atoms: C_12  and  C_13 
REMARK    9  A    between atoms: C_13  and  C_15 
REMARK   10  A    between atoms: O_14  and  C_15 
REMARK   11  A    between atoms: N_25  and  C_33 
REMARK       I    between atoms: N_26  and  C_28 
REMARK       I    between atoms: N_27  and  C_28 
REMARK   12  A    between atoms: N_29  and  C_30 
REMARK   13  A    between atoms: C_30  and  C_31 
REMARK   14  A    between atoms: C_31  and  C_32 
REMARK   15  A    between atoms: C_32  and  C_33 
ROOT
HETATM    1  C           1     -21.577  -6.169  -4.987  0.00  0.00     0.249 C 
HETATM    2  N           1     -21.072  -6.831  -3.901  0.00  0.00    -0.345 N 
HETATM    3  H           1     -20.071  -6.882  -3.759  0.00  0.00     0.163 HD
HETATM    4  O           1     -22.771  -6.109  -5.156  0.00  0.00    -0.271 OA
ENDROOT
BRANCH   1   5
HETATM    5  C           1     -20.641  -5.514  -5.973  0.00  0.00     0.274 C 
BRANCH   5   6
HETATM    6  N           1     -20.062  -6.557  -6.881  0.00  0.00    -0.067 N 
HETATM    7  H           1     -20.587  -6.564  -7.785  0.00  0.00     0.275 HD
HETATM    8  H           1     -19.056  -6.339  -7.066  0.00  0.00     0.275 HD
HETATM    9  H           1     -20.137  -7.495  -6.428  0.00  0.00     0.275 HD
ENDBRANCH   5   6
BRANCH   5  10
HETATM   10  C           1     -21.410  -4.492  -6.801  0.00  0.00     0.044 C 
BRANCH  10  11
HETATM   11  C           1     -21.595  -5.020  -8.216  0.00  0.00     0.023 C 
BRANCH  11  12
HETATM   12  C           1     -22.030  -3.882  -9.131  0.00  0.00     0.138 C 
BRANCH  12  13
HETATM   13  N           1     -23.448  -3.576  -8.894  0.00  0.00    -0.227 N 
HETATM   14  H           1     -23.744  -3.133  -7.989  0.00  0.00     0.177 HD
HETATM   15  C           1     -24.312  -3.846  -9.779  0.00  0.00     0.665 C 
HETATM   16  N           1     -23.944  -4.394 -10.899  0.00  0.00    -0.235 N 
HETATM   17  N           1     -25.533  -3.583  -9.574  0.00  0.00    -0.235 N 
HETATM   18  H           1     -24.656  -4.617 -11.630  0.00  0.00     0.174 HD
HETATM   19  H           1     -22.935  -4.612 -11.068  0.00  0.00     0.174 HD
HETATM   20  H           1     -25.829  -3.140  -8.669  0.00  0.00     0.174 HD
HETATM   21  H           1     -26.248  -3.807 -10.309  0.00  0.00     0.174 HD
ENDBRANCH  12  13
ENDBRANCH  11  12
ENDBRANCH  10  11
ENDBRANCH   5  10
ENDBRANCH   1   5
BRANCH   2  22
HETATM   22  C           1     -21.970  -7.462  -2.954  0.00  0.00     0.187 C 
BRANCH  22  23
HETATM   23  C           1     -22.199  -6.534  -1.786  0.00  0.00     0.196 C 
HETATM   24  O           1     -21.834  -5.340  -1.856  0.00  0.00    -0.646 OA
HETATM   25  O           1     -22.753  -6.958  -0.749  0.00  0.00    -0.646 OA
ENDBRANCH  22  23
BRANCH  22  26
HETATM   26  C           1     -21.352  -8.763  -2.457  0.00  0.00     0.066 C 
BRANCH  26  27
HETATM   27  C           1     -19.836  -8.627  -2.429  0.00  0.00     0.273 C 
BRANCH  27  28
HETATM   28  N           1     -19.240  -9.772  -3.064  0.00  0.00     0.101 N 
HETATM   29  H           1     -19.970 -10.337  -3.499  0.00  0.00     0.317 HD
BRANCH  28  30
HETATM   30  C           1     -18.340  -9.291  -4.077  0.00  0.00     0.348 C 
BRANCH  30  31
HETATM   31  C           1     -18.936  -9.543  -5.440  0.00  0.00     0.210 C 
HETATM   32  O           1     -18.206  -9.927  -6.380  0.00  0.00    -0.646 OA
HETATM   33  O           1     -20.159  -9.369  -5.630  0.00  0.00    -0.646 OA
ENDBRANCH  30  31
BRANCH  30  34
HETATM   34  C           1     -17.009 -10.021  -3.961  0.00  0.00     0.158 C 
HETATM   35  C           1     -16.236  -9.479  -2.766  0.00  0.00     0.042 C 
BRANCH  34  36
HETATM   36  O           1     -17.243 -11.392  -3.784  0.00  0.00    -0.393 OA
HETATM   37  H           1     -16.653 -11.685  -3.111  0.00  0.00     0.210 HD
ENDBRANCH  34  36
ENDBRANCH  30  34
ENDBRANCH  28  30
ENDBRANCH  27  28
ENDBRANCH  26  27
ENDBRANCH  22  26
ENDBRANCH   2  22
TORSDOF 15
ENDMDL
MODEL 6
REMARK VINA RESULT:      -6.0     11.717     14.638
REMARK  15 active torsions:
REMARK  status: ('A' for Active; 'I' for Inactive)
REMARK       I    between atoms: C_1  and  N_2 
REMARK    1  A    between atoms: C_1  and  C_33 
REMARK    2  A    between atoms: N_2  and  C_6 
REMARK    3  A    between atoms: C_5  and  C_6 
REMARK    4  A    between atoms: C_6  and  C_7 
REMARK    5  A    between atoms: C_7  and  C_8 
REMARK    6  A    between atoms: C_8  and  N_9 
REMARK    7  A    between atoms: N_9  and  C_13 
REMARK    8  A    between atoms: C_12  and  C_13 
REMARK    9  A    between atoms: C_13  and  C_15 
REMARK   10  A    between atoms: O_14  and  C_15 
REMARK   11  A    between atoms: N_25  and  C_33 
REMARK       I    between atoms: N_26  and  C_28 
REMARK       I    between atoms: N_27  and  C_28 
REMARK   12  A    between atoms: N_29  and  C_30 
REMARK   13  A    between atoms: C_30  and  C_31 
REMARK   14  A    between atoms: C_31  and  C_32 
REMARK   15  A    between atoms: C_32  and  C_33 
ROOT
HETATM    1  C           1     -31.436  -5.408 -16.576  0.00  0.00     0.249 C 
HETATM    2  N           1     -32.237  -4.493 -15.948  0.00  0.00    -0.345 N 
HETATM    3  H           1     -31.840  -3.847 -15.278  0.00  0.00     0.163 HD
HETATM    4  O           1     -31.911  -6.179 -17.375  0.00  0.00    -0.271 OA
ENDROOT
BRANCH   1   5
HETATM    5  C           1     -29.959  -5.454 -16.269  0.00  0.00     0.274 C 
BRANCH   5   6
HETATM    6  N           1     -29.761  -5.700 -14.804  0.00  0.00    -0.067 N 
HETATM    7  H           1     -29.878  -6.720 -14.602  0.00  0.00     0.275 HD
HETATM    8  H           1     -28.799  -5.400 -14.527  0.00  0.00     0.275 HD
HETATM    9  H           1     -30.466  -5.155 -14.260  0.00  0.00     0.275 HD
ENDBRANCH   5   6
BRANCH   5  10
HETATM   10  C           1     -29.310  -6.578 -17.065  0.00  0.00     0.044 C 
BRANCH  10  11
HETATM   11  C           1     -28.131  -6.026 -17.856  0.00  0.00     0.023 C 
BRANCH  11  12
HETATM   12  C           1     -26.936  -5.846 -16.929  0.00  0.00     0.138 C 
BRANCH  12  13
HETATM   13  N           1     -25.878  -6.795 -17.303  0.00  0.00    -0.227 N 
HETATM   14  H           1     -25.889  -7.247 -18.251  0.00  0.00     0.177 HD
HETATM   15  C           1     -24.953  -7.069 -16.483  0.00  0.00     0.665 C 
HETATM   16  N           1     -24.940  -6.510 -15.309  0.00  0.00    -0.235 N 
HETATM   17  N           1     -24.042  -7.887 -16.805  0.00  0.00    -0.235 N 
HETATM   18  H           1     -24.177  -6.735 -14.632  0.00  0.00     0.174 HD
HETATM   19  H           1     -25.692  -5.835 -15.043  0.00  0.00     0.174 HD
HETATM   20  H           1     -24.053  -8.338 -17.753  0.00  0.00     0.174 HD
HETATM   21  H           1     -23.275  -8.113 -16.124  0.00  0.00     0.174 HD
ENDBRANCH  12  13
ENDBRANCH  11  12
ENDBRANCH  10  11
ENDBRANCH   5  10
ENDBRANCH   1   5
BRANCH   2  22
HETATM   22  C           1     -33.656  -4.449 -16.242  0.00  0.00     0.187 C 
BRANCH  22  23
HETATM   23  C           1     -34.021  -3.076 -16.753  0.00  0.00     0.196 C 
HETATM   24  O           1     -35.044  -2.502 -16.323  0.00  0.00    -0.646 OA
HETATM   25  O           1     -33.301  -2.515 -17.606  0.00  0.00    -0.646 OA
ENDBRANCH  22  23
BRANCH  22  26
HETATM   26  C           1     -34.447  -4.746 -14.974  0.00  0.00     0.066 C 
BRANCH  26  27
HETATM   27  C           1     -33.705  -4.183 -13.769  0.00  0.00     0.273 C 
BRANCH  27  28
HETATM   28  N           1     -34.407  -3.032 -13.268  0.00  0.00     0.101 N 
HETATM   29  H           1     -35.411  -3.209 -13.292  0.00  0.00     0.317 HD
BRANCH  28  30
HETATM   30  C           1     -33.991  -2.824 -11.907  0.00  0.00     0.348 C 
BRANCH  30  31
HETATM   31  C           1     -34.702  -3.805 -11.008  0.00  0.00     0.210 C 
HETATM   32  O           1     -35.950  -3.869 -11.016  0.00  0.00    -0.646 OA
HETATM   33  O           1     -34.042  -4.555 -10.256  0.00  0.00    -0.646 OA
ENDBRANCH  30  31
BRANCH  30  34
HETATM   34  C           1     -34.337  -1.403 -11.482  0.00  0.00     0.158 C 
HETATM   35  C           1     -35.245  -0.768 -12.528  0.00  0.00     0.042 C 
BRANCH  34  36
HETATM   36  O           1     -34.998  -1.434 -10.246  0.00  0.00    -0.393 OA
HETATM   37  H           1     -34.714  -0.675  -9.766  0.00  0.00     0.210 HD
ENDBRANCH  34  36
ENDBRANCH  30  34
ENDBRANCH  28  30
ENDBRANCH  27  28
ENDBRANCH  26  27
ENDBRANCH  22  26
ENDBRANCH   2  22
TORSDOF 15
ENDMDL
MODEL 7
REMARK VINA RESULT:      -5.9      2.588      7.476
REMARK  15 active torsions:
REMARK  status: ('A' for Active; 'I' for Inactive)
REMARK       I    between atoms: C_1  and  N_2 
REMARK    1  A    between atoms: C_1  and  C_33 
REMARK    2  A    between atoms: N_2  and  C_6 
REMARK    3  A    between atoms: C_5  and  C_6 
REMARK    4  A    between atoms: C_6  and  C_7 
REMARK    5  A    between atoms: C_7  and  C_8 
REMARK    6  A    between atoms: C_8  and  N_9 
REMARK    7  A    between atoms: N_9  and  C_13 
REMARK    8  A    between atoms: C_12  and  C_13 
REMARK    9  A    between atoms: C_13  and  C_15 
REMARK   10  A    between atoms: O_14  and  C_15 
REMARK   11  A    between atoms: N_25  and  C_33 
REMARK       I    between atoms: N_26  and  C_28 
REMARK       I    between atoms: N_27  and  C_28 
REMARK   12  A    between atoms: N_29  and  C_30 
REMARK   13  A    between atoms: C_30  and  C_31 
REMARK   14  A    between atoms: C_31  and  C_32 
REMARK   15  A    between atoms: C_32  and  C_33 
ROOT
HETATM    1  C           1     -20.884  -5.909  -5.678  0.00  0.00     0.249 C 
HETATM    2  N           1     -21.001  -6.001  -4.318  0.00  0.00    -0.345 N 
HETATM    3  H           1     -20.774  -5.206  -3.735  0.00  0.00     0.163 HD
HETATM    4  O           1     -21.154  -6.858  -6.374  0.00  0.00    -0.271 OA
ENDROOT
BRANCH   1   5
HETATM    5  C           1     -20.416  -4.620  -6.309  0.00  0.00     0.274 C 
BRANCH   5   6
HETATM    6  N           1     -19.168  -4.875  -7.101  0.00  0.00    -0.067 N 
HETATM    7  H           1     -19.083  -5.898  -7.298  0.00  0.00     0.275 HD
HETATM    8  H           1     -19.215  -4.350  -8.003  0.00  0.00     0.275 HD
HETATM    9  H           1     -18.337  -4.556  -6.554  0.00  0.00     0.275 HD
ENDBRANCH   5   6
BRANCH   5  10
HETATM   10  C           1     -21.502  -4.084  -7.233  0.00  0.00     0.044 C 
BRANCH  10  11
HETATM   11  C           1     -20.984  -4.059  -8.665  0.00  0.00     0.023 C 
BRANCH  11  12
HETATM   12  C           1     -22.081  -4.528  -9.611  0.00  0.00     0.138 C 
BRANCH  12  13
HETATM   13  N           1     -23.371  -3.966  -9.185  0.00  0.00    -0.227 N 
HETATM   14  H           1     -23.465  -3.531  -8.233  0.00  0.00     0.177 HD
HETATM   15  C           1     -24.368  -4.006  -9.963  0.00  0.00     0.665 C 
HETATM   16  N           1     -24.251  -4.545 -11.141  0.00  0.00    -0.235 N 
HETATM   17  N           1     -25.479  -3.523  -9.596  0.00  0.00    -0.235 N 
HETATM   18  H           1     -25.074  -4.579 -11.784  0.00  0.00     0.174 HD
HETATM   19  H           1     -23.335  -4.945 -11.444  0.00  0.00     0.174 HD
HETATM   20  H           1     -25.573  -3.088  -8.645  0.00  0.00     0.174 HD
HETATM   21  H           1     -26.306  -3.557 -10.243  0.00  0.00     0.174 HD
ENDBRANCH  12  13
ENDBRANCH  11  12
ENDBRANCH  10  11
ENDBRANCH   5  10
ENDBRANCH   1   5
BRANCH   2  22
HETATM   22  C           1     -21.449  -7.239  -3.711  0.00  0.00     0.187 C 
BRANCH  22  23
HETATM   23  C           1     -21.950  -6.960  -2.314  0.00  0.00     0.196 C 
HETATM   24  O           1     -21.780  -7.807  -1.410  0.00  0.00    -0.646 OA
HETATM   25  O           1     -22.534  -5.885  -2.062  0.00  0.00    -0.646 OA
ENDBRANCH  22  23
BRANCH  22  26
HETATM   26  C           1     -20.288  -8.223  -3.648  0.00  0.00     0.066 C 
BRANCH  26  27
HETATM   27  C           1     -20.759  -9.594  -4.116  0.00  0.00     0.273 C 
BRANCH  27  28
HETATM   28  N           1     -20.373  -9.791  -5.488  0.00  0.00     0.101 N 
HETATM   29  H           1     -20.018  -8.914  -5.870  0.00  0.00     0.317 HD
BRANCH  28  30
HETATM   30  C           1     -19.330 -10.780  -5.512  0.00  0.00     0.348 C 
BRANCH  30  31
HETATM   31  C           1     -18.037 -10.139  -5.952  0.00  0.00     0.210 C 
HETATM   32  O           1     -16.947 -10.702  -5.715  0.00  0.00    -0.646 OA
HETATM   33  O           1     -18.057  -9.043  -6.555  0.00  0.00    -0.646 OA
ENDBRANCH  30  31
BRANCH  30  34
HETATM   34  C           1     -19.704 -11.889  -6.486  0.00  0.00     0.158 C 
HETATM   35  C           1     -21.203 -11.844  -6.753  0.00  0.00     0.042 C 
BRANCH  34  36
HETATM   36  O           1     -19.009 -11.707  -7.690  0.00  0.00    -0.393 OA
HETATM   37  H           1     -18.100 -11.875  -7.508  0.00  0.00     0.210 HD
ENDBRANCH  34  36
ENDBRANCH  30  34
ENDBRANCH  28  30
ENDBRANCH  27  28
ENDBRANCH  26  27
ENDBRANCH  22  26
ENDBRANCH   2  22
TORSDOF 15
ENDMDL
MODEL 8
REMARK VINA RESULT:      -5.9      3.026      8.394
REMARK  15 active torsions:
REMARK  status: ('A' for Active; 'I' for Inactive)
REMARK       I    between atoms: C_1  and  N_2 
REMARK    1  A    between atoms: C_1  and  C_33 
REMARK    2  A    between atoms: N_2  and  C_6 
REMARK    3  A    between atoms: C_5  and  C_6 
REMARK    4  A    between atoms: C_6  and  C_7 
REMARK    5  A    between atoms: C_7  and  C_8 
REMARK    6  A    between atoms: C_8  and  N_9 
REMARK    7  A    between atoms: N_9  and  C_13 
REMARK    8  A    between atoms: C_12  and  C_13 
REMARK    9  A    between atoms: C_13  and  C_15 
REMARK   10  A    between atoms: O_14  and  C_15 
REMARK   11  A    between atoms: N_25  and  C_33 
REMARK       I    between atoms: N_26  and  C_28 
REMARK       I    between atoms: N_27  and  C_28 
REMARK   12  A    between atoms: N_29  and  C_30 
REMARK   13  A    between atoms: C_30  and  C_31 
REMARK   14  A    between atoms: C_31  and  C_32 
REMARK   15  A    between atoms: C_32  and  C_33 
ROOT
HETATM    1  C           1     -20.894  -5.617  -6.319  0.00  0.00     0.249 C 
HETATM    2  N           1     -20.964  -6.965  -6.098  0.00  0.00    -0.345 N 
HETATM    3  H           1     -21.351  -7.576  -6.806  0.00  0.00     0.163 HD
HETATM    4  O           1     -20.432  -4.889  -5.474  0.00  0.00    -0.271 OA
ENDROOT
BRANCH   1   5
HETATM    5  C           1     -21.394  -5.039  -7.621  0.00  0.00     0.274 C 
BRANCH   5   6
HETATM    6  N           1     -22.556  -4.132  -7.351  0.00  0.00    -0.067 N 
HETATM    7  H           1     -22.550  -3.845  -6.346  0.00  0.00     0.275 HD
HETATM    8  H           1     -22.482  -3.282  -7.955  0.00  0.00     0.275 HD
HETATM    9  H           1     -23.447  -4.634  -7.564  0.00  0.00     0.275 HD
ENDBRANCH   5   6
BRANCH   5  10
HETATM   10  C           1     -20.276  -4.247  -8.287  0.00  0.00     0.044 C 
BRANCH  10  11
HETATM   11  C           1     -20.230  -4.583  -9.772  0.00  0.00     0.023 C 
BRANCH  11  12
HETATM   12  C           1     -21.230  -3.714 -10.522  0.00  0.00     0.138 C 
BRANCH  12  13
HETATM   13  N           1     -21.863  -4.504 -11.589  0.00  0.00    -0.227 N 
HETATM   14  H           1     -21.278  -4.906 -12.362  0.00  0.00     0.177 HD
HETATM   15  C           1     -23.114  -4.698 -11.575  0.00  0.00     0.665 C 
HETATM   16  N           1     -23.838  -4.199 -10.618  0.00  0.00    -0.235 N 
HETATM   17  N           1     -23.660  -5.377 -12.494  0.00  0.00    -0.235 N 
HETATM   18  H           1     -24.871  -4.360 -10.606  0.00  0.00     0.174 HD
HETATM   19  H           1     -23.389  -3.638  -9.859  0.00  0.00     0.174 HD
HETATM   20  H           1     -23.074  -5.780 -13.267  0.00  0.00     0.174 HD
HETATM   21  H           1     -24.697  -5.539 -12.481  0.00  0.00     0.174 HD
ENDBRANCH  12  13
ENDBRANCH  11  12
ENDBRANCH  10  11
ENDBRANCH   5  10
ENDBRANCH   1   5
BRANCH   2  22
HETATM   22  C           1     -20.484  -7.521  -4.847  0.00  0.00     0.187 C 
BRANCH  22  23
HETATM   23  C           1     -19.872  -8.877  -5.103  0.00  0.00     0.196 C 
HETATM   24  O           1     -20.450  -9.691  -5.854  0.00  0.00    -0.646 OA
HETATM   25  O           1     -18.788  -9.185  -4.563  0.00  0.00    -0.646 OA
ENDBRANCH  22  23
BRANCH  22  26
HETATM   26  C           1     -21.649  -7.664  -3.876  0.00  0.00     0.066 C 
BRANCH  26  27
HETATM   27  C           1     -21.302  -6.976  -2.562  0.00  0.00     0.273 C 
BRANCH  27  28
HETATM   28  N           1     -20.811  -7.952  -1.625  0.00  0.00     0.101 N 
HETATM   29  H           1     -20.359  -7.476  -0.844  0.00  0.00     0.317 HD
BRANCH  28  30
HETATM   30  C           1     -21.940  -8.699  -1.141  0.00  0.00     0.348 C 
BRANCH  30  31
HETATM   31  C           1     -22.262  -8.267   0.269  0.00  0.00     0.210 C 
HETATM   32  O           1     -23.452  -8.133   0.625  0.00  0.00    -0.646 OA
HETATM   33  O           1     -21.337  -8.045   1.081  0.00  0.00    -0.646 OA
ENDBRANCH  30  31
BRANCH  30  34
HETATM   34  C           1     -21.608 -10.185  -1.154  0.00  0.00     0.158 C 
HETATM   35  C           1     -20.131 -10.372  -1.473  0.00  0.00     0.042 C 
BRANCH  34  36
HETATM   36  O           1     -21.889 -10.737   0.105  0.00  0.00    -0.393 OA
HETATM   37  H           1     -22.078 -11.649  -0.033  0.00  0.00     0.210 HD
ENDBRANCH  34  36
ENDBRANCH  30  34
ENDBRANCH  28  30
ENDBRANCH  27  28
ENDBRANCH  26  27
ENDBRANCH  22  26
ENDBRANCH   2  22
TORSDOF 15
ENDMDL
MODEL 9
REMARK VINA RESULT:      -5.6      3.487      8.311
REMARK  15 active torsions:
REMARK  status: ('A' for Active; 'I' for Inactive)
REMARK       I    between atoms: C_1  and  N_2 
REMARK    1  A    between atoms: C_1  and  C_33 
REMARK    2  A    between atoms: N_2  and  C_6 
REMARK    3  A    between atoms: C_5  and  C_6 
REMARK    4  A    between atoms: C_6  and  C_7 
REMARK    5  A    between atoms: C_7  and  C_8 
REMARK    6  A    between atoms: C_8  and  N_9 
REMARK    7  A    between atoms: N_9  and  C_13 
REMARK    8  A    between atoms: C_12  and  C_13 
REMARK    9  A    between atoms: C_13  and  C_15 
REMARK   10  A    between atoms: O_14  and  C_15 
REMARK   11  A    between atoms: N_25  and  C_33 
REMARK       I    between atoms: N_26  and  C_28 
REMARK       I    between atoms: N_27  and  C_28 
REMARK   12  A    between atoms: N_29  and  C_30 
REMARK   13  A    between atoms: C_30  and  C_31 
REMARK   14  A    between atoms: C_31  and  C_32 
REMARK   15  A    between atoms: C_32  and  C_33 
ROOT
HETATM    1  C           1     -20.394  -6.850  -5.220  0.00  0.00     0.249 C 
HETATM    2  N           1     -19.906  -8.074  -5.589  0.00  0.00    -0.345 N 
HETATM    3  H           1     -19.566  -8.221  -6.531  0.00  0.00     0.163 HD
HETATM    4  O           1     -20.800  -6.675  -4.096  0.00  0.00    -0.271 OA
ENDROOT
BRANCH   1   5
HETATM    5  C           1     -20.423  -5.717  -6.218  0.00  0.00     0.274 C 
BRANCH   5   6
HETATM    6  N           1     -19.676  -6.121  -7.454  0.00  0.00    -0.067 N 
HETATM    7  H           1     -18.650  -6.131  -7.253  0.00  0.00     0.275 HD
HETATM    8  H           1     -19.981  -7.076  -7.749  0.00  0.00     0.275 HD
HETATM    9  H           1     -19.875  -5.439  -8.220  0.00  0.00     0.275 HD
ENDBRANCH   5   6
BRANCH   5  10
HETATM   10  C           1     -21.868  -5.398  -6.581  0.00  0.00     0.044 C 
BRANCH  10  11
HETATM   11  C           1     -21.969  -5.128  -8.076  0.00  0.00     0.023 C 
BRANCH  11  12
HETATM   12  C           1     -22.454  -3.703  -8.304  0.00  0.00     0.138 C 
BRANCH  12  13
HETATM   13  N           1     -23.919  -3.697  -8.426  0.00  0.00    -0.227 N 
HETATM   14  H           1     -24.517  -3.773  -7.566  0.00  0.00     0.177 HD
HETATM   15  C           1     -24.460  -3.600  -9.567  0.00  0.00     0.665 C 
HETATM   16  N           1     -23.718  -3.506 -10.630  0.00  0.00    -0.235 N 
HETATM   17  N           1     -25.721  -3.596  -9.672  0.00  0.00    -0.235 N 
HETATM   18  H           1     -24.164  -3.425 -11.572  0.00  0.00     0.174 HD
HETATM   19  H           1     -22.677  -3.510 -10.544  0.00  0.00     0.174 HD
HETATM   20  H           1     -26.320  -3.672  -8.812  0.00  0.00     0.174 HD
HETATM   21  H           1     -26.169  -3.515 -10.618  0.00  0.00     0.174 HD
ENDBRANCH  12  13
ENDBRANCH  11  12
ENDBRANCH  10  11
ENDBRANCH   5  10
ENDBRANCH   1   5
BRANCH   2  22
HETATM   22  C           1     -19.878  -9.162  -4.632  0.00  0.00     0.187 C 
BRANCH  22  23
HETATM   23  C           1     -18.928 -10.231  -5.115  0.00  0.00     0.196 C 
HETATM   24  O           1     -18.971 -10.614  -6.304  0.00  0.00    -0.646 OA
HETATM   25  O           1     -18.099 -10.734  -4.326  0.00  0.00    -0.646 OA
ENDBRANCH  22  23
BRANCH  22  26
HETATM   26  C           1     -21.276  -9.750  -4.490  0.00  0.00     0.066 C 
BRANCH  26  27
HETATM   27  C           1     -21.527 -10.121  -3.035  0.00  0.00     0.273 C 
BRANCH  27  28
HETATM   28  N           1     -21.976  -8.960  -2.314  0.00  0.00     0.101 N 
HETATM   29  H           1     -22.979  -8.839  -2.455  0.00  0.00     0.317 HD
BRANCH  28  30
HETATM   30  C           1     -21.713  -9.183  -0.918  0.00  0.00     0.348 C 
BRANCH  30  31
HETATM   31  C           1     -22.535 -10.350  -0.431  0.00  0.00     0.210 C 
HETATM   32  O           1     -22.053 -11.152   0.398  0.00  0.00    -0.646 OA
HETATM   33  O           1     -23.699 -10.516  -0.857  0.00  0.00    -0.646 OA
ENDBRANCH  30  31
BRANCH  30  34
HETATM   34  C           1     -22.083  -7.936  -0.127  0.00  0.00     0.158 C 
HETATM   35  C           1     -22.340  -6.783  -1.088  0.00  0.00     0.042 C 
BRANCH  34  36
HETATM   36  O           1     -23.241  -8.186   0.623  0.00  0.00    -0.393 OA
HETATM   37  H           1     -23.070  -8.952   1.143  0.00  0.00     0.210 HD
ENDBRANCH  34  36
ENDBRANCH  30  34
ENDBRANCH  28  30
ENDBRANCH  27  28
ENDBRANCH  26  27
ENDBRANCH  22  26
ENDBRANCH   2  22
TORSDOF 15
ENDMDL
