MODEL 1
REMARK VINA RESULT:      -6.3      0.000      0.000
REMARK  7 active torsions:
REMARK  status: ('A' for Active; 'I' for Inactive)
REMARK    1  A    between atoms: C_1  and  C_2 
REMARK    2  A    between atoms: C_1  and  N_5 
REMARK       I    between atoms: N_5  and  C_6 
REMARK    3  A    between atoms: C_6  and  C_7 
REMARK    4  A    between atoms: C_7  and  C_15 
REMARK    5  A    between atoms: C_7  and  N_13 
REMARK    6  A    between atoms: C_8  and  C_15 
REMARK    7  A    between atoms: C_8  and  C_10 
ROOT
HETATM    1  C           1     -29.315  -6.728 -17.711  0.00  0.00     0.275 C 
ENDROOT
BRANCH   1   2
HETATM    2  C           1     -28.293  -6.362 -18.759  0.00  0.00     0.249 C 
HETATM    3  N           1     -27.475  -7.325 -19.284  0.00  0.00    -0.345 N 
HETATM    4  H           1     -27.555  -8.283 -18.969  0.00  0.00     0.163 HD
HETATM    5  O           1     -28.197  -5.217 -19.135  0.00  0.00    -0.271 OA
BRANCH   3   6
HETATM    6  C           1     -26.492  -6.972 -20.291  0.00  0.00     0.181 C 
HETATM    7  C           1     -25.160  -6.673 -19.617  0.00  0.00     0.043 C 
BRANCH   6   8
HETATM    8  C           1     -26.324  -8.122 -21.252  0.00  0.00     0.196 C 
HETATM    9  O           1     -25.208  -8.347 -21.769  0.00  0.00    -0.646 OA
HETATM   10  O           1     -27.301  -8.851 -21.532  0.00  0.00    -0.646 OA
ENDBRANCH   6   8
ENDBRANCH   3   6
ENDBRANCH   1   2
BRANCH   1  11
HETATM   11  C           1     -28.853  -6.222 -16.351  0.00  0.00     0.053 C 
BRANCH  11  12
HETATM   12  C           1     -27.909  -7.239 -15.724  0.00  0.00     0.115 C 
BRANCH  12  13
HETATM   13  C           1     -26.490  -6.734 -15.818  0.00  0.00     0.172 C 
HETATM   14  O           1     -25.540  -7.472 -15.478  0.00  0.00    -0.648 OA
HETATM   15  O           1     -26.265  -5.578 -16.237  0.00  0.00    -0.648 OA
ENDBRANCH  12  13
ENDBRANCH  11  12
ENDBRANCH   1  11
BRANCH   1  16
HETATM   16  N           1     -29.468  -8.220 -17.663  0.00  0.00    -0.066 N 
HETATM   17  H           1     -29.073  -8.582 -16.766  0.00  0.00     0.275 HD
HETATM   18  H           1     -30.481  -8.469 -17.723  0.00  0.00     0.275 HD
HETATM   19  H           1     -28.955  -8.649 -18.467  0.00  0.00     0.275 HD
ENDBRANCH   1  16
TORSDOF 7
ENDMDL
MODEL 2
REMARK VINA RESULT:      -6.1      9.405     11.948
REMARK  7 active torsions:
REMARK  status: ('A' for Active; 'I' for Inactive)
REMARK    1  A    between atoms: C_1  and  C_2 
REMARK    2  A    between atoms: C_1  and  N_5 
REMARK       I    between atoms: N_5  and  C_6 
REMARK    3  A    between atoms: C_6  and  C_7 
REMARK    4  A    between atoms: C_7  and  C_15 
REMARK    5  A    between atoms: C_7  and  N_13 
REMARK    6  A    between atoms: C_8  and  C_15 
REMARK    7  A    between atoms: C_8  and  C_10 
ROOT
HETATM    1  C           1     -21.592  -3.602 -10.799  0.00  0.00     0.275 C 
ENDROOT
BRANCH   1   2
HETATM    2  C           1     -20.753  -4.484  -9.905  0.00  0.00     0.249 C 
HETATM    3  N           1     -21.063  -4.606  -8.579  0.00  0.00    -0.345 N 
HETATM    4  H           1     -21.855  -4.106  -8.196  0.00  0.00     0.163 HD
HETATM    5  O           1     -19.808  -5.081 -10.363  0.00  0.00    -0.271 OA
BRANCH   3   6
HETATM    6  C           1     -20.257  -5.454  -7.721  0.00  0.00     0.181 C 
HETATM    7  C           1     -19.212  -4.606  -7.007  0.00  0.00     0.043 C 
BRANCH   6   8
HETATM    8  C           1     -21.144  -6.124  -6.701  0.00  0.00     0.196 C 
HETATM    9  O           1     -22.050  -5.473  -6.135  0.00  0.00    -0.646 OA
HETATM   10  O           1     -20.974  -7.331  -6.421  0.00  0.00    -0.646 OA
ENDBRANCH   6   8
ENDBRANCH   3   6
ENDBRANCH   1   2
BRANCH   1  11
HETATM   11  C           1     -22.482  -4.469 -11.679  0.00  0.00     0.053 C 
BRANCH  11  12
HETATM   12  C           1     -23.631  -5.025 -10.850  0.00  0.00     0.115 C 
BRANCH  12  13
HETATM   13  C           1     -24.357  -3.890 -10.169  0.00  0.00     0.172 C 
HETATM   14  O           1     -25.123  -3.155 -10.829  0.00  0.00    -0.648 OA
HETATM   15  O           1     -24.192  -3.685  -8.947  0.00  0.00    -0.648 OA
ENDBRANCH  12  13
ENDBRANCH  11  12
ENDBRANCH   1  11
BRANCH   1  16
HETATM   16  N           1     -20.692  -2.769 -11.664  0.00  0.00    -0.066 N 
HETATM   17  H           1     -21.062  -1.793 -11.713  0.00  0.00     0.275 HD
HETATM   18  H           1     -19.731  -2.756 -11.255  0.00  0.00     0.275 HD
HETATM   19  H           1     -20.657  -3.178 -12.625  0.00  0.00     0.275 HD
ENDBRANCH   1  16
TORSDOF 7
ENDMDL
MODEL 3
REMARK VINA RESULT:      -6.0     10.651     12.840
REMARK  7 active torsions:
REMARK  status: ('A' for Active; 'I' for Inactive)
REMARK    1  A    between atoms: C_1  and  C_2 
REMARK    2  A    between atoms: C_1  and  N_5 
REMARK       I    between atoms: N_5  and  C_6 
REMARK    3  A    between atoms: C_6  and  C_7 
REMARK    4  A    between atoms: C_7  and  C_15 
REMARK    5  A    between atoms: C_7  and  N_13 
REMARK    6  A    between atoms: C_8  and  C_15 
REMARK    7  A    between atoms: C_8  and  C_10 
ROOT
HETATM    1  C           1     -21.208  -5.858  -6.937  0.00  0.00     0.275 C 
ENDROOT
BRANCH   1   2
HETATM    2  C           1     -21.674  -4.655  -7.722  0.00  0.00     0.249 C 
HETATM    3  N           1     -22.204  -4.818  -8.972  0.00  0.00    -0.345 N 
HETATM    4  H           1     -22.285  -5.745  -9.371  0.00  0.00     0.163 HD
HETATM    5  O           1     -21.577  -3.549  -7.245  0.00  0.00    -0.271 OA
BRANCH   3   6
HETATM    6  C           1     -22.652  -3.663  -9.727  0.00  0.00     0.181 C 
HETATM    7  C           1     -21.765  -3.482 -10.951  0.00  0.00     0.043 C 
BRANCH   6   8
HETATM    8  C           1     -24.080  -3.872 -10.165  0.00  0.00     0.196 C 
HETATM    9  O           1     -24.671  -2.984 -10.816  0.00  0.00    -0.646 OA
HETATM   10  O           1     -24.673  -4.935  -9.877  0.00  0.00    -0.646 OA
ENDBRANCH   6   8
ENDBRANCH   3   6
ENDBRANCH   1   2
BRANCH   1  11
HETATM   11  C           1     -21.218  -5.529  -5.450  0.00  0.00     0.053 C 
BRANCH  11  12
HETATM   12  C           1     -22.194  -6.450  -4.731  0.00  0.00     0.115 C 
BRANCH  12  13
HETATM   13  C           1     -21.795  -6.575  -3.281  0.00  0.00     0.172 C 
HETATM   14  O           1     -22.430  -5.953  -2.403  0.00  0.00    -0.648 OA
HETATM   15  O           1     -20.829  -7.300  -2.958  0.00  0.00    -0.648 OA
ENDBRANCH  12  13
ENDBRANCH  11  12
ENDBRANCH   1  11
BRANCH   1  16
HETATM   16  N           1     -19.815  -6.220  -7.359  0.00  0.00    -0.066 N 
HETATM   17  H           1     -19.161  -5.446  -7.102  0.00  0.00     0.275 HD
HETATM   18  H           1     -19.521  -7.097  -6.874  0.00  0.00     0.275 HD
HETATM   19  H           1     -19.791  -6.367  -8.393  0.00  0.00     0.275 HD
ENDBRANCH   1  16
TORSDOF 7
ENDMDL
MODEL 4
REMARK VINA RESULT:      -5.8      2.629      4.020
REMARK  7 active torsions:
REMARK  status: ('A' for Active; 'I' for Inactive)
REMARK    1  A    between atoms: C_1  and  C_2 
REMARK    2  A    between atoms: C_1  and  N_5 
REMARK       I    between atoms: N_5  and  C_6 
REMARK    3  A    between atoms: C_6  and  C_7 
REMARK    4  A    between atoms: C_7  and  C_15 
REMARK    5  A    between atoms: C_7  and  N_13 
REMARK    6  A    between atoms: C_8  and  C_15 
REMARK    7  A    between atoms: C_8  and  C_10 
ROOT
HETATM    1  C           1     -29.272  -6.048 -17.506  0.00  0.00     0.275 C 
ENDROOT
BRANCH   1   2
HETATM    2  C           1     -27.810  -5.755 -17.272  0.00  0.00     0.249 C 
HETATM    3  N           1     -26.861  -6.667 -17.645  0.00  0.00    -0.345 N 
HETATM    4  H           1     -27.139  -7.538 -18.078  0.00  0.00     0.163 HD
HETATM    5  O           1     -27.478  -4.715 -16.754  0.00  0.00    -0.271 OA
BRANCH   3   6
HETATM    6  C           1     -25.456  -6.386 -17.420  0.00  0.00     0.181 C 
HETATM    7  C           1     -24.964  -7.188 -16.223  0.00  0.00     0.043 C 
BRANCH   6   8
HETATM    8  C           1     -24.665  -6.771 -18.645  0.00  0.00     0.196 C 
HETATM    9  O           1     -25.250  -6.967 -19.732  0.00  0.00    -0.646 OA
HETATM   10  O           1     -23.422  -6.895 -18.573  0.00  0.00    -0.646 OA
ENDBRANCH   6   8
ENDBRANCH   3   6
ENDBRANCH   1   2
BRANCH   1  11
HETATM   11  C           1     -30.108  -5.341 -16.447  0.00  0.00     0.053 C 
BRANCH  11  12
HETATM   12  C           1     -31.492  -5.042 -17.008  0.00  0.00     0.115 C 
BRANCH  12  13
HETATM   13  C           1     -31.579  -3.582 -17.382  0.00  0.00     0.172 C 
HETATM   14  O           1     -32.681  -3.081 -17.690  0.00  0.00    -0.648 OA
HETATM   15  O           1     -30.548  -2.875 -17.383  0.00  0.00    -0.648 OA
ENDBRANCH  12  13
ENDBRANCH  11  12
ENDBRANCH   1  11
BRANCH   1  16
HETATM   16  N           1     -29.504  -7.527 -17.420  0.00  0.00    -0.066 N 
HETATM   17  H           1     -30.291  -7.719 -16.758  0.00  0.00     0.275 HD
HETATM   18  H           1     -29.750  -7.897 -18.366  0.00  0.00     0.275 HD
HETATM   19  H           1     -28.637  -7.997 -17.076  0.00  0.00     0.275 HD
ENDBRANCH   1  16
TORSDOF 7
ENDMDL
MODEL 5
REMARK VINA RESULT:      -5.7      2.065      5.178
REMARK  7 active torsions:
REMARK  status: ('A' for Active; 'I' for Inactive)
REMARK    1  A    between atoms: C_1  and  C_2 
REMARK    2  A    between atoms: C_1  and  N_5 
REMARK       I    between atoms: N_5  and  C_6 
REMARK    3  A    between atoms: C_6  and  C_7 
REMARK    4  A    between atoms: C_7  and  C_15 
REMARK    5  A    between atoms: C_7  and  N_13 
REMARK    6  A    between atoms: C_8  and  C_15 
REMARK    7  A    between atoms: C_8  and  C_10 
ROOT
HETATM    1  C           1     -24.847  -6.755 -17.308  0.00  0.00     0.275 C 
ENDROOT
BRANCH   1   2
HETATM    2  C           1     -26.100  -6.914 -16.481  0.00  0.00     0.249 C 
HETATM    3  N           1     -27.312  -6.549 -16.998  0.00  0.00    -0.345 N 
HETATM    4  H           1     -27.370  -6.174 -17.936  0.00  0.00     0.163 HD
HETATM    5  O           1     -26.030  -7.362 -15.361  0.00  0.00    -0.271 OA
BRANCH   3   6
HETATM    6  C           1     -28.516  -6.701 -16.203  0.00  0.00     0.181 C 
HETATM    7  C           1     -28.831  -5.386 -15.504  0.00  0.00     0.043 C 
BRANCH   6   8
HETATM    8  C           1     -29.666  -7.084 -17.101  0.00  0.00     0.196 C 
HETATM    9  O           1     -30.556  -6.247 -17.367  0.00  0.00    -0.646 OA
HETATM   10  O           1     -29.729  -8.237 -17.580  0.00  0.00    -0.646 OA
ENDBRANCH   6   8
ENDBRANCH   3   6
ENDBRANCH   1   2
BRANCH   1  11
HETATM   11  C           1     -25.211  -6.755 -18.787  0.00  0.00     0.053 C 
BRANCH  11  12
HETATM   12  C           1     -24.128  -7.478 -19.577  0.00  0.00     0.115 C 
BRANCH  12  13
HETATM   13  C           1     -24.679  -7.898 -20.919  0.00  0.00     0.172 C 
HETATM   14  O           1     -25.890  -8.185 -21.034  0.00  0.00    -0.648 OA
HETATM   15  O           1     -23.925  -7.960 -21.913  0.00  0.00    -0.648 OA
ENDBRANCH  12  13
ENDBRANCH  11  12
ENDBRANCH   1  11
BRANCH   1  16
HETATM   16  N           1     -23.914  -7.895 -17.024  0.00  0.00    -0.066 N 
HETATM   17  H           1     -22.926  -7.566 -17.114  0.00  0.00     0.275 HD
HETATM   18  H           1     -24.076  -8.243 -16.052  0.00  0.00     0.275 HD
HETATM   19  H           1     -24.088  -8.667 -17.706  0.00  0.00     0.275 HD
ENDBRANCH   1  16
TORSDOF 7
ENDMDL
MODEL 6
REMARK VINA RESULT:      -5.4     10.544     13.404
REMARK  7 active torsions:
REMARK  status: ('A' for Active; 'I' for Inactive)
REMARK    1  A    between atoms: C_1  and  C_2 
REMARK    2  A    between atoms: C_1  and  N_5 
REMARK       I    between atoms: N_5  and  C_6 
REMARK    3  A    between atoms: C_6  and  C_7 
REMARK    4  A    between atoms: C_7  and  C_15 
REMARK    5  A    between atoms: C_7  and  N_13 
REMARK    6  A    between atoms: C_8  and  C_15 
REMARK    7  A    between atoms: C_8  and  C_10 
ROOT
HETATM    1  C           1     -21.510  -4.760  -8.359  0.00  0.00     0.275 C 
ENDROOT
BRANCH   1   2
HETATM    2  C           1     -20.833  -5.522  -7.245  0.00  0.00     0.249 C 
HETATM    3  N           1     -21.541  -5.876  -6.130  0.00  0.00    -0.345 N 
HETATM    4  H           1     -22.519  -5.628  -6.051  0.00  0.00     0.163 HD
HETATM    5  O           1     -19.666  -5.818  -7.340  0.00  0.00    -0.271 OA
BRANCH   3   6
HETATM    6  C           1     -20.891  -6.608  -5.060  0.00  0.00     0.181 C 
HETATM    7  C           1     -21.246  -5.973  -3.722  0.00  0.00     0.043 C 
BRANCH   6   8
HETATM    8  C           1     -21.358  -8.042  -5.076  0.00  0.00     0.196 C 
HETATM    9  O           1     -22.015  -8.497  -4.116  0.00  0.00    -0.646 OA
HETATM   10  O           1     -21.087  -8.777  -6.052  0.00  0.00    -0.646 OA
ENDBRANCH   6   8
ENDBRANCH   3   6
ENDBRANCH   1   2
BRANCH   1  11
HETATM   11  C           1     -20.456  -4.091  -9.231  0.00  0.00     0.053 C 
BRANCH  11  12
HETATM   12  C           1     -20.578  -4.603 -10.660  0.00  0.00     0.115 C 
BRANCH  12  13
HETATM   13  C           1     -21.723  -3.902 -11.351  0.00  0.00     0.172 C 
HETATM   14  O           1     -22.706  -4.560 -11.753  0.00  0.00    -0.648 OA
HETATM   15  O           1     -21.686  -2.664 -11.520  0.00  0.00    -0.648 OA
ENDBRANCH  12  13
ENDBRANCH  11  12
ENDBRANCH   1  11
BRANCH   1  16
HETATM   16  N           1     -22.410  -3.714  -7.772  0.00  0.00    -0.066 N 
HETATM   17  H           1     -21.833  -2.991  -7.284  0.00  0.00     0.275 HD
HETATM   18  H           1     -22.961  -3.260  -8.535  0.00  0.00     0.275 HD
HETATM   19  H           1     -23.063  -4.159  -7.088  0.00  0.00     0.275 HD
ENDBRANCH   1  16
TORSDOF 7
ENDMDL
MODEL 7
REMARK VINA RESULT:      -5.3      2.221      3.513
REMARK  7 active torsions:
REMARK  status: ('A' for Active; 'I' for Inactive)
REMARK    1  A    between atoms: C_1  and  C_2 
REMARK    2  A    between atoms: C_1  and  N_5 
REMARK       I    between atoms: N_5  and  C_6 
REMARK    3  A    between atoms: C_6  and  C_7 
REMARK    4  A    between atoms: C_7  and  C_15 
REMARK    5  A    between atoms: C_7  and  N_13 
REMARK    6  A    between atoms: C_8  and  C_15 
REMARK    7  A    between atoms: C_8  and  C_10 
ROOT
HETATM    1  C           1     -28.187  -6.321 -16.859  0.00  0.00     0.275 C 
ENDROOT
BRANCH   1   2
HETATM    2  C           1     -26.749  -6.138 -17.279  0.00  0.00     0.249 C 
HETATM    3  N           1     -26.289  -6.730 -18.423  0.00  0.00    -0.345 N 
HETATM    4  H           1     -26.914  -7.291 -18.988  0.00  0.00     0.163 HD
HETATM    5  O           1     -26.003  -5.468 -16.603  0.00  0.00    -0.271 OA
BRANCH   3   6
HETATM    6  C           1     -24.907  -6.554 -18.826  0.00  0.00     0.181 C 
HETATM    7  C           1     -24.005  -7.376 -17.916  0.00  0.00     0.043 C 
BRANCH   6   8
HETATM    8  C           1     -24.738  -7.015 -20.253  0.00  0.00     0.196 C 
HETATM    9  O           1     -25.130  -6.293 -21.194  0.00  0.00    -0.646 OA
HETATM   10  O           1     -24.205  -8.121 -20.493  0.00  0.00    -0.646 OA
ENDBRANCH   6   8
ENDBRANCH   3   6
ENDBRANCH   1   2
BRANCH   1  11
HETATM   11  C           1     -28.717  -5.016 -16.277  0.00  0.00     0.053 C 
BRANCH  11  12
HETATM   12  C           1     -29.259  -4.142 -17.400  0.00  0.00     0.115 C 
BRANCH  12  13
HETATM   13  C           1     -30.761  -4.043 -17.281  0.00  0.00     0.172 C 
HETATM   14  O           1     -31.346  -2.993 -17.626  0.00  0.00    -0.648 OA
HETATM   15  O           1     -31.418  -5.009 -16.837  0.00  0.00    -0.648 OA
ENDBRANCH  12  13
ENDBRANCH  11  12
ENDBRANCH   1  11
BRANCH   1  16
HETATM   16  N           1     -28.270  -7.400 -15.820  0.00  0.00    -0.066 N 
HETATM   17  H           1     -28.968  -8.118 -16.119  0.00  0.00     0.275 HD
HETATM   18  H           1     -27.333  -7.851 -15.711  0.00  0.00     0.275 HD
HETATM   19  H           1     -28.565  -6.984 -14.908  0.00  0.00     0.275 HD
ENDBRANCH   1  16
TORSDOF 7
ENDMDL
MODEL 8
REMARK VINA RESULT:      -5.3     10.250     12.456
REMARK  7 active torsions:
REMARK  status: ('A' for Active; 'I' for Inactive)
REMARK    1  A    between atoms: C_1  and  C_2 
REMARK    2  A    between atoms: C_1  and  N_5 
REMARK       I    between atoms: N_5  and  C_6 
REMARK    3  A    between atoms: C_6  and  C_7 
REMARK    4  A    between atoms: C_7  and  C_15 
REMARK    5  A    between atoms: C_7  and  N_13 
REMARK    6  A    between atoms: C_8  and  C_15 
REMARK    7  A    between atoms: C_8  and  C_10 
ROOT
HETATM    1  C           1     -20.753  -5.490  -7.245  0.00  0.00     0.275 C 
ENDROOT
BRANCH   1   2
HETATM    2  C           1     -21.484  -4.425  -8.026  0.00  0.00     0.249 C 
HETATM    3  N           1     -21.724  -4.599  -9.362  0.00  0.00    -0.345 N 
HETATM    4  H           1     -21.411  -5.442  -9.826  0.00  0.00     0.163 HD
HETATM    5  O           1     -21.857  -3.419  -7.471  0.00  0.00    -0.271 OA
BRANCH   3   6
HETATM    6  C           1     -22.426  -3.576 -10.112  0.00  0.00     0.181 C 
HETATM    7  C           1     -21.632  -3.232 -11.366  0.00  0.00     0.043 C 
BRANCH   6   8
HETATM    8  C           1     -23.790  -4.087 -10.503  0.00  0.00     0.196 C 
HETATM    9  O           1     -24.700  -3.282 -10.795  0.00  0.00    -0.646 OA
HETATM   10  O           1     -24.010  -5.318 -10.537  0.00  0.00    -0.646 OA
ENDBRANCH   6   8
ENDBRANCH   3   6
ENDBRANCH   1   2
BRANCH   1  11
HETATM   11  C           1     -21.618  -5.950  -6.079  0.00  0.00     0.053 C 
BRANCH  11  12
HETATM   12  C           1     -20.728  -6.462  -4.955  0.00  0.00     0.115 C 
BRANCH  12  13
HETATM   13  C           1     -20.439  -7.928  -5.169  0.00  0.00     0.172 C 
HETATM   14  O           1     -19.417  -8.443  -4.666  0.00  0.00    -0.648 OA
HETATM   15  O           1     -21.222  -8.627  -5.848  0.00  0.00    -0.648 OA
ENDBRANCH  12  13
ENDBRANCH  11  12
ENDBRANCH   1  11
BRANCH   1  16
HETATM   16  N           1     -19.466  -4.928  -6.719  0.00  0.00    -0.066 N 
HETATM   17  H           1     -19.668  -4.097  -6.119  0.00  0.00     0.275 HD
HETATM   18  H           1     -18.974  -5.655  -6.152  0.00  0.00     0.275 HD
HETATM   19  H           1     -18.858  -4.641  -7.520  0.00  0.00     0.275 HD
ENDBRANCH   1  16
TORSDOF 7
ENDMDL
MODEL 9
REMARK VINA RESULT:      -5.2      1.918      4.336
REMARK  7 active torsions:
REMARK  status: ('A' for Active; 'I' for Inactive)
REMARK    1  A    between atoms: C_1  and  C_2 
REMARK    2  A    between atoms: C_1  and  N_5 
REMARK       I    between atoms: N_5  and  C_6 
REMARK    3  A    between atoms: C_6  and  C_7 
REMARK    4  A    between atoms: C_7  and  C_15 
REMARK    5  A    between atoms: C_7  and  N_13 
REMARK    6  A    between atoms: C_8  and  C_15 
REMARK    7  A    between atoms: C_8  and  C_10 
ROOT
HETATM    1  C           1     -25.496  -7.322 -19.370  0.00  0.00     0.275 C 
ENDROOT
BRANCH   1   2
HETATM    2  C           1     -26.765  -6.504 -19.359  0.00  0.00     0.249 C 
HETATM    3  N           1     -27.554  -6.480 -18.242  0.00  0.00    -0.345 N 
HETATM    4  H           1     -27.287  -7.010 -17.422  0.00  0.00     0.163 HD
HETATM    5  O           1     -27.083  -5.872 -20.338  0.00  0.00    -0.271 OA
BRANCH   3   6
HETATM    6  C           1     -28.774  -5.695 -18.232  0.00  0.00     0.181 C 
HETATM    7  C           1     -29.964  -6.610 -17.976  0.00  0.00     0.043 C 
BRANCH   6   8
HETATM    8  C           1     -28.692  -4.656 -17.141  0.00  0.00     0.196 C 
HETATM    9  O           1     -28.683  -5.008 -15.942  0.00  0.00    -0.646 OA
HETATM   10  O           1     -28.635  -3.442 -17.437  0.00  0.00    -0.646 OA
ENDBRANCH   6   8
ENDBRANCH   3   6
ENDBRANCH   1   2
BRANCH   1  11
HETATM   11  C           1     -24.434  -6.623 -18.532  0.00  0.00     0.053 C 
BRANCH  11  12
HETATM   12  C           1     -24.278  -7.347 -17.201  0.00  0.00     0.115 C 
BRANCH  12  13
HETATM   13  C           1     -25.266  -6.788 -16.205  0.00  0.00     0.172 C 
HETATM   14  O           1     -25.402  -5.551 -16.088  0.00  0.00    -0.648 OA
HETATM   15  O           1     -25.947  -7.562 -15.498  0.00  0.00    -0.648 OA
ENDBRANCH  12  13
ENDBRANCH  11  12
ENDBRANCH   1  11
BRANCH   1  16
HETATM   16  N           1     -25.005  -7.463 -20.780  0.00  0.00    -0.066 N 
HETATM   17  H           1     -23.961  -7.414 -20.793  0.00  0.00     0.275 HD
HETATM   18  H           1     -25.314  -8.384 -21.166  0.00  0.00     0.275 HD
HETATM   19  H           1     -25.398  -6.690 -21.365  0.00  0.00     0.275 HD
ENDBRANCH   1  16
TORSDOF 7
ENDMDL
