MODEL 1
REMARK VINA RESULT:      -6.0      0.000      0.000
REMARK  8 active torsions:
REMARK  status: ('A' for Active; 'I' for Inactive)
REMARK    1  A    between atoms: C_2  and  C_3 
REMARK    2  A    between atoms: C_2  and  N_6 
REMARK       I    between atoms: N_6  and  C_7 
REMARK    3  A    between atoms: C_7  and  C_8 
REMARK    4  A    between atoms: C_8  and  C_9 
REMARK    5  A    between atoms: C_8  and  N_15 
REMARK    6  A    between atoms: C_9  and  O_10 
REMARK    7  A    between atoms: O_10  and  P_11 
REMARK    8  A    between atoms: P_11  and  O_12 
ROOT
HETATM    1  C           1     -36.557  -1.062 -10.321  0.00  0.00     0.298 C 
ENDROOT
BRANCH   1   2
HETATM    2  C           1     -35.356  -1.901 -10.682  0.00  0.00     0.251 C 
HETATM    3  N           1     -35.513  -3.227 -10.983  0.00  0.00    -0.345 N 
HETATM    4  H           1     -36.435  -3.645 -10.964  0.00  0.00     0.163 HD
HETATM    5  O           1     -34.256  -1.402 -10.706  0.00  0.00    -0.271 OA
BRANCH   3   6
HETATM    6  C           1     -34.358  -4.034 -11.330  0.00  0.00     0.181 C 
HETATM    7  C           1     -34.327  -5.278 -10.452  0.00  0.00     0.043 C 
BRANCH   6   8
HETATM    8  C           1     -34.449  -4.442 -12.780  0.00  0.00     0.196 C 
HETATM    9  O           1     -35.133  -5.435 -13.108  0.00  0.00    -0.646 OA
HETATM   10  O           1     -33.839  -3.786 -13.653  0.00  0.00    -0.646 OA
ENDBRANCH   6   8
ENDBRANCH   3   6
ENDBRANCH   1   2
BRANCH   1  11
HETATM   11  C           1     -37.006  -0.266 -11.540  0.00  0.00     0.224 C 
BRANCH  11  12
HETATM   12  O           1     -36.826  -1.038 -12.696  0.00  0.00    -0.287 OA
BRANCH  12  13
HETATM   13  P           1     -36.025  -0.327 -13.904  0.00  0.00     0.406 P 
HETATM   14  O           1     -35.079   0.668 -13.352  0.00  0.00    -0.624 OA
HETATM   15  O           1     -36.986   0.350 -14.803  0.00  0.00    -0.624 OA
BRANCH  13  16
HETATM   16  O           1     -35.205  -1.443 -14.736  0.00  0.00    -0.300 OA
HETATM   17  H           1     -34.318  -1.124 -14.764  0.00  0.00     0.223 HD
ENDBRANCH  13  16
ENDBRANCH  12  13
ENDBRANCH  11  12
ENDBRANCH   1  11
BRANCH   1  18
HETATM   18  N           1     -36.193  -0.117  -9.215  0.00  0.00    -0.064 N 
HETATM   19  H           1     -35.280  -0.404  -8.798  0.00  0.00     0.275 HD
HETATM   20  H           1     -36.113   0.852  -9.597  0.00  0.00     0.275 HD
HETATM   21  H           1     -36.935  -0.141  -8.478  0.00  0.00     0.275 HD
ENDBRANCH   1  18
TORSDOF 8
ENDMDL
MODEL 2
REMARK VINA RESULT:      -5.9      2.202      2.751
REMARK  8 active torsions:
REMARK  status: ('A' for Active; 'I' for Inactive)
REMARK    1  A    between atoms: C_2  and  C_3 
REMARK    2  A    between atoms: C_2  and  N_6 
REMARK       I    between atoms: N_6  and  C_7 
REMARK    3  A    between atoms: C_7  and  C_8 
REMARK    4  A    between atoms: C_8  and  C_9 
REMARK    5  A    between atoms: C_8  and  N_15 
REMARK    6  A    between atoms: C_9  and  O_10 
REMARK    7  A    between atoms: O_10  and  P_11 
REMARK    8  A    between atoms: P_11  and  O_12 
ROOT
HETATM    1  C           1     -36.051  -0.042 -12.410  0.00  0.00     0.298 C 
ENDROOT
BRANCH   1   2
HETATM    2  C           1     -35.690  -1.489 -12.182  0.00  0.00     0.251 C 
HETATM    3  N           1     -34.696  -2.071 -12.922  0.00  0.00    -0.345 N 
HETATM    4  H           1     -34.203  -1.531 -13.622  0.00  0.00     0.163 HD
HETATM    5  O           1     -36.278  -2.134 -11.347  0.00  0.00    -0.271 OA
BRANCH   3   6
HETATM    6  C           1     -34.349  -3.462 -12.703  0.00  0.00     0.181 C 
HETATM    7  C           1     -34.095  -4.138 -14.044  0.00  0.00     0.043 C 
BRANCH   6   8
HETATM    8  C           1     -33.104  -3.542 -11.855  0.00  0.00     0.196 C 
HETATM    9  O           1     -32.267  -4.449 -12.055  0.00  0.00    -0.646 OA
HETATM   10  O           1     -32.909  -2.700 -10.951  0.00  0.00    -0.646 OA
ENDBRANCH   6   8
ENDBRANCH   3   6
ENDBRANCH   1   2
BRANCH   1  11
HETATM   11  C           1     -37.245   0.042 -13.351  0.00  0.00     0.224 C 
BRANCH  11  12
HETATM   12  O           1     -37.090  -0.887 -14.389  0.00  0.00    -0.287 OA
BRANCH  12  13
HETATM   13  P           1     -36.434  -0.324 -15.752  0.00  0.00     0.406 P 
HETATM   14  O           1     -37.195  -0.833 -16.914  0.00  0.00    -0.624 OA
HETATM   15  O           1     -35.027  -0.775 -15.845  0.00  0.00    -0.624 OA
BRANCH  13  16
HETATM   16  O           1     -36.481   1.291 -15.746  0.00  0.00    -0.300 OA
HETATM   17  H           1     -36.424   1.534 -14.837  0.00  0.00     0.223 HD
ENDBRANCH  13  16
ENDBRANCH  12  13
ENDBRANCH  11  12
ENDBRANCH   1  11
BRANCH   1  18
HETATM   18  N           1     -34.883   0.674 -13.021  0.00  0.00    -0.064 N 
HETATM   19  H           1     -33.999   0.180 -12.767  0.00  0.00     0.275 HD
HETATM   20  H           1     -34.988   0.687 -14.061  0.00  0.00     0.275 HD
HETATM   21  H           1     -34.849   1.655 -12.662  0.00  0.00     0.275 HD
ENDBRANCH   1  18
TORSDOF 8
ENDMDL
MODEL 3
REMARK VINA RESULT:      -5.8      2.659      4.584
REMARK  8 active torsions:
REMARK  status: ('A' for Active; 'I' for Inactive)
REMARK    1  A    between atoms: C_2  and  C_3 
REMARK    2  A    between atoms: C_2  and  N_6 
REMARK       I    between atoms: N_6  and  C_7 
REMARK    3  A    between atoms: C_7  and  C_8 
REMARK    4  A    between atoms: C_8  and  C_9 
REMARK    5  A    between atoms: C_8  and  N_15 
REMARK    6  A    between atoms: C_9  and  O_10 
REMARK    7  A    between atoms: O_10  and  P_11 
REMARK    8  A    between atoms: P_11  and  O_12 
ROOT
HETATM    1  C           1     -35.603  -0.911 -11.269  0.00  0.00     0.298 C 
ENDROOT
BRANCH   1   2
HETATM    2  C           1     -36.265  -0.545 -12.575  0.00  0.00     0.251 C 
HETATM    3  N           1     -35.499  -0.255 -13.673  0.00  0.00    -0.345 N 
HETATM    4  H           1     -34.490  -0.287 -13.608  0.00  0.00     0.163 HD
HETATM    5  O           1     -37.470  -0.507 -12.653  0.00  0.00    -0.271 OA
BRANCH   3   6
HETATM    6  C           1     -36.135   0.098 -14.928  0.00  0.00     0.181 C 
HETATM    7  C           1     -35.620   1.453 -15.393  0.00  0.00     0.043 C 
BRANCH   6   8
HETATM    8  C           1     -35.810  -0.948 -15.966  0.00  0.00     0.196 C 
HETATM    9  O           1     -36.265  -0.841 -17.125  0.00  0.00    -0.646 OA
HETATM   10  O           1     -35.086  -1.923 -15.666  0.00  0.00    -0.646 OA
ENDBRANCH   6   8
ENDBRANCH   3   6
ENDBRANCH   1   2
BRANCH   1  11
HETATM   11  C           1     -35.562  -2.427 -11.129  0.00  0.00     0.224 C 
BRANCH  11  12
HETATM   12  O           1     -35.376  -3.010 -12.390  0.00  0.00    -0.287 OA
BRANCH  12  13
HETATM   13  P           1     -34.102  -3.990 -12.538  0.00  0.00     0.406 P 
HETATM   14  O           1     -34.461  -5.343 -12.060  0.00  0.00    -0.624 OA
HETATM   15  O           1     -32.978  -3.463 -11.732  0.00  0.00    -0.624 OA
BRANCH  13  16
HETATM   16  O           1     -33.660  -4.069 -14.089  0.00  0.00    -0.300 OA
HETATM   17  H           1     -33.778  -3.195 -14.422  0.00  0.00     0.223 HD
ENDBRANCH  13  16
ENDBRANCH  12  13
ENDBRANCH  11  12
ENDBRANCH   1  11
BRANCH   1  18
HETATM   18  N           1     -36.385  -0.326 -10.131  0.00  0.00    -0.064 N 
HETATM   19  H           1     -37.391  -0.245 -10.403  0.00  0.00     0.275 HD
HETATM   20  H           1     -36.300  -0.947  -9.295  0.00  0.00     0.275 HD
HETATM   21  H           1     -36.010   0.622  -9.901  0.00  0.00     0.275 HD
ENDBRANCH   1  18
TORSDOF 8
ENDMDL
MODEL 4
REMARK VINA RESULT:      -5.6     10.009     12.299
REMARK  8 active torsions:
REMARK  status: ('A' for Active; 'I' for Inactive)
REMARK    1  A    between atoms: C_2  and  C_3 
REMARK    2  A    between atoms: C_2  and  N_6 
REMARK       I    between atoms: N_6  and  C_7 
REMARK    3  A    between atoms: C_7  and  C_8 
REMARK    4  A    between atoms: C_8  and  C_9 
REMARK    5  A    between atoms: C_8  and  N_15 
REMARK    6  A    between atoms: C_9  and  O_10 
REMARK    7  A    between atoms: O_10  and  P_11 
REMARK    8  A    between atoms: P_11  and  O_12 
ROOT
HETATM    1  C           1     -25.695  -7.197 -19.976  0.00  0.00     0.298 C 
ENDROOT
BRANCH   1   2
HETATM    2  C           1     -27.008  -6.491 -19.745  0.00  0.00     0.251 C 
HETATM    3  N           1     -27.846  -6.914 -18.748  0.00  0.00    -0.345 N 
HETATM    4  H           1     -27.585  -7.700 -18.167  0.00  0.00     0.163 HD
HETATM    5  O           1     -27.320  -5.553 -20.439  0.00  0.00    -0.271 OA
BRANCH   3   6
HETATM    6  C           1     -29.109  -6.235 -18.526  0.00  0.00     0.181 C 
HETATM    7  C           1     -30.171  -7.255 -18.137  0.00  0.00     0.043 C 
BRANCH   6   8
HETATM    8  C           1     -28.948  -5.227 -17.415  0.00  0.00     0.196 C 
HETATM    9  O           1     -28.737  -4.025 -17.687  0.00  0.00    -0.646 OA
HETATM   10  O           1     -29.026  -5.594 -16.222  0.00  0.00    -0.646 OA
ENDBRANCH   6   8
ENDBRANCH   3   6
ENDBRANCH   1   2
BRANCH   1  11
HETATM   11  C           1     -24.797  -7.011 -18.760  0.00  0.00     0.224 C 
BRANCH  11  12
HETATM   12  O           1     -25.498  -6.322 -17.761  0.00  0.00    -0.287 OA
BRANCH  12  13
HETATM   13  P           1     -25.330  -6.888 -16.259  0.00  0.00     0.406 P 
HETATM   14  O           1     -24.914  -5.787 -15.360  0.00  0.00    -0.624 OA
HETATM   15  O           1     -24.302  -7.953 -16.244  0.00  0.00    -0.624 OA
BRANCH  13  16
HETATM   16  O           1     -26.738  -7.493 -15.750  0.00  0.00    -0.300 OA
HETATM   17  H           1     -27.362  -7.253 -16.414  0.00  0.00     0.223 HD
ENDBRANCH  13  16
ENDBRANCH  12  13
ENDBRANCH  11  12
ENDBRANCH   1  11
BRANCH   1  18
HETATM   18  N           1     -25.023  -6.620 -21.186  0.00  0.00    -0.064 N 
HETATM   19  H           1     -25.672  -6.669 -22.003  0.00  0.00     0.275 HD
HETATM   20  H           1     -24.770  -5.623 -21.002  0.00  0.00     0.275 HD
HETATM   21  H           1     -24.156  -7.165 -21.397  0.00  0.00     0.275 HD
ENDBRANCH   1  18
TORSDOF 8
ENDMDL
MODEL 5
REMARK VINA RESULT:      -5.5     10.576     12.580
REMARK  8 active torsions:
REMARK  status: ('A' for Active; 'I' for Inactive)
REMARK    1  A    between atoms: C_2  and  C_3 
REMARK    2  A    between atoms: C_2  and  N_6 
REMARK       I    between atoms: N_6  and  C_7 
REMARK    3  A    between atoms: C_7  and  C_8 
REMARK    4  A    between atoms: C_8  and  C_9 
REMARK    5  A    between atoms: C_8  and  N_15 
REMARK    6  A    between atoms: C_9  and  O_10 
REMARK    7  A    between atoms: O_10  and  P_11 
REMARK    8  A    between atoms: P_11  and  O_12 
ROOT
HETATM    1  C           1     -24.864  -6.738 -17.263  0.00  0.00     0.298 C 
ENDROOT
BRANCH   1   2
HETATM    2  C           1     -26.120  -6.940 -16.451  0.00  0.00     0.251 C 
HETATM    3  N           1     -27.335  -6.581 -16.971  0.00  0.00    -0.345 N 
HETATM    4  H           1     -27.391  -6.181 -17.899  0.00  0.00     0.163 HD
HETATM    5  O           1     -26.054  -7.416 -15.344  0.00  0.00    -0.271 OA
BRANCH   3   6
HETATM    6  C           1     -28.543  -6.774 -16.191  0.00  0.00     0.181 C 
HETATM    7  C           1     -28.874  -5.490 -15.443  0.00  0.00     0.043 C 
BRANCH   6   8
HETATM    8  C           1     -29.684  -7.129 -17.113  0.00  0.00     0.196 C 
HETATM    9  O           1     -30.628  -6.327 -17.277  0.00  0.00    -0.646 OA
HETATM   10  O           1     -29.685  -8.227 -17.712  0.00  0.00    -0.646 OA
ENDBRANCH   6   8
ENDBRANCH   3   6
ENDBRANCH   1   2
BRANCH   1  11
HETATM   11  C           1     -25.220  -6.674 -18.742  0.00  0.00     0.224 C 
BRANCH  11  12
HETATM   12  O           1     -24.491  -7.644 -19.442  0.00  0.00    -0.287 OA
BRANCH  12  13
HETATM   13  P           1     -24.790  -7.751 -21.025  0.00  0.00     0.406 P 
HETATM   14  O           1     -24.881  -6.392 -21.603  0.00  0.00    -0.624 OA
HETATM   15  O           1     -26.068  -8.466 -21.239  0.00  0.00    -0.624 OA
BRANCH  13  16
HETATM   16  O           1     -23.594  -8.562 -21.746  0.00  0.00    -0.300 OA
HETATM   17  H           1     -23.693  -8.378 -22.665  0.00  0.00     0.223 HD
ENDBRANCH  13  16
ENDBRANCH  12  13
ENDBRANCH  11  12
ENDBRANCH   1  11
BRANCH   1  18
HETATM   18  N           1     -23.926  -7.884 -17.025  0.00  0.00    -0.064 N 
HETATM   19  H           1     -24.380  -8.775 -17.325  0.00  0.00     0.275 HD
HETATM   20  H           1     -23.050  -7.736 -17.575  0.00  0.00     0.275 HD
HETATM   21  H           1     -23.693  -7.937 -16.007  0.00  0.00     0.275 HD
ENDBRANCH   1  18
TORSDOF 8
ENDMDL
MODEL 6
REMARK VINA RESULT:      -5.5      3.153      5.207
REMARK  8 active torsions:
REMARK  status: ('A' for Active; 'I' for Inactive)
REMARK    1  A    between atoms: C_2  and  C_3 
REMARK    2  A    between atoms: C_2  and  N_6 
REMARK       I    between atoms: N_6  and  C_7 
REMARK    3  A    between atoms: C_7  and  C_8 
REMARK    4  A    between atoms: C_8  and  C_9 
REMARK    5  A    between atoms: C_8  and  N_15 
REMARK    6  A    between atoms: C_9  and  O_10 
REMARK    7  A    between atoms: O_10  and  P_11 
REMARK    8  A    between atoms: P_11  and  O_12 
ROOT
HETATM    1  C           1     -34.464  -1.571 -11.871  0.00  0.00     0.298 C 
ENDROOT
BRANCH   1   2
HETATM    2  C           1     -35.452  -1.100 -12.910  0.00  0.00     0.251 C 
HETATM    3  N           1     -35.002  -0.573 -14.091  0.00  0.00    -0.345 N 
HETATM    4  H           1     -34.009  -0.499 -14.267  0.00  0.00     0.163 HD
HETATM    5  O           1     -36.638  -1.188 -12.701  0.00  0.00    -0.271 OA
BRANCH   3   6
HETATM    6  C           1     -35.951  -0.120 -15.090  0.00  0.00     0.181 C 
HETATM    7  C           1     -35.637   1.321 -15.472  0.00  0.00     0.043 C 
BRANCH   6   8
HETATM    8  C           1     -35.851  -0.998 -16.313  0.00  0.00     0.196 C 
HETATM    9  O           1     -35.091  -1.991 -16.308  0.00  0.00    -0.646 OA
HETATM   10  O           1     -36.528  -0.733 -17.330  0.00  0.00    -0.646 OA
ENDBRANCH   6   8
ENDBRANCH   3   6
ENDBRANCH   1   2
BRANCH   1  11
HETATM   11  C           1     -34.100  -3.026 -12.139  0.00  0.00     0.224 C 
BRANCH  11  12
HETATM   12  O           1     -34.788  -3.854 -11.243  0.00  0.00    -0.287 OA
BRANCH  12  13
HETATM   13  P           1     -34.408  -5.422 -11.293  0.00  0.00     0.406 P 
HETATM   14  O           1     -32.956  -5.571 -11.535  0.00  0.00    -0.624 OA
HETATM   15  O           1     -35.161  -6.079 -12.385  0.00  0.00    -0.624 OA
BRANCH  13  16
HETATM   16  O           1     -34.791  -6.114  -9.884  0.00  0.00    -0.300 OA
HETATM   17  H           1     -34.574  -7.025  -9.992  0.00  0.00     0.223 HD
ENDBRANCH  13  16
ENDBRANCH  12  13
ENDBRANCH  11  12
ENDBRANCH   1  11
BRANCH   1  18
HETATM   18  N           1     -35.079  -1.454 -10.508  0.00  0.00    -0.064 N 
HETATM   19  H           1     -34.397  -1.007  -9.855  0.00  0.00     0.275 HD
HETATM   20  H           1     -35.942  -0.868 -10.564  0.00  0.00     0.275 HD
HETATM   21  H           1     -35.327  -2.406 -10.154  0.00  0.00     0.275 HD
ENDBRANCH   1  18
TORSDOF 8
ENDMDL
MODEL 7
REMARK VINA RESULT:      -5.3     13.602     14.848
REMARK  8 active torsions:
REMARK  status: ('A' for Active; 'I' for Inactive)
REMARK    1  A    between atoms: C_2  and  C_3 
REMARK    2  A    between atoms: C_2  and  N_6 
REMARK       I    between atoms: N_6  and  C_7 
REMARK    3  A    between atoms: C_7  and  C_8 
REMARK    4  A    between atoms: C_8  and  C_9 
REMARK    5  A    between atoms: C_8  and  N_15 
REMARK    6  A    between atoms: C_9  and  O_10 
REMARK    7  A    between atoms: O_10  and  P_11 
REMARK    8  A    between atoms: P_11  and  O_12 
ROOT
HETATM    1  C           1     -21.512  -3.954  -7.438  0.00  0.00     0.298 C 
ENDROOT
BRANCH   1   2
HETATM    2  C           1     -20.908  -4.836  -6.372  0.00  0.00     0.251 C 
HETATM    3  N           1     -21.710  -5.671  -5.641  0.00  0.00    -0.345 N 
HETATM    4  H           1     -22.706  -5.696  -5.814  0.00  0.00     0.163 HD
HETATM    5  O           1     -19.719  -4.805  -6.165  0.00  0.00    -0.271 OA
BRANCH   3   6
HETATM    6  C           1     -21.130  -6.519  -4.616  0.00  0.00     0.181 C 
HETATM    7  C           1     -21.773  -6.203  -3.272  0.00  0.00     0.043 C 
BRANCH   6   8
HETATM    8  C           1     -21.376  -7.966  -4.965  0.00  0.00     0.196 C 
HETATM    9  O           1     -21.781  -8.760  -4.088  0.00  0.00    -0.646 OA
HETATM   10  O           1     -21.174  -8.371  -6.130  0.00  0.00    -0.646 OA
ENDBRANCH   6   8
ENDBRANCH   3   6
ENDBRANCH   1   2
BRANCH   1  11
HETATM   11  C           1     -22.782  -4.602  -7.974  0.00  0.00     0.224 C 
BRANCH  11  12
HETATM   12  O           1     -23.559  -3.638  -8.630  0.00  0.00    -0.287 OA
BRANCH  12  13
HETATM   13  P           1     -23.790  -3.869 -10.211  0.00  0.00     0.406 P 
HETATM   14  O           1     -25.028  -3.178 -10.635  0.00  0.00    -0.624 OA
HETATM   15  O           1     -23.914  -5.318 -10.485  0.00  0.00    -0.624 OA
BRANCH  13  16
HETATM   16  O           1     -22.534  -3.272 -11.032  0.00  0.00    -0.300 OA
HETATM   17  H           1     -21.819  -3.270 -10.418  0.00  0.00     0.223 HD
ENDBRANCH  13  16
ENDBRANCH  12  13
ENDBRANCH  11  12
ENDBRANCH   1  11
BRANCH   1  18
HETATM   18  N           1     -20.530  -3.778  -8.557  0.00  0.00    -0.064 N 
HETATM   19  H           1     -19.560  -3.747  -8.169  0.00  0.00     0.275 HD
HETATM   20  H           1     -20.612  -4.580  -9.222  0.00  0.00     0.275 HD
HETATM   21  H           1     -20.732  -2.885  -9.061  0.00  0.00     0.275 HD
ENDBRANCH   1  18
TORSDOF 8
ENDMDL
MODEL 8
REMARK VINA RESULT:      -5.3      2.770      5.335
REMARK  8 active torsions:
REMARK  status: ('A' for Active; 'I' for Inactive)
REMARK    1  A    between atoms: C_2  and  C_3 
REMARK    2  A    between atoms: C_2  and  N_6 
REMARK       I    between atoms: N_6  and  C_7 
REMARK    3  A    between atoms: C_7  and  C_8 
REMARK    4  A    between atoms: C_8  and  C_9 
REMARK    5  A    between atoms: C_8  and  N_15 
REMARK    6  A    between atoms: C_9  and  O_10 
REMARK    7  A    between atoms: O_10  and  P_11 
REMARK    8  A    between atoms: P_11  and  O_12 
ROOT
HETATM    1  C           1     -34.720  -2.299 -11.281  0.00  0.00     0.298 C 
ENDROOT
BRANCH   1   2
HETATM    2  C           1     -35.071  -1.874 -12.686  0.00  0.00     0.251 C 
HETATM    3  N           1     -35.801  -0.734 -12.893  0.00  0.00    -0.345 N 
HETATM    4  H           1     -36.104  -0.176 -12.105  0.00  0.00     0.163 HD
HETATM    5  O           1     -34.710  -2.539 -13.627  0.00  0.00    -0.271 OA
BRANCH   3   6
HETATM    6  C           1     -36.139  -0.325 -14.243  0.00  0.00     0.181 C 
HETATM    7  C           1     -37.638  -0.074 -14.337  0.00  0.00     0.043 C 
BRANCH   6   8
HETATM    8  C           1     -35.394   0.942 -14.585  0.00  0.00     0.196 C 
HETATM    9  O           1     -35.645   1.547 -15.650  0.00  0.00    -0.646 OA
HETATM   10  O           1     -34.526   1.387 -13.803  0.00  0.00    -0.646 OA
ENDBRANCH   6   8
ENDBRANCH   3   6
ENDBRANCH   1   2
BRANCH   1  11
HETATM   11  C           1     -35.520  -3.541 -10.912  0.00  0.00     0.224 C 
BRANCH  11  12
HETATM   12  O           1     -34.670  -4.489 -10.326  0.00  0.00    -0.287 OA
BRANCH  12  13
HETATM   13  P           1     -34.191  -5.698 -11.282  0.00  0.00     0.406 P 
HETATM   14  O           1     -34.626  -6.988 -10.702  0.00  0.00    -0.624 OA
HETATM   15  O           1     -32.716  -5.680 -11.399  0.00  0.00    -0.624 OA
BRANCH  13  16
HETATM   16  O           1     -34.849  -5.520 -12.746  0.00  0.00    -0.300 OA
HETATM   17  H           1     -35.322  -4.706 -12.705  0.00  0.00     0.223 HD
ENDBRANCH  13  16
ENDBRANCH  12  13
ENDBRANCH  11  12
ENDBRANCH   1  11
BRANCH   1  18
HETATM   18  N           1     -35.050  -1.190 -10.326  0.00  0.00    -0.064 N 
HETATM   19  H           1     -35.389  -0.359 -10.860  0.00  0.00     0.275 HD
HETATM   20  H           1     -35.796  -1.509  -9.668  0.00  0.00     0.275 HD
HETATM   21  H           1     -34.195  -0.931  -9.784  0.00  0.00     0.275 HD
ENDBRANCH   1  18
TORSDOF 8
ENDMDL
MODEL 9
REMARK VINA RESULT:      -5.3     25.927     26.780
REMARK  8 active torsions:
REMARK  status: ('A' for Active; 'I' for Inactive)
REMARK    1  A    between atoms: C_2  and  C_3 
REMARK    2  A    between atoms: C_2  and  N_6 
REMARK       I    between atoms: N_6  and  C_7 
REMARK    3  A    between atoms: C_7  and  C_8 
REMARK    4  A    between atoms: C_8  and  C_9 
REMARK    5  A    between atoms: C_8  and  N_15 
REMARK    6  A    between atoms: C_9  and  O_10 
REMARK    7  A    between atoms: O_10  and  P_11 
REMARK    8  A    between atoms: P_11  and  O_12 
ROOT
HETATM    1  C           1     -10.162   5.598 -19.691  0.00  0.00     0.298 C 
ENDROOT
BRANCH   1   2
HETATM    2  C           1     -10.448   7.071 -19.852  0.00  0.00     0.251 C 
HETATM    3  N           1     -10.872   7.557 -21.060  0.00  0.00    -0.345 N 
HETATM    4  H           1     -10.993   6.929 -21.844  0.00  0.00     0.163 HD
HETATM    5  O           1     -10.303   7.821 -18.917  0.00  0.00    -0.271 OA
BRANCH   3   6
HETATM    6  C           1     -11.147   8.973 -21.216  0.00  0.00     0.181 C 
HETATM    7  C           1     -10.715   9.423 -22.605  0.00  0.00     0.043 C 
BRANCH   6   8
HETATM    8  C           1     -12.625   9.218 -21.043  0.00  0.00     0.196 C 
HETATM    9  O           1     -13.074   9.580 -19.933  0.00  0.00    -0.646 OA
HETATM   10  O           1     -13.402   9.061 -22.010  0.00  0.00    -0.646 OA
ENDBRANCH   6   8
ENDBRANCH   3   6
ENDBRANCH   1   2
BRANCH   1  11
HETATM   11  C           1     -11.470   4.845 -19.489  0.00  0.00     0.224 C 
BRANCH  11  12
HETATM   12  O           1     -12.543   5.743 -19.561  0.00  0.00    -0.287 OA
BRANCH  12  13
HETATM   13  P           1     -13.834   5.240 -20.389  0.00  0.00     0.406 P 
HETATM   14  O           1     -15.045   5.380 -19.550  0.00  0.00    -0.624 OA
HETATM   15  O           1     -13.656   3.821 -20.767  0.00  0.00    -0.624 OA
BRANCH  13  16
HETATM   16  O           1     -14.000   6.135 -21.724  0.00  0.00    -0.300 OA
HETATM   17  H           1     -13.214   5.982 -22.220  0.00  0.00     0.223 HD
ENDBRANCH  13  16
ENDBRANCH  12  13
ENDBRANCH  11  12
ENDBRANCH   1  11
BRANCH   1  18
HETATM   18  N           1      -9.276   5.388 -18.499  0.00  0.00    -0.064 N 
HETATM   19  H           1      -9.828   4.953 -17.726  0.00  0.00     0.275 HD
HETATM   20  H           1      -8.485   4.758 -18.759  0.00  0.00     0.275 HD
HETATM   21  H           1      -8.897   6.309 -18.180  0.00  0.00     0.275 HD
ENDBRANCH   1  18
TORSDOF 8
ENDMDL
