MODEL 1
REMARK VINA RESULT:      -6.5      0.000      0.000
REMARK  11 active torsions:
REMARK  status: ('A' for Active; 'I' for Inactive)
REMARK    1  A    between atoms: N_6  and  C_26 
REMARK    2  A    between atoms: N_7  and  C_8 
REMARK    3  A    between atoms: C_8  and  C_17 
REMARK       I    between atoms: C_9  and  N_10 
REMARK    4  A    between atoms: C_9  and  C_15 
REMARK    5  A    between atoms: C_11  and  C_23 
REMARK    6  A    between atoms: C_13  and  C_26 
REMARK    7  A    between atoms: C_13  and  C_17 
REMARK    8  A    between atoms: C_15  and  C_27 
REMARK    9  A    between atoms: N_20  and  C_23 
REMARK       I    between atoms: N_20  and  C_25 
REMARK   10  A    between atoms: C_23  and  C_27 
REMARK   11  A    between atoms: C_25  and  C_26 
ROOT
HETATM    1  O           1     -26.325  -5.896 -17.255  0.00  0.00    -0.271 OA
HETATM    2  H           1     -27.678  -7.111 -19.811  0.00  0.00     0.163 HD
HETATM    3  N           1     -27.619  -6.688 -18.893  0.00  0.00    -0.345 N 
HETATM    4  C           1     -26.396  -6.402 -18.349  0.00  0.00     0.249 C 
ENDROOT
BRANCH   4   5
HETATM    5  C           1     -25.136  -6.718 -19.117  0.00  0.00     0.274 C 
BRANCH   5   6
HETATM    6  N           1     -24.235  -7.567 -18.271  0.00  0.00    -0.067 N 
HETATM    7  H           1     -24.639  -8.527 -18.186  0.00  0.00     0.275 HD
HETATM    8  H           1     -23.292  -7.627 -18.717  0.00  0.00     0.275 HD
HETATM    9  H           1     -24.146  -7.142 -17.321  0.00  0.00     0.275 HD
ENDBRANCH   5   6
BRANCH   5  10
HETATM   10  C           1     -25.492  -7.471 -20.392  0.00  0.00     0.044 C 
BRANCH  10  11
HETATM   11  C           1     -24.610  -6.982 -21.534  0.00  0.00     0.030 C 
BRANCH  11  12
HETATM   12  C           1     -23.930  -8.174 -22.196  0.00  0.00     0.230 C 
BRANCH  12  13
HETATM   13  N           1     -22.974  -8.805 -21.227  0.00  0.00    -0.079 N 
HETATM   14  H           1     -22.604  -8.074 -20.577  0.00  0.00     0.274 HD
HETATM   15  H           1     -23.470  -9.542 -20.677  0.00  0.00     0.274 HD
HETATM   16  H           1     -22.181  -9.238 -21.752  0.00  0.00     0.274 HD
ENDBRANCH  12  13
ENDBRANCH  11  12
ENDBRANCH  10  11
ENDBRANCH   5  10
ENDBRANCH   4   5
BRANCH   3  17
HETATM   17  C           1     -28.830  -6.384 -18.156  0.00  0.00     0.186 C 
BRANCH  17  18
HETATM   18  C           1     -29.842  -7.482 -18.379  0.00  0.00     0.196 C 
HETATM   19  O           1     -30.961  -7.422 -17.824  0.00  0.00    -0.646 OA
HETATM   20  O           1     -29.561  -8.450 -19.117  0.00  0.00    -0.646 OA
ENDBRANCH  17  18
BRANCH  17  21
HETATM   21  C           1     -29.402  -5.060 -18.645  0.00  0.00     0.045 C 
BRANCH  21  22
HETATM   22  C           1     -29.665  -4.149 -17.453  0.00  0.00     0.105 C 
BRANCH  22  23
HETATM   23  C           1     -31.151  -3.944 -17.293  0.00  0.00     0.215 C 
HETATM   24  O           1     -31.686  -2.986 -17.799  0.00  0.00    -0.274 OA
HETATM   25  N           1     -31.894  -4.842 -16.576  0.00  0.00    -0.370 N 
HETATM   26  H           1     -31.446  -5.645 -16.152  0.00  0.00     0.159 HD
HETATM   27  H           1     -32.890  -4.704 -16.469  0.00  0.00     0.159 HD
ENDBRANCH  22  23
ENDBRANCH  21  22
ENDBRANCH  17  21
ENDBRANCH   3  17
TORSDOF 11
ENDMDL
MODEL 2
REMARK VINA RESULT:      -6.3      1.848      2.141
REMARK  11 active torsions:
REMARK  status: ('A' for Active; 'I' for Inactive)
REMARK    1  A    between atoms: N_6  and  C_26 
REMARK    2  A    between atoms: N_7  and  C_8 
REMARK    3  A    between atoms: C_8  and  C_17 
REMARK       I    between atoms: C_9  and  N_10 
REMARK    4  A    between atoms: C_9  and  C_15 
REMARK    5  A    between atoms: C_11  and  C_23 
REMARK    6  A    between atoms: C_13  and  C_26 
REMARK    7  A    between atoms: C_13  and  C_17 
REMARK    8  A    between atoms: C_15  and  C_27 
REMARK    9  A    between atoms: N_20  and  C_23 
REMARK       I    between atoms: N_20  and  C_25 
REMARK   10  A    between atoms: C_23  and  C_27 
REMARK   11  A    between atoms: C_25  and  C_26 
ROOT
HETATM    1  O           1     -26.250  -7.294 -15.300  0.00  0.00    -0.271 OA
HETATM    2  H           1     -27.329  -5.961 -17.927  0.00  0.00     0.163 HD
HETATM    3  N           1     -27.359  -6.351 -16.993  0.00  0.00    -0.345 N 
HETATM    4  C           1     -26.214  -6.831 -16.414  0.00  0.00     0.249 C 
ENDROOT
BRANCH   4   5
HETATM    5  C           1     -24.909  -6.780 -17.169  0.00  0.00     0.274 C 
BRANCH   5   6
HETATM    6  N           1     -24.061  -7.954 -16.778  0.00  0.00    -0.067 N 
HETATM    7  H           1     -24.674  -8.771 -16.562  0.00  0.00     0.275 HD
HETATM    8  H           1     -23.421  -8.200 -17.567  0.00  0.00     0.275 HD
HETATM    9  H           1     -23.496  -7.710 -15.934  0.00  0.00     0.275 HD
ENDBRANCH   5   6
BRANCH   5  10
HETATM   10  C           1     -25.184  -6.830 -18.666  0.00  0.00     0.044 C 
BRANCH  10  11
HETATM   11  C           1     -23.933  -7.300 -19.398  0.00  0.00     0.030 C 
BRANCH  11  12
HETATM   12  C           1     -24.331  -7.958 -20.712  0.00  0.00     0.230 C 
BRANCH  12  13
HETATM   13  N           1     -25.827  -8.030 -20.804  0.00  0.00    -0.079 N 
HETATM   14  H           1     -26.128  -9.032 -20.799  0.00  0.00     0.274 HD
HETATM   15  H           1     -26.251  -7.536 -19.986  0.00  0.00     0.274 HD
HETATM   16  H           1     -26.144  -7.576 -21.689  0.00  0.00     0.274 HD
ENDBRANCH  12  13
ENDBRANCH  11  12
ENDBRANCH  10  11
ENDBRANCH   5  10
ENDBRANCH   4   5
BRANCH   3  17
HETATM   17  C           1     -28.613  -6.398 -16.267  0.00  0.00     0.186 C 
BRANCH  17  18
HETATM   18  C           1     -29.660  -7.072 -17.119  0.00  0.00     0.196 C 
HETATM   19  O           1     -29.520  -8.269 -17.451  0.00  0.00    -0.646 OA
HETATM   20  O           1     -30.667  -6.434 -17.493  0.00  0.00    -0.646 OA
ENDBRANCH  17  18
BRANCH  17  21
HETATM   21  C           1     -29.062  -4.980 -15.938  0.00  0.00     0.045 C 
BRANCH  21  22
HETATM   22  C           1     -28.410  -4.003 -16.906  0.00  0.00     0.105 C 
BRANCH  22  23
HETATM   23  C           1     -29.434  -3.000 -17.377  0.00  0.00     0.215 C 
HETATM   24  O           1     -29.230  -1.817 -17.236  0.00  0.00    -0.274 OA
HETATM   25  N           1     -30.595  -3.428 -17.962  0.00  0.00    -0.370 N 
HETATM   26  H           1     -30.766  -4.419 -18.080  0.00  0.00     0.159 HD
HETATM   27  H           1     -31.281  -2.755 -18.278  0.00  0.00     0.159 HD
ENDBRANCH  22  23
ENDBRANCH  21  22
ENDBRANCH  17  21
ENDBRANCH   3  17
TORSDOF 11
ENDMDL
MODEL 3
REMARK VINA RESULT:      -5.7     11.183     13.115
REMARK  11 active torsions:
REMARK  status: ('A' for Active; 'I' for Inactive)
REMARK    1  A    between atoms: N_6  and  C_26 
REMARK    2  A    between atoms: N_7  and  C_8 
REMARK    3  A    between atoms: C_8  and  C_17 
REMARK       I    between atoms: C_9  and  N_10 
REMARK    4  A    between atoms: C_9  and  C_15 
REMARK    5  A    between atoms: C_11  and  C_23 
REMARK    6  A    between atoms: C_13  and  C_26 
REMARK    7  A    between atoms: C_13  and  C_17 
REMARK    8  A    between atoms: C_15  and  C_27 
REMARK    9  A    between atoms: N_20  and  C_23 
REMARK       I    between atoms: N_20  and  C_25 
REMARK   10  A    between atoms: C_23  and  C_27 
REMARK   11  A    between atoms: C_25  and  C_26 
ROOT
HETATM    1  O           1     -21.543  -3.650  -7.771  0.00  0.00    -0.271 OA
HETATM    2  H           1     -24.344  -5.002  -8.181  0.00  0.00     0.163 HD
HETATM    3  N           1     -23.524  -4.456  -8.413  0.00  0.00    -0.345 N 
HETATM    4  C           1     -22.522  -4.301  -7.493  0.00  0.00     0.249 C 
ENDROOT
BRANCH   4   5
HETATM    5  C           1     -22.640  -4.943  -6.133  0.00  0.00     0.274 C 
BRANCH   5   6
HETATM    6  N           1     -24.042  -5.438  -5.934  0.00  0.00    -0.067 N 
HETATM    7  H           1     -24.201  -5.638  -4.921  0.00  0.00     0.275 HD
HETATM    8  H           1     -24.718  -4.708  -6.254  0.00  0.00     0.275 HD
HETATM    9  H           1     -24.185  -6.313  -6.488  0.00  0.00     0.275 HD
ENDBRANCH   5   6
BRANCH   5  10
HETATM   10  C           1     -21.671  -6.114  -6.038  0.00  0.00     0.044 C 
BRANCH  10  11
HETATM   11  C           1     -20.886  -6.020  -4.736  0.00  0.00     0.030 C 
BRANCH  11  12
HETATM   12  C           1     -21.529  -6.920  -3.689  0.00  0.00     0.230 C 
BRANCH  12  13
HETATM   13  N           1     -22.241  -6.076  -2.673  0.00  0.00    -0.079 N 
HETATM   14  H           1     -22.601  -6.686  -1.904  0.00  0.00     0.274 HD
HETATM   15  H           1     -21.577  -5.372  -2.276  0.00  0.00     0.274 HD
HETATM   16  H           1     -23.041  -5.582  -3.129  0.00  0.00     0.274 HD
ENDBRANCH  12  13
ENDBRANCH  11  12
ENDBRANCH  10  11
ENDBRANCH   5  10
ENDBRANCH   4   5
BRANCH   3  17
HETATM   17  C           1     -23.411  -3.839  -9.720  0.00  0.00     0.186 C 
BRANCH  17  18
HETATM   18  C           1     -24.747  -3.263 -10.121  0.00  0.00     0.196 C 
HETATM   19  O           1     -25.168  -3.414 -11.288  0.00  0.00    -0.646 OA
HETATM   20  O           1     -25.432  -2.636  -9.285  0.00  0.00    -0.646 OA
ENDBRANCH  17  18
BRANCH  17  21
HETATM   21  C           1     -22.983  -4.887 -10.739  0.00  0.00     0.045 C 
BRANCH  21  22
HETATM   22  C           1     -22.036  -4.256 -11.751  0.00  0.00     0.105 C 
BRANCH  22  23
HETATM   23  C           1     -20.737  -3.900 -11.071  0.00  0.00     0.215 C 
HETATM   24  O           1     -20.255  -2.803 -11.227  0.00  0.00    -0.274 OA
HETATM   25  N           1     -20.103  -4.819 -10.278  0.00  0.00    -0.370 N 
HETATM   26  H           1     -20.507  -5.738 -10.148  0.00  0.00     0.159 HD
HETATM   27  H           1     -19.232  -4.579  -9.823  0.00  0.00     0.159 HD
ENDBRANCH  22  23
ENDBRANCH  21  22
ENDBRANCH  17  21
ENDBRANCH   3  17
TORSDOF 11
ENDMDL
MODEL 4
REMARK VINA RESULT:      -5.6     13.849     15.425
REMARK  11 active torsions:
REMARK  status: ('A' for Active; 'I' for Inactive)
REMARK    1  A    between atoms: N_6  and  C_26 
REMARK    2  A    between atoms: N_7  and  C_8 
REMARK    3  A    between atoms: C_8  and  C_17 
REMARK       I    between atoms: C_9  and  N_10 
REMARK    4  A    between atoms: C_9  and  C_15 
REMARK    5  A    between atoms: C_11  and  C_23 
REMARK    6  A    between atoms: C_13  and  C_26 
REMARK    7  A    between atoms: C_13  and  C_17 
REMARK    8  A    between atoms: C_15  and  C_27 
REMARK    9  A    between atoms: N_20  and  C_23 
REMARK       I    between atoms: N_20  and  C_25 
REMARK   10  A    between atoms: C_23  and  C_27 
REMARK   11  A    between atoms: C_25  and  C_26 
ROOT
HETATM    1  O           1     -19.604  -4.495  -5.730  0.00  0.00    -0.271 OA
HETATM    2  H           1     -22.410  -5.833  -6.147  0.00  0.00     0.163 HD
HETATM    3  N           1     -21.513  -5.653  -5.715  0.00  0.00    -0.345 N 
HETATM    4  C           1     -20.674  -4.710  -6.246  0.00  0.00     0.249 C 
ENDROOT
BRANCH   4   5
HETATM    5  C           1     -21.087  -3.940  -7.476  0.00  0.00     0.274 C 
BRANCH   5   6
HETATM    6  N           1     -20.170  -4.284  -8.612  0.00  0.00    -0.067 N 
HETATM    7  H           1     -20.449  -3.742  -9.461  0.00  0.00     0.275 HD
HETATM    8  H           1     -19.188  -4.040  -8.353  0.00  0.00     0.275 HD
HETATM    9  H           1     -20.235  -5.307  -8.815  0.00  0.00     0.275 HD
ENDBRANCH   5   6
BRANCH   5  10
HETATM   10  C           1     -22.518  -4.307  -7.850  0.00  0.00     0.044 C 
BRANCH  10  11
HETATM   11  C           1     -22.590  -4.615  -9.340  0.00  0.00     0.030 C 
BRANCH  11  12
HETATM   12  C           1     -24.015  -4.399  -9.834  0.00  0.00     0.230 C 
BRANCH  12  13
HETATM   13  N           1     -24.630  -3.245  -9.099  0.00  0.00    -0.079 N 
HETATM   14  H           1     -25.564  -3.025  -9.515  0.00  0.00     0.274 HD
HETATM   15  H           1     -24.749  -3.496  -8.091  0.00  0.00     0.274 HD
HETATM   16  H           1     -24.008  -2.409  -9.178  0.00  0.00     0.274 HD
ENDBRANCH  12  13
ENDBRANCH  11  12
ENDBRANCH  10  11
ENDBRANCH   5  10
ENDBRANCH   4   5
BRANCH   3  17
HETATM   17  C           1     -21.116  -6.393  -4.533  0.00  0.00     0.186 C 
BRANCH  17  18
HETATM   18  C           1     -20.650  -7.771  -4.936  0.00  0.00     0.196 C 
HETATM   19  O           1     -19.868  -8.407  -4.197  0.00  0.00    -0.646 OA
HETATM   20  O           1     -21.045  -8.275  -6.009  0.00  0.00    -0.646 OA
ENDBRANCH  17  18
BRANCH  17  21
HETATM   21  C           1     -22.305  -6.515  -3.589  0.00  0.00     0.045 C 
BRANCH  21  22
HETATM   22  C           1     -21.889  -6.085  -2.189  0.00  0.00     0.105 C 
BRANCH  22  23
HETATM   23  C           1     -22.091  -7.231  -1.228  0.00  0.00     0.215 C 
HETATM   24  O           1     -22.873  -7.123  -0.314  0.00  0.00    -0.274 OA
HETATM   25  N           1     -21.388  -8.395  -1.392  0.00  0.00    -0.370 N 
HETATM   26  H           1     -20.732  -8.486  -2.158  0.00  0.00     0.159 HD
HETATM   27  H           1     -21.523  -9.163  -0.748  0.00  0.00     0.159 HD
ENDBRANCH  22  23
ENDBRANCH  21  22
ENDBRANCH  17  21
ENDBRANCH   3  17
TORSDOF 11
ENDMDL
MODEL 5
REMARK VINA RESULT:      -5.5     14.166     16.103
REMARK  11 active torsions:
REMARK  status: ('A' for Active; 'I' for Inactive)
REMARK    1  A    between atoms: N_6  and  C_26 
REMARK    2  A    between atoms: N_7  and  C_8 
REMARK    3  A    between atoms: C_8  and  C_17 
REMARK       I    between atoms: C_9  and  N_10 
REMARK    4  A    between atoms: C_9  and  C_15 
REMARK    5  A    between atoms: C_11  and  C_23 
REMARK    6  A    between atoms: C_13  and  C_26 
REMARK    7  A    between atoms: C_13  and  C_17 
REMARK    8  A    between atoms: C_15  and  C_27 
REMARK    9  A    between atoms: N_20  and  C_23 
REMARK       I    between atoms: N_20  and  C_25 
REMARK   10  A    between atoms: C_23  and  C_27 
REMARK   11  A    between atoms: C_25  and  C_26 
ROOT
HETATM    1  O           1     -22.620  -5.520  -5.791  0.00  0.00    -0.271 OA
HETATM    2  H           1     -19.803  -6.472  -4.791  0.00  0.00     0.163 HD
HETATM    3  N           1     -20.813  -6.443  -4.860  0.00  0.00    -0.345 N 
HETATM    4  C           1     -21.415  -5.554  -5.708  0.00  0.00     0.249 C 
ENDROOT
BRANCH   4   5
HETATM    5  C           1     -20.576  -4.617  -6.541  0.00  0.00     0.274 C 
BRANCH   5   6
HETATM    6  N           1     -19.731  -5.414  -7.491  0.00  0.00    -0.067 N 
HETATM    7  H           1     -19.088  -6.034  -6.949  0.00  0.00     0.275 HD
HETATM    8  H           1     -20.348  -5.999  -8.098  0.00  0.00     0.275 HD
HETATM    9  H           1     -19.169  -4.765  -8.086  0.00  0.00     0.275 HD
ENDBRANCH   5   6
BRANCH   5  10
HETATM   10  C           1     -21.485  -3.684  -7.331  0.00  0.00     0.044 C 
BRANCH  10  11
HETATM   11  C           1     -21.480  -4.093  -8.799  0.00  0.00     0.030 C 
BRANCH  11  12
HETATM   12  C           1     -22.911  -4.339  -9.261  0.00  0.00     0.230 C 
BRANCH  12  13
HETATM   13  N           1     -23.860  -4.012  -8.147  0.00  0.00    -0.079 N 
HETATM   14  H           1     -24.100  -2.995  -8.181  0.00  0.00     0.274 HD
HETATM   15  H           1     -24.732  -4.579  -8.253  0.00  0.00     0.274 HD
HETATM   16  H           1     -23.411  -4.233  -7.230  0.00  0.00     0.274 HD
ENDBRANCH  12  13
ENDBRANCH  11  12
ENDBRANCH  10  11
ENDBRANCH   5  10
ENDBRANCH   4   5
BRANCH   3  17
HETATM   17  C           1     -21.620  -7.344  -4.061  0.00  0.00     0.186 C 
BRANCH  17  18
HETATM   18  C           1     -21.642  -6.862  -2.630  0.00  0.00     0.196 C 
HETATM   19  O           1     -20.902  -7.400  -1.778  0.00  0.00    -0.646 OA
HETATM   20  O           1     -22.400  -5.926  -2.299  0.00  0.00    -0.646 OA
ENDBRANCH  17  18
BRANCH  17  21
HETATM   21  C           1     -21.022  -8.744  -4.116  0.00  0.00     0.045 C 
BRANCH  21  22
HETATM   22  C           1     -19.698  -8.702  -4.868  0.00  0.00     0.105 C 
BRANCH  22  23
HETATM   23  C           1     -18.601  -9.246  -3.987  0.00  0.00     0.215 C 
HETATM   24  O           1     -17.560  -9.613  -4.478  0.00  0.00    -0.274 OA
HETATM   25  N           1     -18.783  -9.323  -2.633  0.00  0.00    -0.370 N 
HETATM   26  H           1     -19.655  -9.015  -2.222  0.00  0.00     0.159 HD
HETATM   27  H           1     -18.047  -9.688  -2.043  0.00  0.00     0.159 HD
ENDBRANCH  22  23
ENDBRANCH  21  22
ENDBRANCH  17  21
ENDBRANCH   3  17
TORSDOF 11
ENDMDL
MODEL 6
REMARK VINA RESULT:      -5.5     13.419     15.184
REMARK  11 active torsions:
REMARK  status: ('A' for Active; 'I' for Inactive)
REMARK    1  A    between atoms: N_6  and  C_26 
REMARK    2  A    between atoms: N_7  and  C_8 
REMARK    3  A    between atoms: C_8  and  C_17 
REMARK       I    between atoms: C_9  and  N_10 
REMARK    4  A    between atoms: C_9  and  C_15 
REMARK    5  A    between atoms: C_11  and  C_23 
REMARK    6  A    between atoms: C_13  and  C_26 
REMARK    7  A    between atoms: C_13  and  C_17 
REMARK    8  A    between atoms: C_15  and  C_27 
REMARK    9  A    between atoms: N_20  and  C_23 
REMARK       I    between atoms: N_20  and  C_25 
REMARK   10  A    between atoms: C_23  and  C_27 
REMARK   11  A    between atoms: C_25  and  C_26 
ROOT
HETATM    1  O           1     -21.115  -7.761  -6.357  0.00  0.00    -0.271 OA
HETATM    2  H           1     -22.107  -4.981  -5.295  0.00  0.00     0.163 HD
HETATM    3  N           1     -21.724  -5.652  -5.950  0.00  0.00    -0.345 N 
HETATM    4  C           1     -21.570  -6.960  -5.576  0.00  0.00     0.249 C 
ENDROOT
BRANCH   4   5
HETATM    5  C           1     -21.969  -7.401  -4.189  0.00  0.00     0.274 C 
BRANCH   5   6
HETATM    6  N           1     -21.542  -8.823  -3.975  0.00  0.00    -0.067 N 
HETATM    7  H           1     -21.579  -9.049  -2.956  0.00  0.00     0.275 HD
HETATM    8  H           1     -22.185  -9.462  -4.495  0.00  0.00     0.275 HD
HETATM    9  H           1     -20.566  -8.950  -4.324  0.00  0.00     0.275 HD
ENDBRANCH   5   6
BRANCH   5  10
HETATM   10  C           1     -21.293  -6.508  -3.157  0.00  0.00     0.044 C 
BRANCH  10  11
HETATM   11  C           1     -22.209  -6.342  -1.951  0.00  0.00     0.030 C 
BRANCH  11  12
HETATM   12  C           1     -21.758  -7.279  -0.838  0.00  0.00     0.230 C 
BRANCH  12  13
HETATM   13  N           1     -22.946  -7.697  -0.023  0.00  0.00    -0.079 N 
HETATM   14  H           1     -23.689  -6.964  -0.090  0.00  0.00     0.274 HD
HETATM   15  H           1     -23.318  -8.603  -0.388  0.00  0.00     0.274 HD
HETATM   16  H           1     -22.660  -7.814   0.975  0.00  0.00     0.274 HD
ENDBRANCH  12  13
ENDBRANCH  11  12
ENDBRANCH  10  11
ENDBRANCH   5  10
ENDBRANCH   4   5
BRANCH   3  17
HETATM   17  C           1     -21.342  -5.228  -7.283  0.00  0.00     0.186 C 
BRANCH  17  18
HETATM   18  C           1     -19.987  -4.566  -7.229  0.00  0.00     0.196 C 
HETATM   19  O           1     -19.511  -4.032  -8.254  0.00  0.00    -0.646 OA
HETATM   20  O           1     -19.340  -4.553  -6.160  0.00  0.00    -0.646 OA
ENDBRANCH  17  18
BRANCH  17  21
HETATM   21  C           1     -22.370  -4.238  -7.814  0.00  0.00     0.045 C 
BRANCH  21  22
HETATM   22  C           1     -22.780  -4.639  -9.225  0.00  0.00     0.105 C 
BRANCH  22  23
HETATM   23  C           1     -23.701  -3.592  -9.799  0.00  0.00     0.215 C 
HETATM   24  O           1     -23.472  -3.116 -10.886  0.00  0.00    -0.274 OA
HETATM   25  N           1     -24.798  -3.181  -9.090  0.00  0.00    -0.370 N 
HETATM   26  H           1     -24.990  -3.579  -8.180  0.00  0.00     0.159 HD
HETATM   27  H           1     -25.416  -2.478  -9.476  0.00  0.00     0.159 HD
ENDBRANCH  22  23
ENDBRANCH  21  22
ENDBRANCH  17  21
ENDBRANCH   3  17
TORSDOF 11
ENDMDL
MODEL 7
REMARK VINA RESULT:      -5.3     14.378     16.096
REMARK  11 active torsions:
REMARK  status: ('A' for Active; 'I' for Inactive)
REMARK    1  A    between atoms: N_6  and  C_26 
REMARK    2  A    between atoms: N_7  and  C_8 
REMARK    3  A    between atoms: C_8  and  C_17 
REMARK       I    between atoms: C_9  and  N_10 
REMARK    4  A    between atoms: C_9  and  C_15 
REMARK    5  A    between atoms: C_11  and  C_23 
REMARK    6  A    between atoms: C_13  and  C_26 
REMARK    7  A    between atoms: C_13  and  C_17 
REMARK    8  A    between atoms: C_15  and  C_27 
REMARK    9  A    between atoms: N_20  and  C_23 
REMARK       I    between atoms: N_20  and  C_25 
REMARK   10  A    between atoms: C_23  and  C_27 
REMARK   11  A    between atoms: C_25  and  C_26 
ROOT
HETATM    1  O           1     -22.529  -5.712  -5.632  0.00  0.00    -0.271 OA
HETATM    2  H           1     -19.745  -6.859  -4.750  0.00  0.00     0.163 HD
HETATM    3  N           1     -20.752  -6.749  -4.765  0.00  0.00    -0.345 N 
HETATM    4  C           1     -21.328  -5.842  -5.613  0.00  0.00     0.249 C 
ENDROOT
BRANCH   4   5
HETATM    5  C           1     -20.465  -5.006  -6.525  0.00  0.00     0.274 C 
BRANCH   5   6
HETATM    6  N           1     -19.930  -5.865  -7.633  0.00  0.00    -0.067 N 
HETATM    7  H           1     -20.726  -6.245  -8.194  0.00  0.00     0.275 HD
HETATM    8  H           1     -19.313  -5.292  -8.251  0.00  0.00     0.275 HD
HETATM    9  H           1     -19.382  -6.656  -7.227  0.00  0.00     0.275 HD
ENDBRANCH   5   6
BRANCH   5  10
HETATM   10  C           1     -21.295  -3.874  -7.116  0.00  0.00     0.044 C 
BRANCH  10  11
HETATM   11  C           1     -21.464  -4.097  -8.614  0.00  0.00     0.030 C 
BRANCH  11  12
HETATM   12  C           1     -22.891  -3.755  -9.020  0.00  0.00     0.230 C 
BRANCH  12  13
HETATM   13  N           1     -23.830  -4.122  -7.909  0.00  0.00    -0.079 N 
HETATM   14  H           1     -23.759  -3.412  -7.145  0.00  0.00     0.274 HD
HETATM   15  H           1     -24.809  -4.145  -8.272  0.00  0.00     0.274 HD
HETATM   16  H           1     -23.575  -5.063  -7.534  0.00  0.00     0.274 HD
ENDBRANCH  12  13
ENDBRANCH  11  12
ENDBRANCH  10  11
ENDBRANCH   5  10
ENDBRANCH   4   5
BRANCH   3  17
HETATM   17  C           1     -21.582  -7.554  -3.890  0.00  0.00     0.186 C 
BRANCH  17  18
HETATM   18  C           1     -21.638  -6.913  -2.524  0.00  0.00     0.196 C 
HETATM   19  O           1     -20.914  -7.344  -1.601  0.00  0.00    -0.646 OA
HETATM   20  O           1     -22.409  -5.952  -2.317  0.00  0.00    -0.646 OA
ENDBRANCH  17  18
BRANCH  17  21
HETATM   21  C           1     -20.988  -8.951  -3.771  0.00  0.00     0.045 C 
BRANCH  21  22
HETATM   22  C           1     -22.107  -9.983  -3.796  0.00  0.00     0.105 C 
BRANCH  22  23
HETATM   23  C           1     -22.128 -10.736  -2.489  0.00  0.00     0.215 C 
HETATM   24  O           1     -22.900 -11.652  -2.332  0.00  0.00    -0.274 OA
HETATM   25  N           1     -21.273 -10.382  -1.480  0.00  0.00    -0.370 N 
HETATM   26  H           1     -20.626  -9.615  -1.611  0.00  0.00     0.159 HD
HETATM   27  H           1     -21.287 -10.887  -0.604  0.00  0.00     0.159 HD
ENDBRANCH  22  23
ENDBRANCH  21  22
ENDBRANCH  17  21
ENDBRANCH   3  17
TORSDOF 11
ENDMDL
MODEL 8
REMARK VINA RESULT:      -5.2     10.527     12.383
REMARK  11 active torsions:
REMARK  status: ('A' for Active; 'I' for Inactive)
REMARK    1  A    between atoms: N_6  and  C_26 
REMARK    2  A    between atoms: N_7  and  C_8 
REMARK    3  A    between atoms: C_8  and  C_17 
REMARK       I    between atoms: C_9  and  N_10 
REMARK    4  A    between atoms: C_9  and  C_15 
REMARK    5  A    between atoms: C_11  and  C_23 
REMARK    6  A    between atoms: C_13  and  C_26 
REMARK    7  A    between atoms: C_13  and  C_17 
REMARK    8  A    between atoms: C_15  and  C_27 
REMARK    9  A    between atoms: N_20  and  C_23 
REMARK       I    between atoms: N_20  and  C_25 
REMARK   10  A    between atoms: C_23  and  C_27 
REMARK   11  A    between atoms: C_25  and  C_26 
ROOT
HETATM    1  O           1     -21.735  -3.206  -7.900  0.00  0.00    -0.271 OA
HETATM    2  H           1     -23.818  -5.439  -8.622  0.00  0.00     0.163 HD
HETATM    3  N           1     -23.242  -4.616  -8.753  0.00  0.00    -0.345 N 
HETATM    4  C           1     -22.423  -4.187  -7.743  0.00  0.00     0.249 C 
ENDROOT
BRANCH   4   5
HETATM    5  C           1     -22.380  -4.937  -6.435  0.00  0.00     0.274 C 
BRANCH   5   6
HETATM    6  N           1     -23.776  -5.287  -6.013  0.00  0.00    -0.067 N 
HETATM    7  H           1     -24.432  -4.532  -6.318  0.00  0.00     0.275 HD
HETATM    8  H           1     -24.058  -6.190  -6.456  0.00  0.00     0.275 HD
HETATM    9  H           1     -23.813  -5.380  -4.973  0.00  0.00     0.275 HD
ENDBRANCH   5   6
BRANCH   5  10
HETATM   10  C           1     -21.568  -6.215  -6.608  0.00  0.00     0.044 C 
BRANCH  10  11
HETATM   11  C           1     -20.383  -5.943  -7.526  0.00  0.00     0.030 C 
BRANCH  11  12
HETATM   12  C           1     -19.329  -5.144  -6.772  0.00  0.00     0.230 C 
BRANCH  12  13
HETATM   13  N           1     -18.762  -4.087  -7.674  0.00  0.00    -0.079 N 
HETATM   14  H           1     -19.138  -3.152  -7.393  0.00  0.00     0.274 HD
HETATM   15  H           1     -17.720  -4.082  -7.593  0.00  0.00     0.274 HD
HETATM   16  H           1     -19.034  -4.289  -8.662  0.00  0.00     0.274 HD
ENDBRANCH  12  13
ENDBRANCH  11  12
ENDBRANCH  10  11
ENDBRANCH   5  10
ENDBRANCH   4   5
BRANCH   3  17
HETATM   17  C           1     -23.283  -3.896 -10.010  0.00  0.00     0.186 C 
BRANCH  17  18
HETATM   18  C           1     -24.657  -3.302 -10.203  0.00  0.00     0.196 C 
HETATM   19  O           1     -25.227  -3.394 -11.312  0.00  0.00    -0.646 OA
HETATM   20  O           1     -25.224  -2.719  -9.255  0.00  0.00    -0.646 OA
ENDBRANCH  17  18
BRANCH  17  21
HETATM   21  C           1     -22.978  -4.854 -11.154  0.00  0.00     0.045 C 
BRANCH  21  22
HETATM   22  C           1     -21.928  -4.237 -12.068  0.00  0.00     0.105 C 
BRANCH  22  23
HETATM   23  C           1     -20.710  -3.866 -11.259  0.00  0.00     0.215 C 
HETATM   24  O           1     -20.129  -4.712 -10.621  0.00  0.00    -0.274 OA
HETATM   25  N           1     -20.263  -2.573 -11.246  0.00  0.00    -0.370 N 
HETATM   26  H           1     -20.750  -1.864 -11.781  0.00  0.00     0.159 HD
HETATM   27  H           1     -19.446  -2.324 -10.704  0.00  0.00     0.159 HD
ENDBRANCH  22  23
ENDBRANCH  21  22
ENDBRANCH  17  21
ENDBRANCH   3  17
TORSDOF 11
ENDMDL
MODEL 9
REMARK VINA RESULT:      -5.0     11.333     13.117
REMARK  11 active torsions:
REMARK  status: ('A' for Active; 'I' for Inactive)
REMARK    1  A    between atoms: N_6  and  C_26 
REMARK    2  A    between atoms: N_7  and  C_8 
REMARK    3  A    between atoms: C_8  and  C_17 
REMARK       I    between atoms: C_9  and  N_10 
REMARK    4  A    between atoms: C_9  and  C_15 
REMARK    5  A    between atoms: C_11  and  C_23 
REMARK    6  A    between atoms: C_13  and  C_26 
REMARK    7  A    between atoms: C_13  and  C_17 
REMARK    8  A    between atoms: C_15  and  C_27 
REMARK    9  A    between atoms: N_20  and  C_23 
REMARK       I    between atoms: N_20  and  C_25 
REMARK   10  A    between atoms: C_23  and  C_27 
REMARK   11  A    between atoms: C_25  and  C_26 
ROOT
HETATM    1  O           1     -21.340  -3.929  -6.624  0.00  0.00    -0.271 OA
HETATM    2  H           1     -22.963  -5.794  -8.556  0.00  0.00     0.163 HD
HETATM    3  N           1     -22.606  -4.929  -8.168  0.00  0.00    -0.345 N 
HETATM    4  C           1     -21.767  -4.960  -7.087  0.00  0.00     0.249 C 
ENDROOT
BRANCH   4   5
HETATM    5  C           1     -21.377  -6.282  -6.472  0.00  0.00     0.274 C 
BRANCH   5   6
HETATM    6  N           1     -19.908  -6.275  -6.166  0.00  0.00    -0.067 N 
HETATM    7  H           1     -19.689  -5.480  -5.524  0.00  0.00     0.275 HD
HETATM    8  H           1     -19.645  -7.175  -5.704  0.00  0.00     0.275 HD
HETATM    9  H           1     -19.367  -6.165  -7.053  0.00  0.00     0.275 HD
ENDBRANCH   5   6
BRANCH   5  10
HETATM   10  C           1     -22.162  -6.497  -5.185  0.00  0.00     0.044 C 
BRANCH  10  11
HETATM   11  C           1     -21.285  -6.147  -3.990  0.00  0.00     0.030 C 
BRANCH  11  12
HETATM   12  C           1     -21.278  -7.311  -3.007  0.00  0.00     0.230 C 
BRANCH  12  13
HETATM   13  N           1     -21.595  -8.583  -3.736  0.00  0.00    -0.079 N 
HETATM   14  H           1     -20.928  -8.702  -4.533  0.00  0.00     0.274 HD
HETATM   15  H           1     -21.501  -9.393  -3.082  0.00  0.00     0.274 HD
HETATM   16  H           1     -22.572  -8.542  -4.102  0.00  0.00     0.274 HD
ENDBRANCH  12  13
ENDBRANCH  11  12
ENDBRANCH  10  11
ENDBRANCH   5  10
ENDBRANCH   4   5
BRANCH   3  17
HETATM   17  C           1     -22.981  -3.660  -8.760  0.00  0.00     0.186 C 
BRANCH  17  18
HETATM   18  C           1     -24.350  -3.782  -9.383  0.00  0.00     0.196 C 
HETATM   19  O           1     -25.048  -2.760  -9.562  0.00  0.00    -0.646 OA
HETATM   20  O           1     -24.785  -4.903  -9.720  0.00  0.00    -0.646 OA
ENDBRANCH  17  18
BRANCH  17  21
HETATM   21  C           1     -21.967  -3.281  -9.831  0.00  0.00     0.045 C 
BRANCH  21  22
HETATM   22  C           1     -21.605  -4.514 -10.647  0.00  0.00     0.105 C 
BRANCH  22  23
HETATM   23  C           1     -22.229  -4.413 -12.017  0.00  0.00     0.215 C 
HETATM   24  O           1     -21.787  -3.633 -12.826  0.00  0.00    -0.274 OA
HETATM   25  N           1     -23.297  -5.206 -12.344  0.00  0.00    -0.370 N 
HETATM   26  H           1     -23.667  -5.860 -11.667  0.00  0.00     0.159 HD
HETATM   27  H           1     -23.715  -5.138 -13.263  0.00  0.00     0.159 HD
ENDBRANCH  22  23
ENDBRANCH  21  22
ENDBRANCH  17  21
ENDBRANCH   3  17
TORSDOF 11
ENDMDL
