MODEL 1
REMARK VINA RESULT:      -6.1      0.000      0.000
REMARK  8 active torsions:
REMARK  status: ('A' for Active; 'I' for Inactive)
REMARK    1  A    between atoms: O_1  and  C_2 
REMARK    2  A    between atoms: C_2  and  C_3 
REMARK    3  A    between atoms: C_3  and  C_14 
REMARK    4  A    between atoms: C_3  and  N_5 
REMARK       I    between atoms: N_5  and  C_11 
REMARK    5  A    between atoms: C_8  and  C_9 
REMARK    6  A    between atoms: C_9  and  C_10 
REMARK    7  A    between atoms: C_10  and  C_11 
REMARK    8  A    between atoms: C_10  and  N_15 
ROOT
HETATM    1  N           1     -34.980  -0.544 -14.106  0.00  0.00    -0.343 N 
HETATM    2  C           1     -35.400  -1.122 -12.938  0.00  0.00     0.249 C 
HETATM    3  O           1     -36.580  -1.216 -12.699  0.00  0.00    -0.271 OA
HETATM    4  H           1     -33.991  -0.466 -14.306  0.00  0.00     0.163 HD
ENDROOT
BRANCH   2   5
HETATM    5  C           1     -34.387  -1.645 -11.949  0.00  0.00     0.284 C 
BRANCH   5   6
HETATM    6  C           1     -34.133  -3.123 -12.214  0.00  0.00     0.155 C 
BRANCH   6   7
HETATM    7  C           1     -34.705  -3.942 -11.083  0.00  0.00     0.175 C 
HETATM    8  O           1     -33.942  -4.514 -10.276  0.00  0.00    -0.648 OA
HETATM    9  O           1     -35.945  -4.048 -10.955  0.00  0.00    -0.648 OA
ENDBRANCH   6   7
ENDBRANCH   5   6
BRANCH   5  10
HETATM   10  N           1     -34.914  -1.470 -10.555  0.00  0.00    -0.066 N 
HETATM   11  H           1     -34.378  -0.713 -10.072  0.00  0.00     0.275 HD
HETATM   12  H           1     -35.924  -1.210 -10.596  0.00  0.00     0.275 HD
HETATM   13  H           1     -34.804  -2.365 -10.027  0.00  0.00     0.275 HD
ENDBRANCH   5  10
ENDBRANCH   2   5
BRANCH   1  14
HETATM   14  C           1     -35.954  -0.042 -15.056  0.00  0.00     0.209 C 
BRANCH  14  15
HETATM   15  C           1     -35.649   1.417 -15.372  0.00  0.00     0.200 C 
BRANCH  15  16
HETATM   16  O           1     -36.684   1.954 -16.150  0.00  0.00    -0.398 OA
HETATM   17  H           1     -36.671   1.499 -16.974  0.00  0.00     0.209 HD
ENDBRANCH  15  16
ENDBRANCH  14  15
BRANCH  14  18
HETATM   18  C           1     -35.886  -0.856 -16.324  0.00  0.00     0.198 C 
HETATM   19  O           1     -36.821  -0.805 -17.151  0.00  0.00    -0.646 OA
HETATM   20  O           1     -34.892  -1.582 -16.548  0.00  0.00    -0.646 OA
ENDBRANCH  14  18
ENDBRANCH   1  14
TORSDOF 8
ENDMDL
MODEL 2
REMARK VINA RESULT:      -5.8     13.036     14.958
REMARK  8 active torsions:
REMARK  status: ('A' for Active; 'I' for Inactive)
REMARK    1  A    between atoms: O_1  and  C_2 
REMARK    2  A    between atoms: C_2  and  C_3 
REMARK    3  A    between atoms: C_3  and  C_14 
REMARK    4  A    between atoms: C_3  and  N_5 
REMARK       I    between atoms: N_5  and  C_11 
REMARK    5  A    between atoms: C_8  and  C_9 
REMARK    6  A    between atoms: C_9  and  C_10 
REMARK    7  A    between atoms: C_10  and  C_11 
REMARK    8  A    between atoms: C_10  and  N_15 
ROOT
HETATM    1  N           1     -22.106  -4.839  -9.087  0.00  0.00    -0.343 N 
HETATM    2  C           1     -21.642  -4.556  -7.831  0.00  0.00     0.249 C 
HETATM    3  O           1     -21.585  -3.411  -7.450  0.00  0.00    -0.271 OA
HETATM    4  H           1     -22.155  -5.798  -9.404  0.00  0.00     0.163 HD
ENDROOT
BRANCH   2   5
HETATM    5  C           1     -21.203  -5.675  -6.919  0.00  0.00     0.284 C 
BRANCH   5   6
HETATM    6  C           1     -20.960  -5.126  -5.519  0.00  0.00     0.155 C 
BRANCH   6   7
HETATM    7  C           1     -21.202  -6.214  -4.503  0.00  0.00     0.175 C 
HETATM    8  O           1     -22.063  -6.057  -3.610  0.00  0.00    -0.648 OA
HETATM    9  O           1     -20.539  -7.274  -4.554  0.00  0.00    -0.648 OA
ENDBRANCH   6   7
ENDBRANCH   5   6
BRANCH   5  10
HETATM   10  N           1     -19.934  -6.279  -7.445  0.00  0.00    -0.066 N 
HETATM   11  H           1     -19.451  -5.591  -8.066  0.00  0.00     0.275 HD
HETATM   12  H           1     -19.309  -6.525  -6.645  0.00  0.00     0.275 HD
HETATM   13  H           1     -20.160  -7.142  -7.991  0.00  0.00     0.275 HD
ENDBRANCH   5  10
ENDBRANCH   2   5
BRANCH   1  14
HETATM   14  C           1     -22.528  -3.763  -9.962  0.00  0.00     0.209 C 
BRANCH  14  15
HETATM   15  C           1     -21.742  -3.831 -11.265  0.00  0.00     0.200 C 
BRANCH  15  16
HETATM   16  O           1     -22.536  -4.417 -12.261  0.00  0.00    -0.398 OA
HETATM   17  H           1     -21.965  -4.947 -12.789  0.00  0.00     0.209 HD
ENDBRANCH  15  16
ENDBRANCH  14  15
BRANCH  14  18
HETATM   18  C           1     -24.002  -3.902 -10.256  0.00  0.00     0.198 C 
HETATM   19  O           1     -24.577  -4.994 -10.064  0.00  0.00    -0.646 OA
HETATM   20  O           1     -24.647  -2.923 -10.691  0.00  0.00    -0.646 OA
ENDBRANCH  14  18
ENDBRANCH   1  14
TORSDOF 8
ENDMDL
MODEL 3
REMARK VINA RESULT:      -5.5     13.111     15.812
REMARK  8 active torsions:
REMARK  status: ('A' for Active; 'I' for Inactive)
REMARK    1  A    between atoms: O_1  and  C_2 
REMARK    2  A    between atoms: C_2  and  C_3 
REMARK    3  A    between atoms: C_3  and  C_14 
REMARK    4  A    between atoms: C_3  and  N_5 
REMARK       I    between atoms: N_5  and  C_11 
REMARK    5  A    between atoms: C_8  and  C_9 
REMARK    6  A    between atoms: C_9  and  C_10 
REMARK    7  A    between atoms: C_10  and  C_11 
REMARK    8  A    between atoms: C_10  and  N_15 
ROOT
HETATM    1  N           1     -21.257  -4.714  -8.562  0.00  0.00    -0.343 N 
HETATM    2  C           1     -20.907  -4.496  -9.867  0.00  0.00     0.249 C 
HETATM    3  O           1     -19.878  -4.956 -10.302  0.00  0.00    -0.271 OA
HETATM    4  H           1     -22.119  -4.328  -8.198  0.00  0.00     0.163 HD
ENDROOT
BRANCH   2   5
HETATM    5  C           1     -21.806  -3.680 -10.763  0.00  0.00     0.284 C 
BRANCH   5   6
HETATM    6  C           1     -23.120  -4.420 -10.975  0.00  0.00     0.155 C 
BRANCH   6   7
HETATM    7  C           1     -24.223  -3.707 -10.232  0.00  0.00     0.175 C 
HETATM    8  O           1     -25.159  -3.172 -10.865  0.00  0.00    -0.648 OA
HETATM    9  O           1     -24.200  -3.651  -8.983  0.00  0.00    -0.648 OA
ENDBRANCH   6   7
ENDBRANCH   5   6
BRANCH   5  10
HETATM   10  N           1     -21.132  -3.469 -12.088  0.00  0.00    -0.066 N 
HETATM   11  H           1     -21.146  -2.452 -12.328  0.00  0.00     0.275 HD
HETATM   12  H           1     -20.144  -3.801 -12.031  0.00  0.00     0.275 HD
HETATM   13  H           1     -21.640  -4.008 -12.825  0.00  0.00     0.275 HD
ENDBRANCH   5  10
ENDBRANCH   2   5
BRANCH   1  14
HETATM   14  C           1     -20.393  -5.497  -7.701  0.00  0.00     0.209 C 
BRANCH  14  15
HETATM   15  C           1     -19.392  -4.577  -7.014  0.00  0.00     0.200 C 
BRANCH  15  16
HETATM   16  O           1     -19.638  -4.565  -5.634  0.00  0.00    -0.398 OA
HETATM   17  H           1     -18.803  -4.474  -5.208  0.00  0.00     0.209 HD
ENDBRANCH  15  16
ENDBRANCH  14  15
BRANCH  14  18
HETATM   18  C           1     -21.226  -6.203  -6.659  0.00  0.00     0.198 C 
HETATM   19  O           1     -22.204  -5.621  -6.142  0.00  0.00    -0.646 OA
HETATM   20  O           1     -20.938  -7.369  -6.313  0.00  0.00    -0.646 OA
ENDBRANCH  14  18
ENDBRANCH   1  14
TORSDOF 8
ENDMDL
MODEL 4
REMARK VINA RESULT:      -5.3      5.205      6.825
REMARK  8 active torsions:
REMARK  status: ('A' for Active; 'I' for Inactive)
REMARK    1  A    between atoms: O_1  and  C_2 
REMARK    2  A    between atoms: C_2  and  C_3 
REMARK    3  A    between atoms: C_3  and  C_14 
REMARK    4  A    between atoms: C_3  and  N_5 
REMARK       I    between atoms: N_5  and  C_11 
REMARK    5  A    between atoms: C_8  and  C_9 
REMARK    6  A    between atoms: C_9  and  C_10 
REMARK    7  A    between atoms: C_10  and  C_11 
REMARK    8  A    between atoms: C_10  and  N_15 
ROOT
HETATM    1  N           1     -32.773  -4.533 -15.989  0.00  0.00    -0.343 N 
HETATM    2  C           1     -32.268  -3.851 -17.063  0.00  0.00     0.249 C 
HETATM    3  O           1     -32.941  -3.017 -17.621  0.00  0.00    -0.271 OA
HETATM    4  H           1     -32.208  -5.232 -15.522  0.00  0.00     0.163 HD
ENDROOT
BRANCH   2   5
HETATM    5  C           1     -30.870  -4.141 -17.551  0.00  0.00     0.284 C 
BRANCH   5   6
HETATM    6  C           1     -30.180  -5.094 -16.584  0.00  0.00     0.155 C 
BRANCH   6   7
HETATM    7  C           1     -28.684  -4.938 -16.705  0.00  0.00     0.175 C 
HETATM    8  O           1     -28.029  -4.437 -15.765  0.00  0.00    -0.648 OA
HETATM    9  O           1     -28.100  -5.309 -17.747  0.00  0.00    -0.648 OA
ENDBRANCH   6   7
ENDBRANCH   5   6
BRANCH   5  10
HETATM   10  N           1     -30.093  -2.859 -17.630  0.00  0.00    -0.066 N 
HETATM   11  H           1     -30.360  -2.240 -16.831  0.00  0.00     0.275 HD
HETATM   12  H           1     -29.071  -3.070 -17.582  0.00  0.00     0.275 HD
HETATM   13  H           1     -30.309  -2.377 -18.532  0.00  0.00     0.275 HD
ENDBRANCH   5  10
ENDBRANCH   2   5
BRANCH   1  14
HETATM   14  C           1     -34.116  -4.255 -15.521  0.00  0.00     0.209 C 
BRANCH  14  15
HETATM   15  C           1     -34.925  -5.546 -15.502  0.00  0.00     0.200 C 
BRANCH  15  16
HETATM   16  O           1     -35.272  -5.863 -14.181  0.00  0.00    -0.398 OA
HETATM   17  H           1     -35.291  -5.052 -13.702  0.00  0.00     0.209 HD
ENDBRANCH  15  16
ENDBRANCH  14  15
BRANCH  14  18
HETATM   18  C           1     -34.054  -3.680 -14.127  0.00  0.00     0.198 C 
HETATM   19  O           1     -34.839  -2.767 -13.792  0.00  0.00    -0.646 OA
HETATM   20  O           1     -33.218  -4.119 -13.307  0.00  0.00    -0.646 OA
ENDBRANCH  14  18
ENDBRANCH   1  14
TORSDOF 8
ENDMDL
MODEL 5
REMARK VINA RESULT:      -5.3     12.869     14.782
REMARK  8 active torsions:
REMARK  status: ('A' for Active; 'I' for Inactive)
REMARK    1  A    between atoms: O_1  and  C_2 
REMARK    2  A    between atoms: C_2  and  C_3 
REMARK    3  A    between atoms: C_3  and  C_14 
REMARK    4  A    between atoms: C_3  and  N_5 
REMARK       I    between atoms: N_5  and  C_11 
REMARK    5  A    between atoms: C_8  and  C_9 
REMARK    6  A    between atoms: C_9  and  C_10 
REMARK    7  A    between atoms: C_10  and  C_11 
REMARK    8  A    between atoms: C_10  and  N_15 
ROOT
HETATM    1  N           1     -22.590  -4.314  -9.249  0.00  0.00    -0.343 N 
HETATM    2  C           1     -21.747  -4.719  -8.250  0.00  0.00     0.249 C 
HETATM    3  O           1     -20.748  -5.343  -8.517  0.00  0.00    -0.271 OA
HETATM    4  H           1     -23.426  -3.790  -9.025  0.00  0.00     0.163 HD
ENDROOT
BRANCH   2   5
HETATM    5  C           1     -22.064  -4.386  -6.813  0.00  0.00     0.284 C 
BRANCH   5   6
HETATM    6  C           1     -21.031  -5.032  -5.900  0.00  0.00     0.155 C 
BRANCH   6   7
HETATM    7  C           1     -21.648  -6.216  -5.200  0.00  0.00     0.175 C 
HETATM    8  O           1     -21.640  -7.341  -5.747  0.00  0.00    -0.648 OA
HETATM    9  O           1     -22.169  -6.073  -4.072  0.00  0.00    -0.648 OA
ENDBRANCH   6   7
ENDBRANCH   5   6
BRANCH   5  10
HETATM   10  N           1     -23.429  -4.906  -6.469  0.00  0.00    -0.066 N 
HETATM   11  H           1     -24.136  -4.480  -7.110  0.00  0.00     0.275 HD
HETATM   12  H           1     -23.442  -5.945  -6.577  0.00  0.00     0.275 HD
HETATM   13  H           1     -23.658  -4.654  -5.481  0.00  0.00     0.275 HD
ENDBRANCH   5  10
ENDBRANCH   2   5
BRANCH   1  14
HETATM   14  C           1     -22.284  -4.635 -10.630  0.00  0.00     0.209 C 
BRANCH  14  15
HETATM   15  C           1     -23.581  -4.768 -11.418  0.00  0.00     0.200 C 
BRANCH  15  16
HETATM   16  O           1     -24.499  -3.805 -10.978  0.00  0.00    -0.398 OA
HETATM   17  H           1     -24.079  -3.325 -10.285  0.00  0.00     0.209 HD
ENDBRANCH  15  16
ENDBRANCH  14  15
BRANCH  14  18
HETATM   18  C           1     -21.443  -3.534 -11.228  0.00  0.00     0.198 C 
HETATM   19  O           1     -20.207  -3.683 -11.341  0.00  0.00    -0.646 OA
HETATM   20  O           1     -21.983  -2.473 -11.610  0.00  0.00    -0.646 OA
ENDBRANCH  14  18
ENDBRANCH   1  14
TORSDOF 8
ENDMDL
MODEL 6
REMARK VINA RESULT:      -5.2     24.985     26.060
REMARK  8 active torsions:
REMARK  status: ('A' for Active; 'I' for Inactive)
REMARK    1  A    between atoms: O_1  and  C_2 
REMARK    2  A    between atoms: C_2  and  C_3 
REMARK    3  A    between atoms: C_3  and  C_14 
REMARK    4  A    between atoms: C_3  and  N_5 
REMARK       I    between atoms: N_5  and  C_11 
REMARK    5  A    between atoms: C_8  and  C_9 
REMARK    6  A    between atoms: C_9  and  C_10 
REMARK    7  A    between atoms: C_10  and  C_11 
REMARK    8  A    between atoms: C_10  and  N_15 
ROOT
HETATM    1  N           1     -11.538   6.758 -20.005  0.00  0.00    -0.343 N 
HETATM    2  C           1     -12.743   6.407 -20.552  0.00  0.00     0.249 C 
HETATM    3  O           1     -13.296   7.151 -21.326  0.00  0.00    -0.271 OA
HETATM    4  H           1     -11.075   6.133 -19.357  0.00  0.00     0.163 HD
ENDROOT
BRANCH   2   5
HETATM    5  C           1     -13.381   5.088 -20.189  0.00  0.00     0.284 C 
BRANCH   5   6
HETATM    6  C           1     -12.429   3.950 -20.535  0.00  0.00     0.155 C 
BRANCH   6   7
HETATM    7  C           1     -13.039   3.098 -21.621  0.00  0.00     0.175 C 
HETATM    8  O           1     -12.964   3.458 -22.815  0.00  0.00    -0.648 OA
HETATM    9  O           1     -13.620   2.030 -21.324  0.00  0.00    -0.648 OA
ENDBRANCH   6   7
ENDBRANCH   5   6
BRANCH   5  10
HETATM   10  N           1     -14.658   4.923 -20.958  0.00  0.00    -0.066 N 
HETATM   11  H           1     -14.660   5.574 -21.776  0.00  0.00     0.275 HD
HETATM   12  H           1     -14.735   3.938 -21.297  0.00  0.00     0.275 HD
HETATM   13  H           1     -15.469   5.143 -20.336  0.00  0.00     0.275 HD
ENDBRANCH   5  10
ENDBRANCH   2   5
BRANCH   1  14
HETATM   14  C           1     -10.926   8.025 -20.354  0.00  0.00     0.209 C 
BRANCH  14  15
HETATM   15  C           1     -11.071   8.996 -19.189  0.00  0.00     0.200 C 
BRANCH  15  16
HETATM   16  O           1     -10.080   8.732 -18.233  0.00  0.00    -0.398 OA
HETATM   17  H           1      -9.973   7.797 -18.202  0.00  0.00     0.209 HD
ENDBRANCH  15  16
ENDBRANCH  14  15
BRANCH  14  18
HETATM   18  C           1      -9.462   7.811 -20.652  0.00  0.00     0.198 C 
HETATM   19  O           1      -8.784   8.735 -21.150  0.00  0.00    -0.646 OA
HETATM   20  O           1      -8.927   6.710 -20.398  0.00  0.00    -0.646 OA
ENDBRANCH  14  18
ENDBRANCH   1  14
TORSDOF 8
ENDMDL
MODEL 7
REMARK VINA RESULT:      -5.2     12.947     15.831
REMARK  8 active torsions:
REMARK  status: ('A' for Active; 'I' for Inactive)
REMARK    1  A    between atoms: O_1  and  C_2 
REMARK    2  A    between atoms: C_2  and  C_3 
REMARK    3  A    between atoms: C_3  and  C_14 
REMARK    4  A    between atoms: C_3  and  N_5 
REMARK       I    between atoms: N_5  and  C_11 
REMARK    5  A    between atoms: C_8  and  C_9 
REMARK    6  A    between atoms: C_9  and  C_10 
REMARK    7  A    between atoms: C_10  and  C_11 
REMARK    8  A    between atoms: C_10  and  N_15 
ROOT
HETATM    1  N           1     -21.909  -5.405  -7.213  0.00  0.00    -0.343 N 
HETATM    2  C           1     -21.814  -4.117  -7.665  0.00  0.00     0.249 C 
HETATM    3  O           1     -21.328  -3.262  -6.963  0.00  0.00    -0.271 OA
HETATM    4  H           1     -22.315  -6.120  -7.802  0.00  0.00     0.163 HD
ENDROOT
BRANCH   2   5
HETATM    5  C           1     -22.317  -3.763  -9.043  0.00  0.00     0.284 C 
BRANCH   5   6
HETATM    6  C           1     -23.680  -4.404  -9.268  0.00  0.00     0.155 C 
BRANCH   6   7
HETATM    7  C           1     -24.200  -4.018 -10.631  0.00  0.00     0.175 C 
HETATM    8  O           1     -23.745  -4.573 -11.654  0.00  0.00    -0.648 OA
HETATM    9  O           1     -25.085  -3.140 -10.736  0.00  0.00    -0.648 OA
ENDBRANCH   6   7
ENDBRANCH   5   6
BRANCH   5  10
HETATM   10  N           1     -21.351  -4.269 -10.073  0.00  0.00    -0.066 N 
HETATM   11  H           1     -21.846  -4.913 -10.730  0.00  0.00     0.275 HD
HETATM   12  H           1     -20.958  -3.461 -10.607  0.00  0.00     0.275 HD
HETATM   13  H           1     -20.575  -4.784  -9.598  0.00  0.00     0.275 HD
ENDBRANCH   5  10
ENDBRANCH   2   5
BRANCH   1  14
HETATM   14  C           1     -21.425  -5.744  -5.888  0.00  0.00     0.209 C 
BRANCH  14  15
HETATM   15  C           1     -22.528  -6.453  -5.112  0.00  0.00     0.200 C 
BRANCH  15  16
HETATM   16  O           1     -23.758  -5.835  -5.377  0.00  0.00    -0.398 OA
HETATM   17  H           1     -23.584  -5.120  -5.964  0.00  0.00     0.209 HD
ENDBRANCH  15  16
ENDBRANCH  14  15
BRANCH  14  18
HETATM   18  C           1     -20.228  -6.656  -6.008  0.00  0.00     0.198 C 
HETATM   19  O           1     -19.497  -6.598  -7.020  0.00  0.00    -0.646 OA
HETATM   20  O           1     -19.968  -7.468  -5.094  0.00  0.00    -0.646 OA
ENDBRANCH  14  18
ENDBRANCH   1  14
TORSDOF 8
ENDMDL
MODEL 8
REMARK VINA RESULT:      -5.0     13.968     16.831
REMARK  8 active torsions:
REMARK  status: ('A' for Active; 'I' for Inactive)
REMARK    1  A    between atoms: O_1  and  C_2 
REMARK    2  A    between atoms: C_2  and  C_3 
REMARK    3  A    between atoms: C_3  and  C_14 
REMARK    4  A    between atoms: C_3  and  N_5 
REMARK       I    between atoms: N_5  and  C_11 
REMARK    5  A    between atoms: C_8  and  C_9 
REMARK    6  A    between atoms: C_9  and  C_10 
REMARK    7  A    between atoms: C_10  and  C_11 
REMARK    8  A    between atoms: C_10  and  N_15 
ROOT
HETATM    1  N           1     -21.221  -6.141  -7.041  0.00  0.00    -0.343 N 
HETATM    2  C           1     -21.000  -4.995  -7.757  0.00  0.00     0.249 C 
HETATM    3  O           1     -20.135  -4.225  -7.414  0.00  0.00    -0.271 OA
HETATM    4  H           1     -21.944  -6.787  -7.330  0.00  0.00     0.163 HD
ENDROOT
BRANCH   2   5
HETATM    5  C           1     -21.836  -4.695  -8.977  0.00  0.00     0.284 C 
BRANCH   5   6
HETATM    6  C           1     -20.925  -4.347 -10.146  0.00  0.00     0.155 C 
BRANCH   6   7
HETATM    7  C           1     -21.743  -3.742 -11.259  0.00  0.00     0.175 C 
HETATM    8  O           1     -22.607  -4.430 -11.846  0.00  0.00    -0.648 OA
HETATM    9  O           1     -21.556  -2.552 -11.596  0.00  0.00    -0.648 OA
ENDBRANCH   6   7
ENDBRANCH   5   6
BRANCH   5  10
HETATM   10  N           1     -22.742  -3.534  -8.687  0.00  0.00    -0.066 N 
HETATM   11  H           1     -23.109  -3.612  -7.712  0.00  0.00     0.275 HD
HETATM   12  H           1     -22.207  -2.643  -8.788  0.00  0.00     0.275 HD
HETATM   13  H           1     -23.541  -3.540  -9.362  0.00  0.00     0.275 HD
ENDBRANCH   5  10
ENDBRANCH   2   5
BRANCH   1  14
HETATM   14  C           1     -20.416  -6.429  -5.870  0.00  0.00     0.209 C 
BRANCH  14  15
HETATM   15  C           1     -21.114  -5.884  -4.630  0.00  0.00     0.200 C 
BRANCH  15  16
HETATM   16  O           1     -22.489  -6.140  -4.715  0.00  0.00    -0.398 OA
HETATM   17  H           1     -22.898  -5.680  -4.002  0.00  0.00     0.209 HD
ENDBRANCH  15  16
ENDBRANCH  14  15
BRANCH  14  18
HETATM   18  C           1     -20.242  -7.922  -5.734  0.00  0.00     0.198 C 
HETATM   19  O           1     -21.245  -8.664  -5.669  0.00  0.00    -0.646 OA
HETATM   20  O           1     -19.094  -8.415  -5.686  0.00  0.00    -0.646 OA
ENDBRANCH  14  18
ENDBRANCH   1  14
TORSDOF 8
ENDMDL
MODEL 9
REMARK VINA RESULT:      -4.8     15.688     17.415
REMARK  8 active torsions:
REMARK  status: ('A' for Active; 'I' for Inactive)
REMARK    1  A    between atoms: O_1  and  C_2 
REMARK    2  A    between atoms: C_2  and  C_3 
REMARK    3  A    between atoms: C_3  and  C_14 
REMARK    4  A    between atoms: C_3  and  N_5 
REMARK       I    between atoms: N_5  and  C_11 
REMARK    5  A    between atoms: C_8  and  C_9 
REMARK    6  A    between atoms: C_9  and  C_10 
REMARK    7  A    between atoms: C_10  and  C_11 
REMARK    8  A    between atoms: C_10  and  N_15 
ROOT
HETATM    1  N           1     -20.832  -5.384  -5.223  0.00  0.00    -0.343 N 
HETATM    2  C           1     -21.673  -6.031  -4.358  0.00  0.00     0.249 C 
HETATM    3  O           1     -22.752  -6.416  -4.738  0.00  0.00    -0.271 OA
HETATM    4  H           1     -19.927  -5.063  -4.905  0.00  0.00     0.163 HD
ENDROOT
BRANCH   2   5
HETATM    5  C           1     -21.250  -6.265  -2.929  0.00  0.00     0.284 C 
BRANCH   5   6
HETATM    6  C           1     -20.775  -7.702  -2.767  0.00  0.00     0.155 C 
BRANCH   6   7
HETATM    7  C           1     -21.373  -8.291  -1.513  0.00  0.00     0.175 C 
HETATM    8  O           1     -22.350  -9.067  -1.590  0.00  0.00    -0.648 OA
HETATM    9  O           1     -20.889  -8.003  -0.396  0.00  0.00    -0.648 OA
ENDBRANCH   6   7
ENDBRANCH   5   6
BRANCH   5  10
HETATM   10  N           1     -22.416  -6.018  -2.016  0.00  0.00    -0.066 N 
HETATM   11  H           1     -23.093  -5.373  -2.483  0.00  0.00     0.275 HD
HETATM   12  H           1     -22.887  -6.925  -1.803  0.00  0.00     0.275 HD
HETATM   13  H           1     -22.076  -5.582  -1.129  0.00  0.00     0.275 HD
ENDBRANCH   5  10
ENDBRANCH   2   5
BRANCH   1  14
HETATM   14  C           1     -21.239  -5.160  -6.597  0.00  0.00     0.209 C 
BRANCH  14  15
HETATM   15  C           1     -21.375  -3.664  -6.848  0.00  0.00     0.200 C 
BRANCH  15  16
HETATM   16  O           1     -22.294  -3.444  -7.883  0.00  0.00    -0.398 OA
HETATM   17  H           1     -22.480  -4.284  -8.266  0.00  0.00     0.209 HD
ENDBRANCH  15  16
ENDBRANCH  14  15
BRANCH  14  18
HETATM   18  C           1     -20.200  -5.734  -7.529  0.00  0.00     0.198 C 
HETATM   19  O           1     -20.009  -5.212  -8.649  0.00  0.00    -0.646 OA
HETATM   20  O           1     -19.530  -6.730  -7.181  0.00  0.00    -0.646 OA
ENDBRANCH  14  18
ENDBRANCH   1  14
TORSDOF 8
ENDMDL
